#------------------------------------------------------------------------------
#$Date: 2022-04-08 01:35:06 +0300 (Fri, 08 Apr 2022) $
#$Revision: 274417 $
#$URL: file:///home/coder/svn-repositories/cod/cif/7/24/47/7244728.cif $
#------------------------------------------------------------------------------
#
# This file is available in the Crystallography Open Database (COD),
# http://www.crystallography.net/
#
# All data on this site have been placed in the public domain by the
# contributors.
#
data_7244728
loop_
_publ_author_name
'Wang, Zhi-Wen'
'Zhu, Zi-Yi'
'Li, Shangda'
'Wang, Fei'
_publ_section_title
;
 Design Syntheses of Metal-Organic Layer with Rich N-sites for CO2
 Chemical Fixation
;
_journal_name_full               CrystEngComm
_journal_paper_doi               10.1039/D2CE00088A
_journal_year                    2022
_chemical_absolute_configuration rm
_chemical_formula_moiety         'C42 H32 N4 O14 Zn3, 2(C H4 O)'
_chemical_formula_sum            'C44 H40 N4 O16 Zn3'
_chemical_formula_weight         1076.91
_space_group_crystal_system      orthorhombic
_space_group_IT_number           19
_space_group_name_Hall           'P 2ac 2ab'
_space_group_name_H-M_alt        'P 21 21 21'
_atom_sites_solution_hydrogens   geom
_atom_sites_solution_primary     dual
_audit_creation_date             2021-11-24
_audit_creation_method
;
Olex2 1.2
(compiled 2018.05.29 svn.r3508 for OlexSys, GUI svn.r5506)
;
_audit_update_record
;
2021-11-24 deposited with the CCDC.	2022-04-07 downloaded from the CCDC.
;
_cell_angle_alpha                90
_cell_angle_beta                 90
_cell_angle_gamma                90
_cell_formula_units_Z            4
_cell_length_a                   11.17930(10)
_cell_length_b                   15.0014(2)
_cell_length_c                   25.5008(2)
_cell_measurement_reflns_used    21982
_cell_measurement_temperature    99.99(10)
_cell_measurement_theta_max      60.5440
_cell_measurement_theta_min      4.2240
_cell_volume                     4276.62(8)
_computing_cell_refinement       'CrysAlisPro 1.171.41.93a (Rigaku OD, 2020)'
_computing_data_collection       'CrysAlisPro 1.171.41.93a (Rigaku OD, 2020)'
_computing_data_reduction        'CrysAlisPro 1.171.41.93a (Rigaku OD, 2020)'
_computing_molecular_graphics    'Olex2 (Dolomanov et al., 2009)'
_computing_publication_material  'Olex2 (Dolomanov et al., 2009)'
_computing_structure_refinement  'ShelXL (Sheldrick, 2015)'
_computing_structure_solution    'ShelXT (Sheldrick, 2015)'
_diffrn_ambient_environment      N~2~
_diffrn_ambient_temperature      99.99(10)
_diffrn_detector                 'Hybrid Pixel Array Detector'
_diffrn_detector_area_resol_mean 10.0000
_diffrn_detector_type            HyPix
_diffrn_measured_fraction_theta_full 0.999
_diffrn_measured_fraction_theta_max 0.981
_diffrn_measurement_details
;
List of Runs (angles in degrees, time in seconds):

  # Type    Start    End  Width  t~exp~   \w     \q     \k     \f   Frames
#--------------------------------------------------------------------------
  1  \w      1.00  95.00   0.50    0.10    --   73.55 -71.00 105.00  188
  2  \w    -71.00 -44.00   0.50    0.10    --  -74.80  38.00 -60.00   54
  3  \w    -71.00  -1.00   0.50    0.10    --  -74.80  38.00 -60.00  140
  4  \w    -26.00  -1.00   0.50    0.10    --  -74.80  38.00 -60.00   50
  5  \w    -73.00  16.00   0.50    0.05    --   -0.62 -57.00 150.00  178
  6  \w   -148.00 -56.00   0.50    0.10    --  -74.80 -65.00 -27.00  184
  7  \w   -148.00 -88.00   0.50    0.10    --  -74.80 -99.00  30.00  120
  8  \w   -148.00-103.00   0.50    0.10    --  -74.80 -99.00  90.00   90
  9  \w   -127.00-101.00   0.50    0.10    --  -74.80 -99.00-150.00   52
 10  \w   -148.00 -81.00   0.50    0.10    --  -74.80 -86.00-135.00  134
;
_diffrn_measurement_device       'four-circle diffractometer'
_diffrn_measurement_device_type  'ROD, Synergy Custom system, HyPix'
_diffrn_measurement_method       '\w scans'
_diffrn_orient_matrix_type
'CrysAlisPro convention (1999,Acta A55,543-557)'
_diffrn_orient_matrix_UB_11      0.0236226000
_diffrn_orient_matrix_UB_12      0.0704043000
_diffrn_orient_matrix_UB_13      -0.0305636000
_diffrn_orient_matrix_UB_21      -0.1042810000
_diffrn_orient_matrix_UB_22      -0.0118566000
_diffrn_orient_matrix_UB_23      -0.0249091000
_diffrn_orient_matrix_UB_31      -0.0540671000
_diffrn_orient_matrix_UB_32      0.0536022000
_diffrn_orient_matrix_UB_33      0.0346685000
_diffrn_radiation_monochromator  mirror
_diffrn_radiation_probe          x-ray
_diffrn_radiation_type           GaK\a
_diffrn_radiation_wavelength     1.3405
_diffrn_reflns_av_R_equivalents  0.0333
_diffrn_reflns_av_unetI/netI     0.0357
_diffrn_reflns_Laue_measured_fraction_full 0.999
_diffrn_reflns_Laue_measured_fraction_max 0.981
_diffrn_reflns_limit_h_max       13
_diffrn_reflns_limit_h_min       -14
_diffrn_reflns_limit_k_max       18
_diffrn_reflns_limit_k_min       -19
_diffrn_reflns_limit_l_max       32
_diffrn_reflns_limit_l_min       -32
_diffrn_reflns_number            27223
_diffrn_reflns_point_group_measured_fraction_full 0.977
_diffrn_reflns_point_group_measured_fraction_max 0.942
_diffrn_reflns_theta_full        53.543
_diffrn_reflns_theta_max         60.699
_diffrn_reflns_theta_min         2.971
_diffrn_source                   'micro-focus metaljet'
_exptl_absorpt_coefficient_mu    1.743
_exptl_absorpt_correction_T_max  1.00000
_exptl_absorpt_correction_T_min  0.58517
_exptl_absorpt_correction_type   multi-scan
_exptl_absorpt_process_details
;
CrysAlisPro 1.171.41.93a (Rigaku Oxford Diffraction, 2020)
Empirical absorption correction using spherical harmonics,
implemented in SCALE3 ABSPACK scaling algorithm.
;
_exptl_crystal_colour            colourless
_exptl_crystal_colour_primary    colourless
_exptl_crystal_density_diffrn    1.673
_exptl_crystal_description       block
_exptl_crystal_F_000             2200
_exptl_crystal_size_max          0.2
_exptl_crystal_size_mid          0.1
_exptl_crystal_size_min          0.1
_refine_diff_density_max         1.265
_refine_diff_density_min         -0.883
_refine_diff_density_rms         0.078
_refine_ls_abs_structure_details
;
 Flack x determined using 3530 quotients [(I+)-(I-)]/[(I+)+(I-)]
 (Parsons, Flack and Wagner, Acta Cryst. B69 (2013) 249-259).
;
_refine_ls_abs_structure_Flack   0.013(13)
_refine_ls_extinction_method     none
_refine_ls_goodness_of_fit_ref   1.026
_refine_ls_hydrogen_treatment    constr
_refine_ls_matrix_type           full
_refine_ls_number_parameters     612
_refine_ls_number_reflns         9299
_refine_ls_number_restraints     20
_refine_ls_restrained_S_all      1.089
_refine_ls_R_factor_all          0.0385
_refine_ls_R_factor_gt           0.0361
_refine_ls_shift/su_max          0.003
_refine_ls_shift/su_mean         0.000
_refine_ls_structure_factor_coef Fsqd
_refine_ls_weighting_details
'w=1/[\s^2^(Fo^2^)+(0.0412P)^2^+5.2685P] where P=(Fo^2^+2Fc^2^)/3'
_refine_ls_weighting_scheme      calc
_refine_ls_wR_factor_gt          0.0889
_refine_ls_wR_factor_ref         0.0906
_reflns_Friedel_coverage         0.731
_reflns_Friedel_fraction_full    0.949
_reflns_Friedel_fraction_max     0.893
_reflns_number_gt                8781
_reflns_number_total             9299
_reflns_threshold_expression     'I > 2\s(I)'
_cod_data_source_file            d2ce00088a2.cif
_cod_data_source_block           l-oh-bim+bdc+zn_autored
_cod_database_code               7244728
_shelx_shelxl_version_number     2017/1
_chemical_oxdiff_formula         'Zn C H O N'
_shelx_space_group_comment
;
The symmetry employed for this shelxl refinement is uniquely defined
by the following loop, which should always be used as a source of
symmetry information in preference to the above space-group names.
They are only intended as comments.
;
_diffrn_oxdiff_digest_frames
;
01f4775b98ce361a80493b801f82fa396a0119079ea
;
_diffrn_oxdiff_digest_hkl
;
016b05f237f121857d4988adf1ad2e667e4bc5
;
_reflns_odcompleteness_completeness 99.86
_reflns_odcompleteness_iscentric 1
_reflns_odcompleteness_theta     56.82
_olex2_refinement_description
;
1. Fixed Uiso
 At 1.2 times of:
  All C(H) groups, All N(H) groups
 At 1.5 times of:
  All C(H,H,H) groups, All O(H) groups
2. Restrained distances
 O01O-C2
 1.37 with sigma of 0.002
3. Rigid bond restraints
 O01O, C2
 with sigma for 1-2 distances of 0.01 and sigma for 1-3 distances of 0.01
4. Uiso/Uaniso restraints and constraints
O01O \\sim C2: within 1.7A with sigma of 0.04 and sigma for terminal atoms of
0.08
Uanis(O01O) \\sim Ueq, Uanis(C2) \\sim Ueq: with sigma of 0.001 and sigma for
terminal atoms of 0.002
5.a Ternary CH refined with riding coordinates:
 C01D(H01D), C01I(H01I)
5.b Aromatic/amide H refined with riding coordinates:
 N00K(H00K), N00L(H00L), C00T(H00T), C00U(H00U), C010(H010), C011(H011),
 C013(H013), C016(H016), C017(H017), C019(H019), C01A(H01A), C01C(H01C),
 C01E(H01E), C01G(H01G), C01K(H01K), C01L(H01L), C01M(H01M), C01N(H01N),
 C01Q(H01Q), C01R(H01R), C01S(H01S), C01T(H01T)
5.c Idealised Me refined as rotating group:
 C01J(H01B,H01F,H01H), C01P(H01J,H01O,H01P), C01U(H01U,H01V,H01W), C2(H2A,H2B,
 H2C)
5.d Idealised tetrahedral OH refined as rotating group:
 O00H(H00H), O00I(H00I), O00M(H00M), O01O(H01X)
;
_shelx_res_file
;
TITL l-oh-bim+bdc+zn_autored_a.res in P2(1)2(1)2(1)
    l-oh-bim+bdc+zn_autored.res
    created by SHELXL-2017/1 at 10:49:20 on 24-Nov-2021
REM Old TITL l-oh-bim+bdc+zn_autored_a.res in P2(1)2(1)2(1)
REM SHELXT solution in P2(1)2(1)2(1): R1 0.073, Rweak 0.014, Alpha 0.004
REM <I/s> 0.596 for 29 systematic absences, Orientation as input
REM Flack x = 0.096 ( 0.011 ) from 3364 Parsons' quotients
REM Formula found by SHELXT: C44 N6 O13 Zn3
CELL 1.3405 11.1793 15.0014 25.5008 90 90 90
ZERR 4 0.0001 0.0002 0.0002 0 0 0
LATT -1
SYMM 0.5-X,-Y,0.5+Z
SYMM -X,0.5+Y,0.5-Z
SYMM 0.5+X,0.5-Y,-Z
SFAC C H N O Zn
DISP C 0.0147 0.007 57.608
DISP H -0 0 0.6481
DISP N 0.0253 0.0135 110.2408
DISP O 0.0412 0.025 193.4765
DISP Zn -2.8157 0.545 3798.2336
UNIT 176 160 16 64 12
DFIX 1.37 0.002 O01O C2
DELU O01O C2
SIMU 0.04 0.08 1.7 O01O C2
ISOR 0.001 0.002 O01O C2

L.S. 20
PLAN  20
TEMP -173
BOND
list 4
fmap 2
acta
REM <olex2.extras>
REM <HklSrc "%.\\L-OH-bim+BDC+Zn_autored.hkl">
REM </olex2.extras>

WGHT    0.041200    5.268500
FVAR       0.23819
ZN01  5    1.011361    0.500676    0.497512    11.00000    0.00599    0.01028 =
         0.00951   -0.00189    0.00007   -0.00052
ZN02  5    0.104485    0.464490    0.374070    11.00000    0.00757    0.01096 =
         0.01044   -0.00211    0.00027    0.00017
ZN03  5    0.916722    0.534452    0.622029    11.00000    0.00767    0.01204 =
         0.00971   -0.00207    0.00029   -0.00003
O004  4   -0.000374    0.548833    0.414635    11.00000    0.00794    0.01424 =
         0.01142   -0.00012   -0.00069    0.00177
O005  4    1.020453    0.449357    0.579474    11.00000    0.00822    0.01061 =
         0.01199    0.00066   -0.00015    0.00061
O006  4    0.188102    0.481214    0.490022    11.00000    0.00691    0.02529 =
         0.01439    0.00086    0.00095   -0.00073
O007  4    1.543116    0.157972    0.603745    11.00000    0.01318    0.01346 =
         0.01456    0.00217   -0.00347    0.00324
O008  4   -0.431002    0.874898    0.476411    11.00000    0.01881    0.01272 =
         0.01249   -0.00312   -0.00165    0.00452
O009  4    1.456521    0.124555    0.526981    11.00000    0.01755    0.01403 =
         0.01304   -0.00304   -0.00143    0.00558
O00A  4    0.761509    0.535333    0.585569    11.00000    0.00922    0.02771 =
         0.01328   -0.00154   -0.00115   -0.00140
O00B  4   -0.121268    0.499498    0.352431    11.00000    0.02024    0.02321 =
         0.01543   -0.00771   -0.00688    0.00941
O00C  4    0.834747    0.520154    0.504433    11.00000    0.00730    0.02155 =
         0.01488    0.00134    0.00130    0.00070
O00D  4   -0.518587    0.844629    0.399457    11.00000    0.01132    0.01161 =
         0.01946   -0.00400   -0.00399    0.00197
O00E  4    1.126569    0.494126    0.647034    11.00000    0.01924    0.02262 =
         0.01632   -0.00941   -0.00569    0.00824
O00F  4    0.260944    0.458156    0.409398    11.00000    0.01013    0.04254 =
         0.01333   -0.00398   -0.00053   -0.00043
N00G  3    0.874595    0.564034    0.696280    11.00000    0.01204    0.01278 =
         0.01230   -0.00180   -0.00023   -0.00082
O00H  4    0.208639    0.591880    0.331584    11.00000    0.01964    0.01713 =
         0.03232   -0.00755    0.00581   -0.00242
AFIX 147
H00H  2    0.249709    0.629781    0.347826    11.00000   -1.50000
AFIX   0
O00I  4    0.815981    0.402129    0.663471    11.00000    0.02177    0.01639 =
         0.01805   -0.00542    0.00163   -0.00018
AFIX 147
H00I  2    0.783753    0.368723    0.641127    11.00000   -1.50000
AFIX   0
N00J  3    0.120217    0.442263    0.297518    11.00000    0.01267    0.01513 =
         0.01365    0.00006    0.00053    0.00156
N00K  3    0.768916    0.550081    0.769261    11.00000    0.01401    0.02073 =
         0.01303    0.00236    0.00434    0.00389
AFIX  43
H00K  2    0.716091    0.529194    0.791702    11.00000   -1.20000
AFIX   0
N00L  3    0.212647    0.447283    0.220581    11.00000    0.01834    0.02797 =
         0.01208    0.00327    0.00554    0.00143
AFIX  43
H00L  2    0.263126    0.464152    0.196032    11.00000   -1.20000
AFIX   0

O00M  4    0.730246    0.284229    0.592698    11.00000    0.03284    0.04886 =
         0.05642   -0.02825    0.01100   -0.02145
AFIX 147
H00M  2    0.678806    0.244737    0.598764    11.00000   -1.50000
AFIX   0

C00N  1    0.396507    0.483821    0.478392    11.00000    0.00775    0.01702 =
         0.01394   -0.00034   -0.00248    0.00054
C00O  1    1.208622    0.377121    0.595422    11.00000    0.01153    0.00908 =
         0.01020    0.00058    0.00090    0.00237
C00P  1    0.751322    0.522406    0.536789    11.00000    0.00792    0.01115 =
         0.01421    0.00104   -0.00159    0.00023
C00Q  1    0.203240    0.482118    0.268666    11.00000    0.01194    0.01539 =
         0.01567    0.00228    0.00232    0.00593
C00R  1    0.789184    0.519241    0.720495    11.00000    0.01364    0.01733 =
         0.01092    0.00190    0.00349    0.00193
C00S  1    1.378650    0.244567    0.575120    11.00000    0.01206    0.01385 =
         0.01483   -0.00021    0.00162    0.00237
C00T  1   -0.301067    0.622329    0.378967    11.00000    0.01406    0.01274 =
         0.01553   -0.00449   -0.00237    0.00225
AFIX  43
H00T  2   -0.321309    0.575834    0.355282    11.00000   -1.20000
AFIX   0
C00U  1    0.413660    0.521031    0.528125    11.00000    0.00800    0.01951 =
         0.01498    0.00176    0.00101    0.00001
AFIX  43
H00U  2    0.346781    0.537970    0.548836    11.00000   -1.20000
AFIX   0
C00V  1   -0.100457    0.552363    0.388825    11.00000    0.01028    0.01162 =
         0.01239    0.00259    0.00014    0.00103
C00W  1    0.626418    0.509363    0.516559    11.00000    0.00650    0.01600 =
         0.01505    0.00359   -0.00057   -0.00140
C00X  1   -0.354928    0.756205    0.425030    11.00000    0.01392    0.00892 =
         0.01187    0.00038    0.00313    0.00156
C00Y  1    0.913662    0.629067    0.731523    11.00000    0.01597    0.01790 =
         0.01119   -0.00318   -0.00022    0.00016
C00Z  1   -0.441409    0.831094    0.435412    11.00000    0.00996    0.01062 =
         0.01502    0.00047    0.00091    0.00265
C010  1    0.494199    0.459847    0.448005    11.00000    0.00757    0.02306 =
         0.01391   -0.00052   -0.00126   -0.00038
AFIX  43
H010  2    0.482416    0.434415    0.414280    11.00000   -1.20000
AFIX   0
C011  1    1.400913    0.310072    0.613150    11.00000    0.01028    0.01477 =
         0.01686   -0.00134   -0.00305    0.00289
AFIX  43
H011  2    1.474004    0.309634    0.632151    11.00000   -1.20000
AFIX   0
C012  1   -0.188232    0.623759    0.402483    11.00000    0.01065    0.01131 =
         0.01226    0.00188    0.00086    0.00121
C013  1   -0.159839    0.690623    0.438162    11.00000    0.01172    0.01397 =
         0.01559   -0.00108   -0.00137    0.00152
AFIX  43
H013  2   -0.083867    0.691168    0.454851    11.00000   -1.20000
AFIX   0
C014  1    1.115699    0.444983    0.608191    11.00000    0.01036    0.01431 =
         0.01168    0.00268   -0.00027    0.00343
C015  1    0.271569    0.473478    0.457892    11.00000    0.00718    0.01342 =
         0.01756    0.00322   -0.00083   -0.00051
C016  1    0.528562    0.533019    0.546974    11.00000    0.01248    0.01985 =
         0.01367    0.00010    0.00046   -0.00088
AFIX  43
H016  2    0.540517    0.557572    0.580911    11.00000   -1.20000
AFIX   0
C017  1    0.609388    0.473088    0.466970    11.00000    0.00711    0.02277 =
         0.01392    0.00053    0.00091   -0.00021
AFIX  43
H017  2    0.676450    0.457351    0.446046    11.00000   -1.20000
AFIX   0
C018  1    0.069308    0.378059    0.264701    11.00000    0.01335    0.01550 =
         0.01283   -0.00065    0.00020    0.00088
C019  1   -0.027995    0.321589    0.272697    11.00000    0.01428    0.01888 =
         0.01901   -0.00465   -0.00013    0.00067
AFIX  43
H019  2   -0.069730    0.320558    0.305143    11.00000   -1.20000
AFIX   0
C01A  1    1.315949    0.375623    0.623010    11.00000    0.01560    0.01234 =
         0.01543   -0.00334   -0.00152    0.00234
AFIX  43
H01A  2    1.331324    0.419810    0.648831    11.00000   -1.20000
AFIX   0
C01B  1    1.466609    0.169588    0.567669    11.00000    0.01035    0.01055 =
         0.01497    0.00054   -0.00011    0.00021
C01C  1    1.271619    0.246329    0.547531    11.00000    0.01750    0.01431 =
         0.01342   -0.00508   -0.00238   -0.00081
AFIX  43
H01C  2    1.256457    0.202331    0.521575    11.00000   -1.20000
AFIX   0
C01D  1    0.273680    0.560668    0.287673    11.00000    0.01705    0.01602 =
         0.02296    0.00224    0.00823   -0.00067
AFIX  13
H01D  2    0.273083    0.607751    0.259914    11.00000   -1.20000
AFIX   0
C01E  1   -0.243125    0.756466    0.449211    11.00000    0.01497    0.01438 =
         0.01763   -0.00385   -0.00215    0.00175
AFIX  43
H01E  2   -0.223788    0.802241    0.473519    11.00000   -1.20000
AFIX   0
C01F  1    0.846193    0.620511    0.777643    11.00000    0.01803    0.02398 =
         0.01431   -0.00420    0.00092    0.00360
C01G  1    1.003812    0.692780    0.727052    11.00000    0.02223    0.02441 =
         0.01809   -0.00323    0.00091   -0.00407
AFIX  43
H01G  2    1.051024    0.697610    0.696207    11.00000   -1.20000
AFIX   0
C01H  1    0.128413    0.379721    0.216390    11.00000    0.01803    0.02407 =
         0.01456   -0.00161    0.00244    0.00196
C01I  1    0.725869    0.443432    0.694502    11.00000    0.01717    0.01922 =
         0.01591    0.00019    0.00571   -0.00467
AFIX  13
H01I  2    0.662915    0.468046    0.670702    11.00000   -1.20000
AFIX   0
C01J  1    0.403034    0.535843    0.299865    11.00000    0.01597    0.02725 =
         0.03542   -0.00559    0.00082   -0.00463
AFIX 137
H01B  2    0.445137    0.588104    0.313687    11.00000   -1.50000
H01F  2    0.442584    0.515489    0.267727    11.00000   -1.50000
H01H  2    0.404492    0.487986    0.326017    11.00000   -1.50000
AFIX   0
C01K  1   -0.061179    0.267294    0.231584    11.00000    0.02241    0.02875 =
         0.02688   -0.00923   -0.00320   -0.00265
AFIX  43
H01K  2   -0.127801    0.228626    0.235755    11.00000   -1.20000
AFIX   0
C01L  1   -0.383266    0.688439    0.390105    11.00000    0.01177    0.01384 =
         0.01731   -0.00053   -0.00217    0.00327
AFIX  43
H01L  2   -0.459627    0.687516    0.373768    11.00000   -1.20000
AFIX   0
C01M  1    1.186756    0.311346    0.557357    11.00000    0.01277    0.01598 =
         0.01302   -0.00065   -0.00293   -0.00144
AFIX  43
H01M  2    1.113653    0.311533    0.538363    11.00000   -1.20000
AFIX   0
C01N  1    0.096001    0.323859    0.175099    11.00000    0.02841    0.04705 =
         0.01662   -0.01145    0.00276    0.00261
AFIX  43
H01N  2    0.137542    0.324564    0.142603    11.00000   -1.20000
AFIX   0

O01O  4    0.294810    0.727535    0.384230    11.00000    0.04955    0.06591 =
         0.11611   -0.04336    0.00722   -0.01352
AFIX 147
H01X  2    0.277356    0.761084    0.358991    11.00000   -1.50000
AFIX   0

C01P  1    0.667424    0.379994    0.732983    11.00000    0.04058    0.02602 =
         0.02798    0.00129    0.00934   -0.01421
AFIX 137
H01J  2    0.635551    0.328383    0.714014    11.00000   -1.50000
H01O  2    0.602074    0.410649    0.751175    11.00000   -1.50000
H01P  2    0.726842    0.359917    0.758652    11.00000   -1.50000
AFIX   0
C01Q  1    0.952102    0.740806    0.814949    11.00000    0.03360    0.03899 =
         0.03076   -0.02189    0.00095   -0.00250
AFIX  43
H01Q  2    0.966162    0.780768    0.843184    11.00000   -1.20000
AFIX   0
C01R  1    0.863898    0.677061    0.820248    11.00000    0.02923    0.03853 =
         0.01681   -0.01159    0.00470    0.00622
AFIX  43
H01R  2    0.817645    0.672024    0.851360    11.00000   -1.20000
AFIX   0
C01S  1    0.000755    0.267611    0.183780    11.00000    0.03047    0.04586 =
         0.02840   -0.02094   -0.00192   -0.00341
AFIX  43
H01S  2   -0.023601    0.228047    0.156722    11.00000   -1.20000
AFIX   0
C01T  1    1.021578    0.748780    0.769563    11.00000    0.02866    0.03127 =
         0.03511   -0.01461    0.00284   -0.01058
AFIX  43
H01T  2    1.081897    0.793294    0.767858    11.00000   -1.20000
AFIX   0

C01U  1    0.836864    0.244766    0.580562    11.00000    0.06301    0.03255 =
         0.04788   -0.00208   -0.00571    0.00129
AFIX 137
H01U  2    0.824359    0.200268    0.552965    11.00000   -1.50000
H01V  2    0.869445    0.215595    0.611841    11.00000   -1.50000
H01W  2    0.893260    0.290131    0.568175    11.00000   -1.50000
AFIX   0

C2    1    0.217350    0.742361    0.424610    11.00000    0.12034    0.11257 =
         0.10855   -0.00142    0.00315   -0.01135
AFIX 137
H2A   2    0.160608    0.692726    0.426963    11.00000   -1.50000
H2B   2    0.173575    0.797958    0.418372    11.00000   -1.50000
H2C   2    0.262201    0.747053    0.457514    11.00000   -1.50000
AFIX   0
HKLF 4




REM  l-oh-bim+bdc+zn_autored_a.res in P2(1)2(1)2(1)
REM R1 =  0.0361 for    8781 Fo > 4sig(Fo)  and  0.0385 for all    9299 data
REM    612 parameters refined using     20 restraints

END

WGHT      0.0412      5.2727

REM Highest difference peak  1.265,  deepest hole -0.883,  1-sigma level  0.078
Q1    1   0.2856  0.7169  0.4174  11.00000  0.05    1.26
Q2    1   0.3034  0.7072  0.4089  11.00000  0.05    1.24
Q3    1   0.2817  0.7420  0.3695  11.00000  0.05    0.99
Q4    1   0.1947  0.7586  0.4163  11.00000  0.05    0.61
Q5    1   0.7440  0.2459  0.6206  11.00000  0.05    0.60
Q6    1   0.9093  0.5438  0.6688  11.00000  0.05    0.33
Q7    1   0.1012  0.4595  0.3282  11.00000  0.05    0.31
Q8    1   0.3697  0.7813  0.3655  11.00000  0.05    0.31
Q9    1   1.6116  0.1169  0.6285  11.00000  0.05    0.30
Q10   1   1.0258  0.8387  0.7647  11.00000  0.05    0.29
Q11   1  -0.5785  0.8815  0.3770  11.00000  0.05    0.28
Q12   1  -0.1435  0.5948  0.3925  11.00000  0.05    0.27
Q13   1   0.3372  0.4710  0.4703  11.00000  0.05    0.27
Q14   1   0.5779  0.5325  0.5276  11.00000  0.05    0.27
Q15   1   1.4100  0.1979  0.5756  11.00000  0.05    0.27
Q16   1   0.0987  0.3791  0.2403  11.00000  0.05    0.27
Q17   1   1.1648  0.4024  0.6017  11.00000  0.05    0.26
Q18   1   0.2458  0.4171  0.4188  11.00000  0.05    0.26
Q19   1   0.7039  0.2007  0.6618  11.00000  0.05    0.26
Q20   1   1.0236  0.2778  0.5012  11.00000  0.05    0.26
;
_shelx_res_checksum              95296
_shelx_hkl_file
;
   0   0  -2 1223.58   34.98
   0   0  -3    0.10    0.59
   0   0  -4  111.96    5.07
   0   0  -5    0.68    1.05
   0   0  -6 1375.03   41.54
   0   0  -7    0.24    1.21
   0   0  -8 2636.87   77.71
   0   0   9    1.22    1.02
   0   0  -9    0.64    1.43
   0   0   9   -0.50    1.09
   0   0   9    0.61    1.29
   0   0 -10 2137.73   66.03
   0   0  10 2218.50   62.58
   0   0  10 2106.74   63.04
   0   0  10 2194.79   63.90
   0   0 -11    0.41    1.37
   0   0  11    0.34    1.12
   0   0  11    0.64    1.15
   0   0  11    0.51    1.36
   0   0 -12  147.40    9.18
   0   0  12  154.53    6.81
   0   0  12  134.48    7.50
   0   0  12  146.92    7.22
   0   0 -13   -0.50    1.47
   0   0  13    0.31    1.53
   0   0  13    0.43    1.21
   0   0  13   -0.26    1.45
   0   0  13    0.15    0.81
   0   0 -14   84.50    7.37
   0   0  14   99.49    5.51
   0   0  14   99.04    6.48
   0   0  14   76.30    5.48
   0   0  14   92.38    4.68
   0   0 -15    0.61    1.58
   0   0  15   -0.38    1.81
   0   0  15    0.26    1.30
   0   0  15   -0.32    1.54
   0   0  15   -0.37    0.88
   0   0  16  320.50   12.63
   0   0  16  298.60   13.96
   0   0  16  309.73   11.39
   0   0  17   -0.92    1.37
   0   0  17    0.39    1.73
   0   0  17    0.21    0.90
   0   0  18  651.07   22.26
   0   0  18  602.07   23.94
   0   0  18  566.82   22.77
   0   0  18  599.87   20.24
   0   0  19   -0.52    2.22
   0   0  19    3.60    1.95
   0   0  19   -0.89    1.48
   0   0  20  523.90   19.95
   0   0  20  509.87   18.95
   0   0  20  485.02   21.69
   0   0  21    1.37    1.45
   0   0  21   -0.83    1.93
   0   0  21    2.39    2.66
   0   0  22  310.06   14.67
   0   0  22  328.53   14.03
   0   0  23    1.91    2.01
   0   0  23    1.39    2.34
   0   0  24  257.84   13.54
   0   0  24  281.72   12.98
   0   0  25    1.65    2.05
   0   0  25    3.48    2.32
   0   0  26  414.24   18.58
   0   0  26  434.92   17.90
   0   0  27   -1.27    1.97
   0   0  27    1.51    2.31
   0   0  28  198.44   11.39
   0   0  28  199.17   10.68
   0   0  29   -0.41    1.77
   0   0  29   -0.48    1.93
   0   0  30   16.42    3.26
   0   0  30   13.94    2.93
   0  -1   0    0.17    0.31
   0  -1   1    1.18    0.44
   0  -1   2    8.01    0.91
   0  -1   3    3.46    0.85
   0  -1   4    0.14    0.82
   0  -1   5    1.22    1.11
   0  -1  -8    9.78    2.08
   0  -1  -9    0.33    1.43
   0   1   9   -0.51    1.14
   0  -1   9    0.49    0.95
   0  -1   9    1.23    1.39
   0  -1 -10   76.70    5.91
   0   1  10   73.51    3.89
   0   1  10   81.53    4.12
   0  -1  10   66.64    4.22
   0  -1  10   84.46    5.08
   0   1  11    2.02    1.14
   0  -1 -11    3.31    1.89
   0  -1  11    3.11    1.56
   0  -1  11    3.81    1.42
   0  -1 -12    1.38    1.55
   0   1  12    3.36    1.25
   0  -1  12    0.29    1.35
   0  -1  12    1.43    1.33
   0  -1  12    2.22    0.95
   0  -1 -13    4.58    2.22
   0   1  13    5.18    1.49
   0  -1  13    7.65    2.09
   0  -1  13    4.51    1.64
   0   1  13    6.98    1.22
   0  -1  13    7.20    1.36
   0  -1 -14   17.35    3.60
   0   1  14   13.95    2.14
   0  -1  14   15.07    2.78
   0  -1  14   15.88    2.57
   0  -1  14   14.31    1.83
   0   1  14   11.95    1.61
   0   1  15   20.14    2.60
   0  -1 -15   25.82    4.44
   0  -1  15   24.94    3.64
   0  -1  15   25.68    3.19
   0   1  15   18.12    2.01
   0  -1  15   26.04    2.43
   0   1  16    9.64    2.09
   0  -1  16    7.09    2.56
   0  -1  16   15.73    2.74
   0  -1  16   15.75    1.99
   0   1  16   12.33    1.70
   0  -1  17    7.71    2.42
   0   1  17    4.81    1.88
   0  -1  17    2.74    2.16
   0  -1  17    3.15    1.32
   0   1  17    2.18    0.97
   0   1  18   19.58    3.00
   0  -1  18   18.61    3.73
   0  -1  18   17.10    3.15
   0  -1  18   15.58    2.18
   0  -1  19   10.72    2.36
   0   1  19    8.81    2.27
   0  -1  19    8.95    2.91
   0  -1  19   17.03    3.13
   0  -1  19    9.28    3.21
   0  -1  19    8.82    1.69
   0  -1  20    6.52    2.64
   0  -1  20    6.78    3.17
   0  -1  20   12.49    2.45
   0   1  20    6.44    2.40
   0  -1  20   11.91    2.61
   0  -1  21   25.32    4.22
   0  -1  21   25.44    3.72
   0  -1  21   26.65    3.45
   0   1  21   28.49    3.47
   0   1  21   20.29    3.36
   0  -1  21   30.00    4.80
   0   1  22   44.79    4.80
   0  -1  22   52.11    5.34
   0  -1  22   44.90    5.76
   0   1  22   45.27    4.49
   0  -1  22   52.38    4.80
   0  -1  23    1.22    2.79
   0   1  23    0.45    1.82
   0  -1  23    0.94    2.56
   0  -1  23   -0.39    1.94
   0   1  23    1.12    1.82
   0  -1  24   91.48    7.33
   0   1  24   77.91    6.68
   0  -1  24   80.36    7.77
   0   1  24   78.49    6.16
   0  -1  24  100.06    6.87
   0  -1  25    8.01    3.51
   0   1  25    5.84    2.60
   0   1  25    7.25    2.19
   0  -1  25    8.85    2.60
   0  -1  25    3.04    2.21
   0   1  26   46.43    5.27
   0  -1  26   44.17    5.16
   0  -1  26   41.66    5.97
   0   1  26   46.74    4.76
   0  -1  26   48.07    4.93
   0  -1  27    0.69    2.42
   0   1  27    0.99    2.04
   0  -1  27   -3.02    2.10
   0  -1  27   -0.51    2.07
   0   1  27    0.82    2.04
   0   1  28   37.79    4.87
   0  -1  28   45.53    5.97
   0   1  28   31.00    5.35
   0   1  28   37.74    4.36
   0  -1  28   34.21    4.27
   0  -1  28   36.54    4.95
   0   1  29    0.65    2.29
   0  -1  29    1.32    2.72
   0  -1  29    0.42    1.94
   0   1  29   -0.39    1.83
   0  -1  29    2.94    2.39
   0   1  29    0.47    2.14
   0  -1  30   24.34    4.66
   0   1  30   18.96    3.53
   0   1  30   24.69    3.44
   0  -1  30   20.00    3.67
   0  -1  30   15.83    3.20
   0   1  31    1.38    1.54
   0   1  31   -0.41    1.68
   0  -2   1  941.39   26.36
   0   2  -1  860.28   26.37
   0   2  -2 1165.31   34.85
   0  -2   2 1235.04   34.87
   0  -2   3  301.99   10.21
   0   2  -3  294.65   10.24
   0  -2   4  375.57   12.49
   0   2  -4  349.57   12.37
   0  -2   5 1601.39   47.12
   0   2  -5 1581.55   47.05
   0   2  -6 3710.94  104.80
   0  -2   6 3608.09  104.82
   0   2  -7  108.84    6.18
   0  -2   7  112.27    6.26
   0   2  -8 5485.03  156.39
   0  -2   9  457.20   15.07
   0   2  -9  445.60   17.51
   0   2   9  434.15   15.38
   0   2   9  455.31   15.85
   0   2 -10 1078.62   34.22
   0  -2 -10  990.06   34.08
   0   2  10  966.99   30.27
   0  -2  10 1057.24   30.82
   0   2  10 1012.89   30.25
   0  -2  10 1018.39   31.91
   0   2  10  984.54   31.64
   0   2  10 1001.34   31.16
   0   2  11  720.38   23.12
   0   2  11  730.73   23.04
   0  -2 -11  760.09   27.26
   0   2 -11  781.04   27.21
   0  -2  11  755.44   23.55
   0  -2  11  767.25   24.93
   0   2  11  745.79   24.62
   0   2  11  722.43   23.99
   0  -2  11  748.89   23.98
   0  -2  11  712.45   22.76
   0   2  12  311.81   11.46
   0  -2 -12  314.50   15.03
   0  -2  12  323.40   11.98
   0   2 -12  366.85   15.74
   0   2  12  314.89   11.65
   0  -2  12  324.80   13.23
   0   2  12  291.05   12.63
   0   2  12  324.04   12.47
   0  -2  12  318.95   12.43
   0  -2  12  315.26   11.30
   0   2 -13   76.81    6.66
   0  -2 -13   62.39    6.09
   0  -2  13   64.70    4.34
   0   2  13   66.79    4.16
   0   2  13   64.34    4.99
   0  -2  13   65.09    5.17
   0  -2  13   59.56    4.52
   0   2  13   67.43    4.75
   0  -2  13   67.62    3.94
   0   2  13   58.79    3.45
   0   2  14  729.02   23.06
   0   2 -14  658.90   27.32
   0  -2 -14  702.77   27.76
   0   2  14  665.33   24.43
   0  -2  14  719.65   25.11
   0  -2  14  683.71   22.70
   0   2  14  703.70   24.09
   0  -2  14  671.63   23.91
   0  -2  14  657.98   22.26
   0   2 -15   11.48    3.06
   0   2  15   12.39    2.09
   0  -2  15   14.57    2.42
   0  -2  15   11.69    2.65
   0  -2  15   15.70    2.31
   0   2  15   12.44    2.62
   0   2  15   12.11    2.39
   0  -2  15   11.90    2.37
   0  -2  15   10.77    1.85
   0   2  16  256.15   11.12
   0  -2  16  285.12   13.24
   0   2  16  249.89   12.62
   0  -2  16  259.77   12.23
   0   2  16  272.03   12.27
   0  -2  16  274.77   10.69
   0   2  17   41.18    3.84
   0   2  17   36.21    4.54
   0  -2  17   40.90    4.83
   0  -2  17   40.98    4.43
   0   2  17   48.35    4.70
   0  -2  17   41.90    3.43
   0   2  18    8.71    2.87
   0  -2  18    7.92    2.74
   0   2  18    6.44    2.04
   0   2  18    6.00    2.44
   0  -2  18   10.85    2.97
   0  -2  18    8.16    1.75
   0   2  19  128.04    7.57
   0  -2  19  130.49    9.24
   0   2  19  126.06    9.00
   0  -2  19  120.02    8.43
   0   2  19  125.50    8.45
   0  -2  19  126.53    6.79
   0  -2  20    0.57    2.48
   0   2  20    3.91    2.72
   0   2  20   -0.37    1.71
   0   2  20    1.01    2.02
   0  -2  20    0.51    2.26
   0  -2  20    0.28    1.10
   0   2  21  246.05   11.82
   0   2  21  234.55   13.01
   0  -2  21  230.34   13.05
   0  -2  21  233.14   13.56
   0   2  21  226.65   13.36
   0   2  22   69.87    6.02
   0   2  22   69.84    6.84
   0  -2  22   69.11    6.99
   0   2  22   71.70    5.53
   0   2  23   14.64    4.01
   0  -2  23   15.97    3.99
   0   2  23   11.56    2.97
   0   2  23   17.30    2.94
   0   2  24 1265.57   41.62
   0   2  24 1254.57   44.16
   0  -2  24 1185.09   43.79
   0   2  24 1218.69   40.19
   0  -2  25   21.38    4.49
   0   2  25   11.19    3.88
   0   2  25   23.18    3.52
   0   2  25   18.05    3.65
   0  -2  26  202.59   11.88
   0   2  26  194.48   12.83
   0  -2  26  195.65   13.16
   0   2  26  202.19   10.69
   0  -2  26  212.67   11.34
   0  -2  27    0.68    2.58
   0   2  27    0.67    2.85
   0   2  27    0.40    1.69
   0  -2  27    2.20    2.43
   0   2  27    0.96    1.92
   0  -2  27   -0.52    2.33
   0  -2  28   95.52    7.72
   0   2  28  106.50    7.75
   0  -2  28  112.69    9.31
   0   2  28   97.95    6.87
   0  -2  28   92.35    7.12
   0  -2  29   21.50    4.41
   0  -2  29   29.92    4.11
   0  -2  29   30.73    4.35
   0   2  29   29.02    3.78
   0   2  29   22.40    3.57
   0  -2  30    4.32    2.88
   0   2  30    0.42    2.01
   0   2  30    2.13    1.70
   0   2  31    9.47    2.22
   0   2  31    9.99    2.63
   0  -3   0    0.74    0.91
   0   3  -1    3.06    1.01
   0  -3   1    3.26    1.02
   0   3  -2   23.21    2.14
   0  -3   2   24.55    2.02
   0  -3   3    0.88    0.93
   0   3  -3   -0.32    1.07
   0  -3   4   25.76    2.42
   0   3  -4   30.88    2.70
   0  -3   5   30.72    2.77
   0   3  -5   27.69    2.72
   0  -3   6   61.47    4.25
   0   3  -6   62.26    4.32
   0   3  -7   27.56    3.05
   0  -3   7   30.39    3.17
   0  -3   8    7.45    1.89
   0   3  -8    5.22    1.77
   0  -3   8    5.22    1.29
   0  -3   8    3.50    1.05
   0  -3   9   37.64    2.81
   0   3   9   36.29    2.54
   0   3   9   38.30    2.52
   0   3   9   37.35    2.95
   0   3   9   33.78    3.05
   0  -3   9   42.33    3.32
   0  -3   9   37.80    2.56
   0  -3  10   76.72    4.24
   0   3  10   63.11    3.72
   0   3  10   68.71    3.73
   0   3 -10   67.21    5.50
   0   3  10   70.60    4.35
   0  -3  10   74.38    3.88
   0  -3  10   66.66    4.58
   0   3  10   67.86    4.46
   0   3  11  139.19    6.04
   0  -3  11  145.49    6.55
   0  -3 -11  154.67    9.20
   0   3  11  134.91    6.09
   0   3 -11  136.78    8.62
   0  -3  11  140.37    6.12
   0  -3  11  138.69    7.24
   0   3  11  127.59    6.94
   0   3  11  124.47    6.56
   0  -3  12   18.68    2.30
   0   3  12   20.22    2.09
   0   3  12   19.83    2.19
   0   3 -12   17.50    3.39
   0  -3 -12   18.96    3.34
   0  -3  12   20.44    2.19
   0  -3  12   17.17    2.68
   0   3  12   18.91    2.72
   0   3  12   23.37    2.72
   0  -3  12   18.90    2.45
   0  -3  12   16.63    2.01
   0   3  13   40.47    3.09
   0  -3 -13   41.67    5.06
   0  -3  13   40.96    3.41
   0   3 -13   30.24    4.40
   0   3  13   32.82    2.95
   0  -3  13   35.97    3.85
   0   3  13   35.06    3.79
   0  -3  13   36.05    2.97
   0  -3  13   40.45    3.63
   0   3  13   36.03    3.49
   0  -3  13   41.69    3.11
   0  -3  14   76.20    4.91
   0   3  14   61.83    4.25
   0   3 -14   58.77    6.24
   0  -3 -14   66.15    6.68
   0  -3  14   62.86    4.15
   0  -3  14   61.91    5.19
   0   3  14   58.21    5.00
   0   3  14   62.97    4.87
   0  -3  14   69.90    5.07
   0  -3  14   61.35    4.04
   0   3  15    0.25    1.13
   0  -3  15    1.97    1.53
   0  -3  15    0.24    1.30
   0   3  15    0.38    1.52
   0  -3  15    0.28    1.36
   0  -3  15    0.34    1.48
   0   3  15    0.67    1.57
   0  -3  15   -0.22    1.11
   0   3  16   26.20    2.95
   0  -3  16   26.43    3.29
   0  -3  16   23.16    3.51
   0   3  16   23.92    3.59
   0  -3  16   23.92    2.85
   0   3  16   22.45    3.24
   0  -3  16   23.81    3.44
   0  -3  16   24.30    2.68
   0   3  17   16.20    2.55
   0  -3  17   14.20    2.73
   0   3  17   15.68    3.23
   0  -3  17   13.98    2.50
   0  -3  17   20.88    3.55
   0  -3  17   13.41    2.97
   0   3  17   17.67    3.03
   0  -3  17   13.40    2.14
   0  -3  18    7.87    2.10
   0   3  18    6.39    1.85
   0   3  18    9.20    2.84
   0  -3  18    8.05    2.26
   0  -3  18    9.02    2.64
   0  -3  18    7.96    2.56
   0   3  18    7.85    2.63
   0  -3  18    7.43    1.77
   0  -3  19   62.63    5.46
   0   3  19   49.67    4.63
   0  -3  19   68.18    5.16
   0  -3  19   57.04    6.10
   0   3  19   53.66    5.76
   0   3  19   55.18    5.57
   0  -3  19   54.60    5.61
   0  -3  19   63.54    4.63
   0   3  20    4.45    2.36
   0  -3  20    4.20    1.90
   0   3  20    6.29    2.19
   0  -3  20    0.84    1.75
   0  -3  20    9.17    3.40
   0   3  20    4.06    2.16
   0  -3  20    4.64    2.41
   0  -3  20    4.22    1.53
   0  -3  21   23.11    3.53
   0  -3  21   30.47    4.24
   0   3  21   22.04    3.41
   0  -3  21   25.88    4.21
   0   3  21   27.15    4.32
   0  -3  21   25.17    3.09
   0   3  22   56.20    5.22
   0  -3  22   53.90    5.71
   0   3  22   45.48    5.73
   0  -3  22   59.74    6.43
   0   3  22   58.89    4.91
   0  -3  22   54.36    5.20
   0  -3  23    9.87    3.47
   0   3  23    9.70    3.36
   0   3  23   12.65    3.02
   0   3  23   14.43    2.70
   0   3  24  114.60    7.99
   0   3  24  139.55   10.17
   0  -3  24  112.76    9.35
   0   3  24  114.99    7.40
   0   3  25   -0.65    2.45
   0  -3  25    1.33    2.51
   0   3  25   -0.92    1.96
   0   3  25   -0.38    1.70
   0   3  26  110.50    8.02
   0   3  26  108.35    9.24
   0  -3  26  110.23    9.46
   0   3  26  119.15    7.60
   0  -3  27   25.68    4.76
   0   3  27   26.33    3.70
   0   3  27   30.29    4.33
   0  -3  28   17.92    4.17
   0   3  28   24.13    3.43
   0   3  28   14.69    3.23
   0  -3  29   15.95    3.94
   0   3  29    5.68    2.12
   0   3  29   10.99    2.77
   0  -3  30    0.60    2.34
   0   3  30    1.00    1.41
   0   3  30    0.79    1.67
   0  -3  31   28.72    4.48
   0   3  31   22.05    3.00
   0   3  31   21.32    3.16
   0  -4   0 9999.00  278.85
   0  -4   1  128.87    5.79
   0  -4  -1  123.36    5.89
   0   4  -2 3509.06   97.28
   0  -4   2 3312.29   96.68
   0   4  -3 1234.60   36.46
   0  -4   3 1156.67   35.83
   0  -4   4   80.88    4.66
   0   4  -4   80.59    4.88
   0  -4   5  130.76    6.50
   0   4  -5  126.52    6.62
   0  -4   6  477.73   17.52
   0   4  -6  513.84   18.02
   0   4  -7  364.44   14.23
   0  -4   7  382.34   14.26
   0  -4   7  338.74   11.86
   0  -4   7  342.05   11.54
   0   4  -8  691.74   24.53
   0  -4   8  697.07   21.83
   0  -4   8  753.67   24.83
   0  -4   8  682.15   21.37
   0   4   9 1314.41   37.72
   0   4  -9 1285.22   41.58
   0  -4   9 1391.02   42.00
   0  -4   9 1347.63   38.50
   0   4   9 1297.58   37.80
   0   4   9 1212.89   38.58
   0  -4   9 1224.14   38.74
   0   4   9 1242.87   38.76
   0  -4   9 1276.09   37.85
   0   4  10  181.71    7.31
   0  -4  10  176.00    7.69
   0   4 -10  196.89   10.36
   0   4  10  191.78    7.32
   0   4  10  175.46    7.99
   0  -4  10  188.45    7.39
   0  -4  10  178.86    8.27
   0   4  10  183.83    8.26
   0   4  11 1278.35   36.87
   0   4 -11 1309.86   41.81
   0   4  11 1202.63   36.84
   0  -4  11 1224.44   37.48
   0   4  11 1222.13   38.06
   0  -4  11 1187.31   38.25
   0  -4  11 1241.84   36.91
   0   4  11 1215.08   38.25
   0  -4 -12    5.25    2.35
   0   4  12    5.44    1.38
   0   4  12    4.51    1.42
   0   4 -12    7.17    2.29
   0   4  12    4.70    1.64
   0  -4  12    5.56    1.66
   0   4  12    4.80    1.75
   0  -4  12    6.95    1.71
   0  -4  12    6.10    1.90
   0  -4  12    6.50    1.45
   0   4  13  766.29   25.00
   0  -4  13  794.90   25.73
   0   4  13  771.47   24.82
   0   4 -13  797.73   30.23
   0  -4 -13  826.93   30.72
   0  -4  13  750.78   26.57
   0  -4  13  822.66   25.18
   0   4  13  763.11   26.60
   0   4  13  778.46   26.22
   0  -4  13  779.82   25.09
   0  -4  13  805.68   26.42
   0  -4 -14 1066.11   38.26
   0   4  14 1011.64   31.70
   0   4 -14 1030.89   37.80
   0   4  14 1026.62   31.95
   0  -4  14 1038.18   32.69
   0  -4  14 1016.68   33.97
   0  -4  14 1042.31   31.98
   0   4  14  981.01   33.60
   0  -4  14  978.39   33.11
   0   4  14  988.88   33.20
   0  -4  14 1048.25   32.01
   0   4  15  258.86   10.91
   0  -4  15  264.22   11.59
   0  -4  15  259.63   10.90
   0  -4  15  257.25   12.46
   0   4  15  278.43   12.66
   0   4  15  283.18   12.37
   0  -4  15  287.27   12.45
   0  -4  15  263.30   10.87
   0   4  16 1267.18   39.06
   0  -4  16 1189.59   39.64
   0   4  16 1221.88   41.04
   0  -4  16 1311.55   41.71
   0  -4  16 1236.68   38.96
   0  -4  16 1281.10   40.90
   0   4  16 1206.76   40.41
   0  -4  16 1276.60   38.81
   0   4  17  129.19    7.12
   0  -4  17  140.49    8.02
   0  -4  17  140.10    8.94
   0   4  17  126.38    8.41
   0  -4  17  125.95    7.14
   0  -4  17  125.37    8.19
   0   4  17  122.07    7.99
   0  -4  17  131.13    7.01
   0  -4  18    9.71    2.26
   0  -4  18   10.52    2.98
   0   4  18   10.19    2.23
   0   4  18    9.65    2.83
   0  -4  18    6.40    2.27
   0  -4  18    9.94    2.76
   0   4  18   10.16    2.66
   0  -4  18    6.49    1.74
   0  -4  19   49.84    4.88
   0   4  19   52.38    4.62
   0  -4  19   50.98    5.79
   0   4  19   42.44    5.15
   0  -4  19   54.69    4.63
   0   4  19   46.59    5.13
   0  -4  19   43.91    5.08
   0  -4  19   51.31    4.31
   0  -4  20   12.55    3.10
   0   4  20   15.75    2.77
   0  -4  20   17.34    3.08
   0  -4  20   14.66    3.48
   0   4  20   19.38    3.57
   0  -4  20   13.32    2.45
   0   4  21   79.93    6.06
   0  -4  21   87.28    6.84
   0  -4  21   84.87    6.32
   0   4  21   65.11    6.55
   0  -4  21   70.80    6.87
   0  -4  21   81.04    5.71
   0   4  22  390.90   16.66
   0  -4  22  431.19   18.12
   0  -4  22  395.59   16.74
   0   4  22  384.74   18.36
   0  -4  22  375.51   18.50
   0  -4  22  390.01   15.75
   0  -4  23  105.54    8.01
   0   4  23   96.57    7.10
   0  -4  23  102.60    8.57
   0   4  23   97.67    8.28
   0   4  23   99.43    6.60
   0  -4  23   96.92    7.15
   0  -4  24  624.17   24.78
   0   4  24  588.51   23.19
   0  -4  24  632.15   26.26
   0   4  24  632.64   25.91
   0  -4  24  597.95   23.44
   0   4  24  620.61   22.53
   0  -4  25  198.78   11.46
   0   4  25  171.34   10.08
   0  -4  25  169.77   11.85
   0  -4  25  177.70   10.27
   0   4  25  189.35    9.77
   0  -4  26  474.83   20.15
   0   4  26  454.84   18.84
   0  -4  26  439.39   21.20
   0  -4  26  449.81   18.91
   0   4  26  444.43   17.83
   0  -4  27  236.02   12.80
   0   4  27  220.59   11.62
   0  -4  27  225.47   13.81
   0   4  27  227.59   10.99
   0  -4  27  223.41   11.80
   0  -4  28    0.65    2.35
   0   4  28    0.42    1.67
   0   4  28    1.39    1.55
   0   4  29   81.81    6.24
   0  -4  29   93.24    8.14
   0   4  29   84.47    5.92
   0  -4  30   45.63    5.68
   0  -4  31  134.89    9.37
   0   4 -32   33.25    3.79
   0  -5   0    0.61    0.97
   0  -5  -1    1.08    0.99
   0  -5   1   -0.20    0.98
   0  -5   2    0.81    0.96
   0   5  -3   22.82    2.68
   0  -5   3   17.83    2.19
   0   5  -3   17.97    1.81
   0   5   3   25.42    1.97
   0   5  -4    2.75    1.49
   0  -5   4    2.97    1.22
   0   5  -4    1.77    0.95
   0   5   4    3.11    0.97
   0   5  -5   28.79    3.23
   0  -5   5   28.05    2.93
   0   5   5   27.43    2.12
   0   5  -5   27.08    2.23
   0   5  -6    1.28    1.36
   0  -5   6    0.28    1.05
   0   5  -6    1.63    0.85
   0  -5   6    1.60    0.98
   0  -5   6    0.58    0.87
   0  -5   7   11.80    2.28
   0   5  -7    8.99    2.20
   0  -5   7    7.52    1.51
   0  -5   7    8.78    1.39
   0  -5   8   16.56    1.99
   0   5  -8   15.06    2.73
   0  -5   8   16.42    2.67
   0  -5   8   16.80    1.76
   0  -5   9   70.23    4.19
   0   5   9   72.18    3.77
   0   5   9   70.73    3.82
   0   5  -9   75.83    5.96
   0  -5   9   78.87    5.97
   0   5   9   66.40    4.20
   0  -5   9   73.30    4.24
   0   5   9   69.06    4.28
   0  -5   9   79.31    4.07
   0   5  10    4.63    1.17
   0   5  10    4.75    1.25
   0   5 -10    4.94    1.91
   0  -5  10    5.62    1.89
   0   5  10    5.30    1.45
   0   5  10    4.47    1.53
   0  -5  10    4.89    1.41
   0  -5  10    4.37    1.39
   0  -5  10    5.16    1.24
   0   5 -11   -0.49    1.59
   0   5  11    0.16    0.86
   0   5  11    0.70    1.01
   0   5  11   -0.98    1.45
   0  -5  11    1.29    1.17
   0  -5  11    3.89    1.71
   0  -5  11    0.90    0.99
   0   5  11    0.50    1.38
   0   5  12    2.31    1.26
   0   5 -12    4.87    2.11
   0   5  12    1.26    1.10
   0  -5  12    1.76    1.15
   0  -5  12    1.41    1.35
   0  -5  12    0.83    1.26
   0   5  12    1.12    1.39
   0   5 -13   11.89    3.02
   0   5  13    8.02    1.64
   0  -5 -13    6.03    2.43
   0   5  13    9.44    1.66
   0  -5  13   12.88    2.35
   0   5  13    9.17    2.05
   0  -5  13    8.76    1.70
   0   5  13    9.01    2.13
   0  -5  13    8.32    2.07
   0  -5  13    8.70    1.99
   0   5  14    3.87    1.30
   0   5  14    5.08    1.45
   0  -5  14    5.35    1.59
   0   5  14    5.48    1.98
   0  -5  14    7.53    1.89
   0  -5  14    7.20    2.09
   0   5  14    9.06    2.23
   0  -5  14    4.22    1.85
   0   5  15   -0.50    1.17
   0  -5  15   -0.61    1.56
   0  -5  15    0.51    1.26
   0  -5  15   -0.38    1.73
   0   5  15   -0.75    1.46
   0   5  15   -0.35    1.53
   0  -5  15    0.36    1.60
   0  -5  15    0.26    1.18
   0   5  16   58.04    4.35
   0  -5  16   60.73    4.84
   0  -5  16   64.57    4.61
   0   5  16   58.40    5.25
   0  -5  16   43.25    4.66
   0   5  16   49.68    4.81
   0  -5  16   57.24    5.13
   0  -5  16   56.00    4.35
   0   5  17   10.30    2.16
   0   5  17   15.03    3.07
   0  -5  17   15.38    3.08
   0  -5  17   14.68    2.84
   0  -5  17   17.35    2.55
   0   5  17   15.30    3.17
   0  -5  17   10.66    2.59
   0  -5  17   14.43    2.48
   0   5  18   15.86    2.68
   0  -5  18   25.89    3.61
   0  -5  18   18.79    2.89
   0   5  18   27.13    3.84
   0  -5  18   20.76    3.55
   0  -5  18   18.22    2.79
   0  -5  19   16.39    2.82
   0   5  19   14.95    2.73
   0  -5  19   17.85    3.14
   0   5  19   13.82    3.15
   0  -5  19   24.81    4.04
   0  -5  19   22.44    3.12
   0  -5  20    3.99    2.41
   0  -5  20    7.09    2.50
   0   5  20    6.50    2.23
   0  -5  20    6.36    2.54
   0   5  20    8.63    2.89
   0  -5  20    9.07    2.13
   0   5  21   51.01    4.76
   0  -5  21   45.14    5.17
   0  -5  21   54.73    5.08
   0  -5  21   42.71    5.51
   0   5  21   39.19    5.07
   0  -5  21   43.26    4.33
   0   5  22   66.38    5.58
   0  -5  22   57.80    6.01
   0  -5  22   57.24    5.48
   0  -5  22   59.13    6.43
   0  -5  22   62.46    5.12
   0   5  23   -0.34    1.44
   0   5  23   -0.41    1.65
   0  -5  23   -0.51    2.18
   0  -5  23    0.87    1.94
   0  -5  23    2.47    2.25
   0  -5  23   -0.36    1.35
   0  -5  24    5.08    2.90
   0  -5  24    4.94    2.44
   0  -5  24    2.11    2.52
   0   5  24    5.87    2.39
   0   5  24    5.90    1.95
   0  -5  25   12.95    3.74
   0   5  25   12.64    2.77
   0  -5  25   12.28    3.21
   0   5  25   12.54    2.56
   0  -5  25    9.08    3.27
   0  -5  26    8.47    3.13
   0   5  26   12.75    2.66
   0   5  26   14.57    3.05
   0   5  27   39.88    4.49
   0  -5  27   41.74    5.78
   0   5  27   45.54    4.31
   0  -5  28    2.48    2.42
   0   5  28    0.64    1.42
   0   5  28   -0.38    1.66
   0  -5  29   14.69    3.69
   0   5 -30    5.43    2.14
   0  -5  30    7.08    2.71
   0   5 -31    7.48    2.12
   0  -5  31    8.35    2.72
   0  -6   0 1838.22   54.92
   0   6   0 1839.58   53.47
   0  -6   1 1505.33   46.18
   0  -6  -1 1487.31   46.44
   0   6  -1 1560.66   45.01
   0   6   1 1539.91   44.87
   0  -6  -2 2056.29   64.29
   0  -6   2 2271.97   64.09
   0   6   2 2195.73   62.42
   0   6  -2 2133.70   62.59
   0  -6   3  323.99   12.74
   0   6  -3  325.02   11.73
   0   6   3  340.05   11.56
   0   6  -4  309.04   12.78
   0  -6   4  320.23   12.16
   0   6   4  295.73   10.61
   0   6  -4  291.69   10.76
   0   6   4  276.45   10.31
   0  -6   5  259.48   11.17
   0   6  -5  276.17   12.17
   0   6  -5  261.86    9.92
   0   6   5  258.59    9.53
   0   6  -6  937.25   31.75
   0  -6   6  921.79   30.67
   0   6  -6  939.04   28.85
   0  -6   7   69.26    5.23
   0   6  -7   70.51    5.72
   0   6  -7   68.89    4.12
   0  -6   8 2277.40   69.87
   0   6  -8 2316.11   70.87
   0   6  -8 2314.43   67.05
   0  -6   9  842.60   27.53
   0   6  -9  784.14   27.79
   0   6   9  775.79   22.94
   0   6   9  786.98   23.14
   0  -6   9  758.90   23.90
   0  -6   9  798.83   23.50
   0   6   9  731.70   23.59
   0  -6  10  179.83   10.07
   0   6 -10  192.68   10.67
   0   6  10  168.49    6.77
   0  -6  10  164.16    7.48
   0   6  10  169.70    6.90
   0  -6  10  163.87    7.07
   0   6  10  159.16    7.38
   0   6  11  401.17   13.29
   0  -6  11  383.85   14.14
   0   6  11  400.29   13.45
   0   6 -11  377.94   17.60
   0   6  11  377.24   14.22
   0  -6  11  370.12   13.49
   0  -6  11  334.42   13.42
   0   6  12   27.40    2.50
   0   6  12   27.05    2.58
   0  -6  12   22.49    2.65
   0   6 -12   34.32    4.72
   0  -6  12   23.78    2.71
   0   6  12   21.68    2.75
   0  -6  12   26.01    2.61
   0  -6  13  320.34   12.88
   0   6  13  333.29   12.06
   0   6 -13  315.04   16.54
   0   6  13  328.53   12.19
   0  -6 -13  292.95   16.22
   0  -6  13  340.75   13.48
   0  -6  13  298.84   12.70
   0  -6  13  328.31   12.40
   0   6  13  311.49   13.13
   0   6  14  199.15    8.59
   0  -6  14  185.40    9.08
   0   6  14  202.64    8.48
   0  -6  14  184.22    9.47
   0  -6  14  170.67    9.04
   0  -6  14  192.87    8.72
   0   6  15  519.73   18.82
   0  -6  15  548.10   19.92
   0   6  15  561.53   18.84
   0  -6  15  541.90   19.17
   0  -6  15  539.03   20.52
   0  -6  15  543.48   19.45
   0   6  16  244.20   10.52
   0  -6  16  237.68   11.24
   0  -6  16  244.94   10.73
   0  -6  16  238.38   11.93
   0  -6  16  242.04   10.87
   0  -6  17  125.88    7.68
   0   6  17  122.78    6.93
   0  -6  17  114.91    6.96
   0  -6  17  136.73    8.52
   0  -6  17  118.30    7.13
   0   6  18  314.77   12.76
   0  -6  18  289.16   13.40
   0  -6  18  275.40   12.59
   0  -6  18  285.25   14.14
   0  -6  18  292.90   12.84
   0  -6  19  275.29   13.12
   0   6  19  261.34   11.85
   0  -6  19  269.34   12.30
   0  -6  19  261.14   13.56
   0  -6  19  263.53   12.09
   0   6  20   79.53    5.90
   0  -6  20   90.33    6.95
   0  -6  20   83.30    6.25
   0  -6  20   84.36    7.24
   0  -6  20   85.87    6.18
   0  -6  21  539.01   21.40
   0   6  21  480.63   19.42
   0  -6  21  514.33   20.23
   0  -6  21  559.66   22.72
   0  -6  21  518.77   20.01
   0   6  22   94.05    6.53
   0  -6  22   81.32    7.06
   0  -6  22   87.12    6.69
   0  -6  22   88.15    7.69
   0  -6  22   82.75    6.24
   0   6  23   61.07    5.38
   0   6  23   54.97    4.70
   0  -6  23   46.21    5.97
   0  -6  24    1.86    2.42
   0   6  24   -0.39    1.76
   0   6  24    0.65    1.49
   0   6  25  306.24   13.90
   0  -6  25  334.19   16.87
   0   6  25  305.40   13.14
   0  -6  26    5.01    2.93
   0   6  26    7.91    2.09
   0   6  26    3.05    1.75
   0  -6  27  350.83   17.55
   0   6 -28  100.30    7.16
   0  -6  28   87.08    7.76
   0  -6  29   74.47    6.98
   0   6 -29   84.67    6.47
   0   6 -30   60.91    5.24
   0  -6  30   53.56    5.74
   0   6 -31   58.72    5.03
   0  -7   0    0.28    1.09
   0   7   0    1.50    1.25
   0  -7   1   -0.27    0.89
   0  -7  -1    0.30    1.08
   0   7  -1    0.19    1.15
   0   7   1   -0.37    1.01
   0   7  -1    0.19    1.20
   0  -7  -2    0.95    1.23
   0  -7   2    1.94    1.12
   0   7  -2    0.39    1.24
   0   7   2    0.90    1.10
   0  -7  -3    5.81    1.79
   0  -7   3    3.41    1.30
   0   7  -3    3.62    1.36
   0   7   3    2.98    1.21
   0  -7   4    3.25    1.29
   0  -7  -4    3.30    1.60
   0   7  -4    3.29    1.37
   0   7   4    2.24    1.06
   0   7  -5    1.96    1.58
   0  -7   5    1.89    1.23
   0   7   5    0.52    0.97
   0   7  -5    0.42    1.25
   0   7  -6   18.73    3.09
   0  -7   6   20.67    2.87
   0   7  -6   18.78    2.32
   0   7  -7   32.55    4.09
   0  -7   7   28.40    3.46
   0   7  -7   34.03    3.01
   0  -7   8    4.05    1.63
   0   7  -8    8.86    2.54
   0   7  -8    5.99    1.73
   0   7   9   36.85    2.74
   0  -7   9   45.83    4.79
   0   7  -9   40.98    4.87
   0   7   9   38.78    2.74
   0   7  -9   41.24    3.46
   0   7  10    1.14    0.90
   0  -7  10    0.49    1.34
   0   7 -10    1.69    1.97
   0   7  10    2.24    1.07
   0   7 -10   -0.25    1.31
   0   7 -11   23.45    4.03
   0   7  11   27.26    2.49
   0   7  11   25.28    2.38
   0   7 -11   26.20    2.94
   0   7 -12   10.90    2.94
   0   7  12    9.10    1.69
   0   7  12   13.08    1.86
   0   7 -12   10.46    2.08
   0   7  13    3.07    1.15
   0   7  13    1.75    1.09
   0  -7  13    3.45    1.56
   0  -7  13    3.97    0.87
   0   7  14    9.23    1.77
   0   7  14    9.48    1.77
   0  -7  14    8.64    2.25
   0  -7  14    7.57    1.81
   0   7  15   35.77    3.14
   0   7  15   36.69    3.33
   0  -7  15   25.93    3.29
   0  -7  15   26.30    3.12
   0  -7  15   30.67    3.75
   0   7  16    3.00    1.55
   0  -7  16    1.20    1.37
   0  -7  16    2.11    1.78
   0  -7  16    4.10    2.00
   0  -7  16    1.00    1.34
   0   7  17   -0.29    1.36
   0  -7  17   -1.29    1.47
   0  -7  17    1.33    1.55
   0  -7  17    1.06    1.58
   0   7  18   17.29    2.67
   0  -7  18   21.31    3.80
   0  -7  18   12.62    2.52
   0   7  19   31.25    3.58
   0  -7  19   36.29    4.67
   0  -7  19   34.66    4.01
   0   7  20    1.36    1.66
   0  -7  20    1.06    2.01
   0  -7  20   -1.19    1.44
   0   7  21   16.91    2.89
   0  -7  21   15.58    3.58
   0  -7  21   17.01    3.04
   0   7  22   55.78    4.87
   0   7  22   61.12    4.67
   0  -7  22   55.44    6.09
   0  -7  22   48.35    4.91
   0   7  23    0.36    1.42
   0   7  23   -0.30    1.24
   0  -7  23    2.37    2.16
   0   7 -23    4.25    2.16
   0  -7  23   -0.40    1.45
   0  -7  24   -1.20    2.41
   0   7 -24    0.48    2.08
   0   7  24    0.36    1.49
   0   7  24   -0.30    1.30
   0  -7  25   23.49    4.39
   0   7 -25   20.49    3.82
   0   7 -26    6.55    2.33
   0  -7  26    2.36    2.38
   0   7 -27   27.10    4.05
   0  -7  27   26.77    4.46
   0  -7  28   26.81    4.30
   0   7 -28   36.00    4.34
   0  -7  29    4.94    2.37
   0   7 -29   13.59    2.95
   0   7 -30    4.38    2.01
   0  -7  30    4.88    2.33
   0  -8   0  717.66   25.23
   0   8   0  753.53   24.08
   0  -8   1 2240.93   67.44
   0  -8  -1 2290.91   67.87
   0   8  -1 2199.29   66.18
   0   8  -1 2298.56   66.35
   0   8   1 2270.32   66.10
   0  -8   2  879.02   28.92
   0  -8  -2  852.08   29.50
   0   8  -2  873.61   27.87
   0   8   2  865.75   27.53
   0   8  -2  872.13   27.87
   0  -8  -3 2216.42   65.43
   0  -8   3 2115.88   64.06
   0   8  -3 2097.04   62.83
   0   8   3 2118.95   62.29
   0  -8  -4 1524.54   48.76
   0  -8   4 1558.40   47.61
   0   8  -4 1495.89   46.10
   0   8   4 1519.02   45.50
   0  -8  -5   59.06    5.39
   0  -8   5   53.38    4.59
   0   8   5   53.41    3.74
   0   8  -5   55.64    4.20
   0  -8   6  872.87   30.12
   0   8  -6  834.93   31.13
   0   8  -6  910.56   28.65
   0  -8   7  312.74   14.18
   0   8  -7  305.60   15.20
   0   8  -7  334.44   12.93
   0  -8   8 1222.58   40.68
   0   8  -8 1181.05   41.99
   0   8  -8 1239.02   38.38
   0   8  -9  776.36   29.65
   0  -8   9  761.09   28.19
   0   8   9  748.76   23.65
   0   8   9  732.71   23.48
   0   8  -9  816.55   25.76
   0   8 -10    3.12    1.92
   0   8  10    4.88    1.20
   0  -8  10    2.08    1.68
   0   8  10    3.20    1.09
   0   8 -10    2.91    1.79
   0   8  11  570.74   18.49
   0   8  11  544.53   18.55
   0   8 -11  587.05   25.04
   0   8 -11  574.73   20.37
   0   8  12  460.88   15.48
   0   8  12  437.75   15.52
   0   8 -12  430.12   17.07
   0  -8  12  462.82   17.00
   0   8  13    7.48    1.62
   0   8  13    8.01    1.55
   0   8 -13   11.16    2.36
   0  -8  13    6.79    1.93
   0  -8  13    8.56    1.32
   0   8  14  153.07    7.28
   0   8  14  155.06    7.49
   0   8 -14  169.81    8.90
   0  -8  14  165.47    8.88
   0  -8  14  166.67    6.42
   0   8  15  247.87   10.35
   0   8 -15  244.19   11.56
   0  -8  15  244.50   11.84
   0   8  16    4.00    1.45
   0  -8  16    4.14    1.98
   0   8 -16    5.65    1.95
   0   8  17    1.41    1.20
   0   8 -17   -0.39    1.96
   0  -8  17    2.66    1.88
   0  -8  17    0.38    1.67
   0   8  18    4.75    1.67
   0  -8  18    7.09    2.77
   0   8 -18    5.38    2.58
   0  -8  18    5.56    2.19
   0   8  19  294.58   12.78
   0  -8  19  308.16   15.13
   0   8 -19  326.28   14.73
   0  -8  19  324.88   14.38
   0   8  20   30.34    3.45
   0  -8  20   29.27    4.45
   0   8 -20   29.23    4.09
   0  -8  20   23.49    3.73
   0   8 -21  123.49    8.39
   0  -8  21  125.30    9.06
   0  -8  21  119.39    8.02
   0   8 -22  235.91   12.50
   0  -8  22  246.24   13.46
   0  -8  22  237.91   12.08
   0   8 -23   69.36    6.43
   0  -8  23   76.28    7.11
   0  -8  23   79.02    6.24
   0   8 -24    5.83    2.84
   0  -8  24    4.55    2.72
   0  -8  24    4.29    1.83
   0   8 -25  129.21    8.75
   0  -8  25  129.33    9.31
   0   8 -26   58.35    5.60
   0  -8  26   48.80    5.71
   0   8 -27   65.05    5.83
   0  -8  27   61.61    6.27
   0  -8  28   27.03    4.17
   0   8 -28   27.18    3.87
   0   8 -29  160.97    8.94
   0  -8  29  131.14    8.60
   0   8 -30   23.22    3.23
   0  -9   0   -0.35    0.98
   0   9   0   -1.02    1.41
   0   9   0    1.04    1.27
   0  -9   1    2.10    1.23
   0  -9  -1    3.30    1.43
   0   9  -1    4.47    1.62
   0   9  -1    3.15    1.66
   0   9   1    3.25    1.52
   0  -9  -2   10.11    2.20
   0  -9   2   13.56    2.37
   0   9  -2   10.44    2.09
   0   9   2   10.74    2.01
   0   9  -2   12.43    2.27
   0  -9  -3    8.36    2.17
   0  -9   3    7.06    1.80
   0   9   3   13.56    2.14
   0   9  -3    8.87    2.12
   0   9  -3    8.97    2.10
   0  -9   4    4.74    1.68
   0  -9  -4    7.69    2.17
   0   9   4    8.18    1.68
   0   9  -4    9.09    2.10
   0  -9  -5    3.42    1.85
   0  -9   5    8.03    2.05
   0   9   5   10.94    1.92
   0   9  -5    9.37    2.25
   0  -9  -6    1.57    1.53
   0   9  -6    2.71    1.58
   0   9  -7    2.16    1.73
   0   9  -8   31.29    4.63
   0   9  -8   42.63    4.01
   0   9  -9   20.55    3.86
   0   9  -9   32.06    3.64
   0   9 -10   12.04    3.08
   0   9 -10   13.15    2.52
   0   9 -11   32.05    3.68
   0   9 -12   37.72    3.98
   0  -9  12   36.75    3.63
   0  -9  13    5.28    1.77
   0   9 -13    8.55    2.33
   0  -9  13    7.29    1.33
   0  -9  14    2.51    1.52
   0   9 -14    4.62    1.95
   0  -9  14    3.33    1.02
   0   9 -15    2.40    1.70
   0  -9  15    2.31    1.80
   0   9 -16    5.40    2.18
   0  -9  16    4.13    1.85
   0   9 -17   -1.73    2.38
   0  -9  17    2.64    2.05
   0  -9  17   -0.82    1.61
   0   9 -18   27.75    4.05
   0  -9  18   26.45    3.92
   0  -9  18   19.63    3.31
   0  -9  19   33.50    4.56
   0   9 -19   41.09    4.81
   0  -9  19   40.47    4.61
   0   9 -20   13.81    3.26
   0  -9  20    9.57    2.75
   0  -9  20   12.81    3.00
   0  -9  21   20.18    3.71
   0   9 -21   24.83    3.98
   0  -9  21   16.74    3.14
   0   9 -22   10.36    2.86
   0  -9  22    7.87    2.86
   0  -9  22   11.69    2.75
   0  -9  23    1.06    2.12
   0   9 -23   -0.99    2.51
   0  -9  23   -0.83    1.52
   0   9 -24    4.91    2.34
   0  -9  24    3.12    2.27
   0   9 -25   25.88    3.88
   0  -9  25   11.09    3.06
   0   9 -26    0.46    1.85
   0   9 -27    9.96    2.78
   0   9 -28   33.99    4.10
   0   9 -29   16.65    2.90
   0  10   0  474.65   17.66
   0  10   0  478.52   17.78
   0  10  -1  419.78   16.80
   0  10   1  468.23   16.95
   0  10  -1  459.93   17.07
   0  10  -2  125.71    7.43
   0  10   2  139.21    7.41
   0  10  -3  312.13   12.92
   0  10   3  292.34   12.18
   0  10  -3  300.87   12.87
   0  10   4 1146.68   36.96
   0  10  -4 1170.64   37.88
   0  10  -4 1217.54   37.89
   0  10   5  121.02    6.53
   0  10  -5  105.65    6.84
   0  10  -6 2018.55   61.54
   0  10  -7   17.06    2.93
   0  10  -8  187.35    9.79
   0  10  -9 1142.91   37.72
   0  10 -10   30.17    3.80
   0  10 -11  510.49   20.00
   0  10 -12  820.47   29.67
   0 -10 -12  837.93   26.32
   0 -10  12  869.16   26.54
   0  10 -13   76.38    6.17
   0 -10  13   70.91    4.12
   0  10 -14  167.84    9.90
   0 -10  14  177.53    7.30
   0  10 -15   32.39    4.20
   0  10 -16    8.66    2.48
   0  10 -17   44.06    4.93
   0 -10  17   41.89    4.79
   0  10 -18  222.63   12.09
   0 -10  18  217.58   11.63
   0  10 -19  203.95   11.68
   0 -10  19  218.26   11.62
   0  10 -20  253.29   13.40
   0 -10  20  262.37   13.06
   0  10 -21  184.03   10.98
   0 -10  21  180.79   10.37
   0  10 -22   24.20    3.96
   0 -10  22   25.40    3.78
   0  10 -23   86.36    6.92
   0 -10  23   62.06    5.60
   0  10 -24   33.64    4.55
   0  10 -25   16.88    3.42
   0  10 -26    3.55    1.88
   0  10 -27   89.12    6.71
   0  10 -28  185.15    9.83
   0  11   0   -0.33    1.62
   0  11   0   -0.34    1.94
   0  11  -1    7.82    2.23
   0  11   1    3.55    1.90
   0  11  -1    6.52    2.35
   0  11   1   11.28    2.55
   0  11  -2   -0.35    1.76
   0  11   2    0.94    1.40
   0  11  -2   -1.74    1.83
   0  11   3    3.69    1.82
   0  11  -3    2.87    1.85
   0  11  -3    8.48    2.29
   0  11   4    1.22    1.48
   0  11  -4    0.72    1.57
   0  11  -4    1.11    1.65
   0  11   5    0.30    1.39
   0  11  -5   -0.37    1.79
   0  11  -5    1.90    1.65
   0  11  -6   12.47    2.75
   0  11  -6   10.08    2.54
   0  11  -7   14.00    2.89
   0  11  -8    7.81    2.51
   0  11  -9   27.89    3.87
   0  11 -10    8.24    2.54
   0  11 -11   26.22    3.96
   0 -11 -11   31.36    2.77
   0  11 -12   20.46    3.46
   0 -11 -12   15.22    2.00
   0 -11  12   15.72    2.07
   0  11 -13   12.55    3.18
   0 -11  13   10.42    1.74
   0 -11 -13   11.33    1.66
   0  11 -14   31.79    4.31
   0 -11  14   34.67    2.81
   0  11 -15    0.48    2.36
   0 -11  15    1.98    0.99
   0  11 -16    0.49    1.98
   0  11 -17    5.51    2.97
   0 -11  17    5.14    2.32
   0  11 -18   32.48    4.73
   0 -11  18   25.03    3.95
   0  11 -19   15.36    3.43
   0 -11  19    5.20    2.31
   0  11 -20   10.78    3.22
   0 -11  20   12.63    2.93
   0  11 -21    9.71    3.00
   0 -11  21   10.44    2.70
   0  11 -22   18.12    3.64
   0 -11  22   18.18    3.28
   0  11 -23    0.49    2.24
   0 -11  23    0.41    1.58
   0  11 -24    2.36    2.47
   0  11 -25    3.56    1.99
   0  11 -26    2.07    1.93
   0  11 -27   42.41    4.51
   0  12   0  408.33   17.07
   0  12   0  442.32   17.30
   0  12   1   32.90    3.82
   0  12  -1   32.53    3.86
   0  12   1   30.09    3.83
   0  12  -1   33.55    4.10
   0  12  -2  139.63    8.44
   0  12  -2  145.01    8.56
   0  12   2  143.59    8.12
   0  12  -3   86.30    6.46
   0  12  -3   82.27    6.41
   0  12   3   92.27    6.24
   0  12  -4  660.24   25.19
   0  12   4  725.13   24.72
   0  12  -4  692.26   25.32
   0  12  -5   13.00    2.79
   0  12  -5   12.99    2.88
   0  12  -6  752.54   27.08
   0  12  -6  744.70   27.36
   0  12  -7   21.23    3.63
   0  12  -7   23.17    3.51
   0  12  -8  253.37   12.76
   0  12  -8  244.20   12.42
   0  12  -9  262.42   13.07
   0  12  -9  278.09   13.59
   0  12 -10    3.78    2.35
   0 -12 -10    4.22    1.43
   0  12 -11  243.26   12.90
   0 -12  11  251.90   10.26
   0 -12 -11  252.10   10.20
   0  12 -12 1306.86   43.28
   0 -12  12 1260.68   38.85
   0 -12 -12 1265.10   38.75
   0  12 -13   10.49    3.27
   0 -12 -13   10.44    1.82
   0 -12  13    6.31    1.60
   0  12 -14  326.14   15.66
   0 -12  14  317.47   11.92
   0  12 -15    4.10    2.83
   0 -12  15    6.17    1.40
   0  12 -16   14.47    3.44
   0  12 -17   50.89    5.63
   0 -12  17   53.45    5.66
   0  12 -18   84.19    7.15
   0 -12  18   78.61    6.76
   0  12 -19   31.55    4.53
   0 -12  19   20.11    3.64
   0  12 -20  563.84   22.39
   0 -12  20  504.56   21.14
   0  12 -21  183.81   11.07
   0 -12  21  199.94   10.87
   0  12 -22   17.48    3.56
   0 -12  22   14.19    2.93
   0  12 -23   24.63    4.03
   0  12 -24   77.53    6.47
   0  12 -25   14.61    3.11
   0  12 -26   16.56    3.01
   0  13   0   -0.41    1.84
   0  13   0    1.20    1.91
   0  13  -1    5.40    2.43
   0  13   1    1.95    1.97
   0  13  -1    4.92    2.46
   0  13  -2    0.84    1.88
   0  13  -2   -0.42    2.17
   0  13   2   -0.76    1.89
   0  13   3    9.07    2.56
   0  13  -3    6.00    2.37
   0  13  -3    7.78    2.80
   0  13  -4   -1.31    1.94
   0  13  -4    1.33    2.20
   0  13  -5    5.74    2.62
   0  13  -5    4.99    2.54
   0  13  -6    2.24    1.95
   0  13  -6    1.39    2.17
   0  13  -7    0.45    1.87
   0  13  -7    3.32    2.49
   0  13  -8    0.46    1.95
   0  13  -8    0.97    2.27
   0  13  -9    0.47    1.93
   0  13  -9    0.50    2.26
   0 -13   9   -0.26    1.25
   0 -13  -9    0.52    1.25
   0  13 -10    1.89    2.11
   0  13 -10   -0.50    2.59
   0 -13 -10    2.01    1.32
   0 -13  10    0.26    1.23
   0  13 -11   19.38    3.78
   0  13 -11   14.78    3.31
   0 -13 -11   14.31    2.16
   0 -13  11   18.46    2.40
   0  13 -12    3.61    2.66
   0  13 -12    2.40    2.20
   0 -13  12    4.33    1.41
   0 -13 -12    3.72    1.42
   0  13 -13    8.21    3.09
   0  13 -13   10.91    3.25
   0 -13 -13    7.04    1.46
   0 -13  13    9.16    1.71
   0  13 -14   13.08    3.12
   0  13 -14   17.20    3.57
   0 -13  14   12.72    1.99
   0  13 -15   12.51    3.01
   0 -13  15    3.80    1.30
   0  13 -16    1.56    2.21
   0 -13  16   -1.97    2.03
   0  13 -17    0.52    2.25
   0 -13  17    3.44    2.09
   0  13 -18   10.20    2.82
   0 -13  18    4.83    2.31
   0  13 -19    4.00    2.62
   0 -13  19    0.47    2.14
   0  13 -20   60.39    5.84
   0 -13  20   43.84    4.97
   0  13 -21    0.41    1.80
   0  13 -21    0.94    2.14
   0 -13  21    1.69    1.59
   0  13 -22    5.01    2.13
   0  13 -22    4.47    2.00
   0 -13  22    3.10    1.93
   0  13 -23   -1.26    2.20
   0  13 -23    1.41    1.53
   0  13 -24    0.78    1.73
   0  14   0 1009.53   34.62
   0  14  -1   78.21    6.30
   0  14   1   62.27    5.57
   0  14  -1   77.54    6.30
   0  14  -2   13.77    2.89
   0  14  -2   12.98    3.01
   0  14   2   13.54    2.76
   0  14  -3  680.70   25.87
   0  14  -3  704.93   26.17
   0  14  -4  694.33   26.24
   0  14  -4  693.86   26.04
   0  14  -5   43.19    5.03
   0  14  -5   49.17    5.41
   0  14  -6  496.41   20.74
   0  14  -6  510.62   20.63
   0 -14  -6  505.70   18.23
   0 -14   6  483.21   18.12
   0  14  -7   84.51    6.89
   0  14  -7   80.21    6.97
   0 -14   7   81.77    5.41
   0 -14  -7   87.21    5.49
   0  14  -8    2.01    2.14
   0  14  -8    3.83    2.19
   0 -14  -8    3.05    1.77
   0 -14   8    4.51    1.67
   0  14  -9   32.77    4.40
   0  14  -9   38.20    4.90
   0 -14  -9   34.81    3.33
   0 -14   9   32.60    3.31
   0  14 -10  188.84   11.27
   0  14 -10  193.01   11.01
   0 -14 -10  200.79    9.01
   0 -14  10  188.41    8.90
   0  14 -11   40.41    5.05
   0  14 -11   38.27    4.74
   0 -14 -11   41.97    3.57
   0 -14  11   44.69    3.68
   0  14 -12  592.83   23.38
   0  14 -12  583.83   23.75
   0 -14  12  585.42   20.11
   0 -14 -12  587.21   20.03
   0  14 -13    8.83    3.09
   0  14 -13    5.30    2.79
   0 -14  13    9.54    1.87
   0  14 -14  145.67    9.34
   0  14 -14  156.19    9.96
   0 -14  14  140.08    6.82
   0  14 -15   33.92    4.63
   0  14 -15   50.12    5.64
   0  14 -16   87.72    7.22
   0  14 -16  112.41    8.15
   0 -14  16  112.47    8.10
   0  14 -17    4.44    1.98
   0  14 -17    1.35    2.01
   0 -14  17    0.48    1.92
   0  14 -18    0.87    2.15
   0  14 -18    0.96    1.93
   0 -14  18   -2.31    2.02
   0  14 -19    0.46    1.92
   0  14 -19    1.24    1.97
   0 -14  19    4.42    2.32
   0  14 -20  631.20   23.89
   0  14 -20  630.31   23.13
   0 -14  20  599.43   23.26
   0  14 -21    2.11    2.05
   0  14 -21    4.67    2.19
   0 -14  21    1.91    1.71
   0  14 -22   15.34    3.09
   0  14 -23    3.26    1.97
   0  15   0    0.44    2.04
   0 -15   0    3.08    1.67
   0  15   1   13.83    3.35
   0  15  -1   22.20    3.73
   0 -15  -1   20.22    2.90
   0 -15   1   15.41    2.66
   0  15  -2    0.45    1.92
   0 -15  -2    5.48    1.92
   0  15  -3    0.46    2.17
   0  15  -3   -0.93    2.31
   0 -15  -3    2.72    1.56
   0  15  -4    7.94    2.58
   0  15  -4    7.08    2.73
   0 -15   4    6.75    1.97
   0 -15  -4    6.91    1.99
   0  15  -5   11.08    3.24
   0  15  -5    9.40    2.95
   0 -15  -5   18.45    2.65
   0 -15   5   13.04    2.24
   0  15  -6   -0.49    2.14
   0  15  -6   -0.47    1.90
   0 -15  -6    0.29    1.46
   0 -15   6    0.60    1.49
   0  15  -7    6.96    2.71
   0  15  -7    6.66    2.55
   0 -15  -7    9.51    2.13
   0 -15   7    9.74    2.11
   0  15  -8    3.34    2.28
   0  15  -8    0.50    2.07
   0 -15   8    1.74    1.23
   0 -15  -8    3.10    1.58
   0  15  -9    1.91    2.13
   0  15  -9    5.04    2.78
   0 -15   9    1.68    1.52
   0 -15  -9    0.27    1.48
   0  15 -10    3.03    2.41
   0  15 -10    0.48    1.97
   0 -15  10    2.43    1.26
   0 -15 -10    1.31    1.23
   0  15 -11    1.51    2.35
   0  15 -11    2.36    2.21
   0 -15 -11    3.00    1.42
   0 -15  11    2.83    1.35
   0  15 -12    1.50    2.18
   0  15 -12   -0.47    1.93
   0 -15  12   -0.73    1.27
   0 -15 -12    0.24    1.10
   0  15 -13    0.99    1.93
   0  15 -13   -0.46    2.14
   0 -15  13    2.72    1.11
   0  15 -14   10.21    2.97
   0  15 -14   10.33    2.81
   0  15 -15   -0.44    1.80
   0  15 -15    0.48    2.07
   0 -15  15    0.96    1.97
   0  15 -16    2.31    2.21
   0  15 -16    2.10    1.97
   0 -15  16    0.93    1.76
   0  15 -17   11.27    2.73
   0  15 -17   10.73    2.94
   0 -15  17   12.98    2.97
   0  15 -18    2.14    1.67
   0  15 -18    0.38    1.81
   0 -15  18    1.70    1.90
   0  15 -19    9.57    2.33
   0  15 -19   11.82    2.85
   0 -15  19   11.58    2.68
   0  15 -20   33.74    4.10
   0 -15  20   36.41    4.09
   0  15 -21    4.99    2.00
   0  16   0  168.52    9.77
   0 -16   0  159.16    8.37
   0  16  -1   47.72    5.05
   0 -16  -1   46.98    4.21
   0 -16   1   42.74    4.06
   0  16  -2    6.71    2.51
   0 -16  -2    6.36    1.68
   0  16  -3    8.16    2.51
   0 -16  -3    9.93    2.34
   0  16  -4  630.52   24.39
   0 -16  -4  608.75   22.00
   0 -16   4  663.66   22.50
   0  16  -5    8.27    2.88
   0  16  -5    8.35    2.65
   0 -16  -5   11.15    2.17
   0 -16   5    8.47    2.01
   0  16  -6    2.35    2.05
   0  16  -6    3.66    2.32
   0 -16  -6    5.77    1.78
   0 -16   6    3.28    1.51
   0  16  -7    9.93    2.89
   0 -16  -7    6.48    1.86
   0 -16   7    7.28    1.90
   0  16  -8   10.42    2.86
   0  16  -8   13.54    3.12
   0 -16  -8    7.40    1.91
   0 -16   8   11.59    2.22
   0  16  -9    5.36    2.47
   0  16  -9    7.59    2.85
   0 -16   9    4.08    1.66
   0 -16  -9    5.55    1.77
   0  16 -10   88.16    7.06
   0  16 -10   83.33    6.67
   0 -16 -10   87.78    5.34
   0 -16  10   84.55    5.31
   0  16 -11   35.86    4.54
   0  16 -11   40.30    4.60
   0 -16 -11   37.93    3.40
   0 -16  11   35.02    3.33
   0  16 -12  169.82    9.91
   0  16 -12  164.08    9.47
   0 -16  12  151.92    7.34
   0  16 -13   97.49    7.06
   0  16 -13  101.58    7.47
   0  16 -14  165.69    9.37
   0  16 -14  172.60    9.86
   0 -16  14  150.80    9.55
   0  16 -15   45.96    4.66
   0  16 -15   50.41    5.14
   0 -16  15   42.32    4.81
   0  16 -16    3.62    2.08
   0  16 -16    2.88    1.72
   0 -16  16    3.81    2.19
   0  16 -17    3.69    1.79
   0  16 -17    2.30    1.91
   0 -16  17    2.00    1.61
   0  16 -18   14.47    2.84
   0 -16  18    8.22    2.38
   0 -17   0   -1.17    1.42
   0 -17   1    2.35    1.54
   0 -17  -1    5.23    1.63
   0  17  -2    2.54    2.15
   0 -17  -2    0.29    1.51
   0  17  -3   -1.27    1.80
   0 -17  -3    1.71    1.33
   0  17  -4    0.43    1.94
   0 -17  -4    4.22    1.67
   0 -17   4    0.58    1.47
   0  17  -5    2.13    1.95
   0 -17  -5    5.81    1.64
   0 -17   5    4.28    1.58
   0  17  -6    2.56    2.24
   0 -17   6    2.80    1.47
   0 -17  -6    3.52    1.42
   0  17  -7    1.27    1.76
   0 -17   7    2.45    1.59
   0 -17  -7    0.79    1.31
   0  17  -8    6.35    2.58
   0 -17  -8    7.63    1.81
   0 -17   8    7.34    1.83
   0  17  -9    0.80    1.83
   0  17  -9    2.93    1.91
   0 -17   9    1.50    1.36
   0 -17  -9    1.22    1.37
   0  17 -10   14.42    2.81
   0  17 -10   14.43    2.91
   0 -17  10   11.12    1.98
   0 -17 -10    8.32    1.85
   0  17 -11   -0.38    1.72
   0  17 -11   -2.42    2.33
   0 -17  11   -0.44    1.07
   0 -17 -11    0.22    1.13
   0  17 -12    0.36    1.46
   0  17 -12   -0.39    1.71
   0  17 -13   -0.35    1.51
   0  17 -13    2.28    1.81
   0 -17  13    0.84    1.84
   0  17 -14   12.06    2.60
   0  17 -14    9.20    2.16
   0 -17  14    6.91    2.25
   0  17 -15    2.09    1.83
   0 -17  15    2.32    1.84
   0  17 -16   -0.33    1.60
   0 -18   0    4.73    1.56
   0 -18   1    0.26    1.52
   0 -18  -1   -0.78    1.51
   0 -18  -2    1.81    1.26
   0 -18  -3  191.44    8.76
   0 -18  -4   96.74    5.61
   0 -18   4   86.99    5.50
   0  18  -5  214.44   10.70
   0 -18  -5  209.51    9.26
   0 -18   5  208.18    9.29
   0  18  -6   30.61    3.83
   0 -18  -6   28.45    2.91
   0 -18   6   28.06    2.94
   0  18  -7  340.93   14.31
   0 -18   7  325.74   12.63
   0 -18  -7  324.60   12.56
   0  18  -8    0.36    1.52
   0 -18   8    0.23    1.12
   0 -18  -8    0.67    1.07
   0  18  -9   11.53    2.67
   0 -18   9   12.78    2.01
   0 -18  -9    8.49    1.73
   0  18 -10  160.47    8.62
   0 -18  10  153.51    7.03
   0  18 -11   66.50    5.18
   0  18 -12  230.90   10.64
   0 -19   0   -1.34    1.23
   0 -19  -1    0.44    1.10
   0 -19   1    0.45    1.07
   0 -19  -2   -0.44    1.18
   0 -19   3    0.66    1.20
   0 -19  -3    1.30    1.14
   0 -19  -4    0.43    1.06
   0 -19   4    0.87    1.22
   0 -19  -5    4.58    1.48
   0 -19   5    0.85    1.04
   0 -19   6    1.03    0.99
   1   0  -1    0.86    0.52
   1   0  -2  456.65   14.24
   1   0  -3   13.79    1.52
   1   0  -4  436.45   14.53
   1   0  -5    7.47    1.53
   1   0  -6   63.67    4.28
   1   0  -7    2.27    1.41
   1   0  -8  319.08   13.07
   1   0  -9  116.21    7.30
  -1   0   9  131.98    5.58
   1   0   9  127.25    5.58
  -1   0   9  134.21    6.15
   1   0   9  121.59    6.42
  -1   0   9  134.67    6.23
   1   0 -10  132.17    7.96
  -1   0  10  131.67    5.82
   1   0  10  135.76    6.99
  -1   0  10  124.08    6.38
  -1   0  10  123.53    6.26
   1   0 -11    0.84    1.41
   1   0  11   -0.28    1.59
  -1   0  11    0.52    0.95
  -1   0  11    0.48    1.45
  -1   0  11   -0.23    1.20
  -1   0  11    0.16    0.85
   1   0 -12  389.70   17.10
  -1   0  12  386.46   13.61
  -1   0  12  386.21   14.72
   1   0  12  404.41   15.31
  -1   0  12  374.19   14.35
  -1   0  12  364.74   13.14
   1   0 -13    8.84    2.55
   1   0  13    9.68    2.41
  -1   0  13   11.05    1.94
  -1   0  13    9.71    2.29
  -1   0  13   14.51    2.37
  -1   0  13   11.28    1.71
   1   0 -14   27.59    4.25
  -1   0  14   28.98    2.90
   1   0  14   21.87    3.33
  -1   0  14   25.80    3.33
  -1   0  14   26.14    2.54
  -1   0  14   27.64    3.22
  -1   0  14   24.76    2.52
  -1   0  15   51.55    3.99
   1   0 -15   49.43    6.04
   1   0  15   53.17    5.11
  -1   0  15   49.24    3.63
  -1   0  15   43.82    4.54
  -1   0  15   45.81    4.39
  -1   0  15   52.88    3.74
  -1   0  16   99.96    6.10
  -1   0  16  110.79    5.81
   1   0  16   86.22    6.85
  -1   0  16   87.63    6.71
  -1   0  16  104.24    6.94
  -1   0  16  110.63    5.87
  -1   0  17   34.82    3.59
  -1   0  17   34.45    4.49
   1   0  17   33.30    4.43
  -1   0  17   32.11    3.11
  -1   0  17   31.00    3.98
  -1   0  17   26.59    2.92
  -1   0  18  157.86    8.48
  -1   0  18  149.50    9.69
  -1   0  18  165.47    8.03
  -1   0  18  166.42    9.70
  -1   0  18  150.09    7.70
  -1   0  19    2.08    2.69
  -1   0  19    1.18    1.65
  -1   0  19    1.07    1.63
  -1   0  19   -0.47    2.26
  -1   0  19    2.30    1.31
  -1   0  20   36.07    4.22
   1   0  20   37.03    4.29
  -1   0  20   45.08    4.17
  -1   0  20   45.42    5.38
  -1   0  20   40.08    5.17
  -1   0  20   37.39    3.70
  -1   0  21    0.41    1.74
   1   0  21   -0.42    1.96
  -1   0  21    1.36    1.48
  -1   0  21    1.20    2.54
  -1   0  21    1.10    2.28
  -1   0  21    1.54    1.34
   1   0  22  153.52    9.35
  -1   0  22  151.19    9.25
  -1   0  22  162.94    8.79
   1   0  22  156.89    8.72
  -1   0  22  147.51   10.83
  -1   0  22  141.66   10.22
  -1   0  22  146.26    7.95
  -1   0  23   26.66    4.76
  -1   0  23   33.77    3.92
   1   0  23   35.77    4.16
  -1   0  23   38.21    5.76
  -1   0  23   26.92    3.95
   1   0  23   34.32    4.53
  -1   0  24   -0.65    2.75
  -1   0  24    2.09    2.88
   1   0  24    1.62    1.85
   1   0  24   -0.49    2.38
  -1   0  24   -0.47    2.22
  -1   0  24    1.19    1.85
   1   0  25   75.19    6.73
  -1   0  25   75.17    6.56
  -1   0  25   71.78    7.57
  -1   0  25   79.76    6.25
   1   0  25   78.00    6.24
  -1   0  26  827.09   29.76
   1   0  26  754.26   29.46
  -1   0  26  825.62   32.31
   1   0  26  782.02   28.45
  -1   0  26  797.81   28.40
  -1   0  27   -2.06    2.91
  -1   0  27    1.68    1.91
   1   0  27   -0.85    1.95
   1   0  27   -0.51    2.12
  -1   0  27    0.50    1.99
   1   0  28   -0.84    1.88
   1   0  28   -1.52    2.15
  -1   0  28   -0.41    1.89
  -1   0  28   -0.49    2.07
  -1   0  29    5.15    2.42
   1   0  29    2.86    2.15
  -1   0  29    2.79    1.90
   1   0  29    3.42    2.33
   1   0  30   35.65    4.61
   1   0  30   33.49    4.16
   1   0  31   43.73    5.43
   1   0  31   41.52    4.31
   1   0  31   34.36    4.36
   1   0  32   42.71    4.65
   1   0  32   41.95    4.20
   1  -1  31  159.58    9.54
   1  -1  31  156.04    8.89
   1  -1  30    6.58    2.68
   1  -1  30   12.71    2.91
  -1   1  29    4.23    1.91
   1  -1  29    3.96    2.46
  -1   1  29    3.61    2.16
   1  -1  29    3.75    2.07
  -1   1  28    8.01    2.69
   1  -1  28   11.77    3.20
  -1   1  28    9.19    2.62
   1  -1  28    9.40    2.68
   1  -1  27    8.90    3.55
  -1   1  27   15.40    3.37
  -1   1  27   12.98    2.87
   1  -1  27   15.17    3.07
   1  -1  27   17.69    3.71
  -1   1  26  122.41    8.48
   1  -1  26  122.29    8.70
   1  -1  26  115.86    9.63
   1  -1  26  110.15    7.78
  -1   1  26  116.28    7.63
  -1   1  25  580.43   22.54
   1  -1  25  522.91   24.03
  -1   1  25  551.31   21.19
  -1   1  24  124.67    8.36
   1  -1  24  112.06    9.26
  -1   1  24  113.31    7.38
  -1   1  23  130.26    8.49
  -1   1  23  129.91    7.84
   1  -1  23  122.62    9.57
  -1   1  22    0.42    2.03
  -1   1  22    4.22    2.22
   1  -1  22    3.43    2.49
  -1   1  21   14.90    2.59
  -1   1  21   14.81    2.87
   1  -1  21   15.04    3.33
  -1   1  20   34.11    4.01
  -1   1  20   41.53    3.91
   1  -1  20   43.97    5.12
  -1   1  20   37.34    3.57
  -1   1  19    5.23    1.95
  -1   1  19    1.73    1.26
   1  -1  19    3.23    2.20
  -1   1  19   -0.28    1.08
  -1   1  18   34.23    3.69
  -1   1  18   32.59    3.27
   1  -1  18   26.74    4.08
  -1   1  18   29.37    3.11
  -1   1  17  688.67   23.54
   1  -1  17  683.03   25.88
  -1   1  17  672.82   22.69
   1  -1  17  663.61   24.73
  -1   1  17  684.45   22.79
   1  -1  16    6.51    2.71
   1  -1  16    6.79    1.96
  -1   1  16    7.89    1.92
   1  -1  16    8.16    2.25
  -1   1  16    5.34    1.53
   1  -1  15  951.32   30.52
  -1   1  15  922.47   30.08
   1  -1  15  979.98   32.77
   1  -1  15  883.13   30.98
  -1   1  15  925.17   29.56
   1  -1  15  980.94   28.77
   1   1 -14   38.87    5.15
  -1   1  14   42.54    3.42
  -1  -1 -14   40.85    5.18
   1  -1  14   36.53    3.44
   1  -1  14   39.60    4.35
   1  -1  14   39.93    3.83
  -1   1  14   38.95    3.11
   1  -1  14   41.38    2.75
  -1  -1 -13  254.72   13.82
   1   1 -13  261.50   14.14
  -1   1  13  274.67   10.76
   1  -1  13  284.52   11.09
   1  -1  13  296.19   12.64
   1  -1  13  285.74   11.50
  -1   1  13  279.41   10.50
   1  -1  12   57.65    4.80
   1  -1  12   61.37    4.02
   1   1 -12   59.08    5.71
  -1  -1 -12   50.55    5.29
  -1   1  12   60.26    3.83
  -1   1  12   60.67    3.64
   1  -1  11  207.19    9.68
   1   1 -11  210.24   11.16
   1  -1  11  213.16    8.52
  -1   1  11  201.07    8.15
  -1   1  11  211.69    8.12
   1  -1  10  828.88   25.26
  -1   1  10  819.90   24.98
   1   1 -10  839.39   28.72
   1  -1  10  763.77   26.52
   1  -1   9 3040.12   88.17
   1  -1   9 3104.67   88.00
   1   1  -9 3081.40   91.60
   1  -1   9 3219.75   89.73
   1   1  -8  279.37   12.05
   1   1  -7 1676.51   50.86
   1   1  -6  330.83   12.71
   1   1  -5  601.69   19.93
   1   1  -4  577.98   18.88
  -1   1   3  375.42   12.35
   1   1  -3  402.54   13.16
   1   1  -2  378.66   12.15
  -1   1   2  349.37   11.09
   1   1  -1 4888.60  136.97
  -1  -1   0   15.28    1.54
   1  -1  -2  366.21   11.38
  -1  -1   2  365.77   12.13
   1  -1  -3  392.25   12.52
  -1  -1   3  386.20   13.05
  -1  -1   4  598.99   18.97
   1  -1  -4  572.05   18.47
   1  -1  -5  616.15   19.83
  -1  -1   5  609.77   20.14
   1  -1  -6  322.57   12.06
  -1  -1   6  318.82   12.28
  -1   1  -6  313.73   11.93
   1  -1  -7 1683.53   51.12
  -1  -1   7 1728.70   51.48
  -1   1  -7 1683.19   51.05
  -1  -1   8  291.43   12.22
  -1   1  -8  290.99   12.09
   1  -1  -8  271.11   11.81
  -1   1  -9 3135.60   90.33
  -1  -1   9 3149.84   90.69
   1  -1  -9 3123.81   90.45
  -1  -1   9 2974.13   87.14
  -1  -1   9 3171.03   86.78
  -1  -1   9 2944.99   87.84
   1   1   9 3032.31   87.34
  -1  -1   9 3066.45   87.76
   1   1  10  787.12   24.96
  -1   1 -10  799.51   28.09
   1   1  10  775.37   24.80
  -1  -1  10  852.02   25.31
   1  -1 -10  870.66   28.63
  -1  -1  10  818.43   24.70
  -1  -1  10  804.35   25.99
   1   1  10  811.59   25.42
  -1  -1  10  800.56   25.76
  -1  -1  10  813.72   24.88
  -1   1 -11  190.20   10.52
   1  -1 -11  219.53   11.14
  -1  -1  11  203.76    8.33
   1   1  11  196.70    8.21
   1   1  11  190.04    7.99
  -1  -1  11  198.56    9.01
  -1  -1  11  204.07    7.94
   1   1  11  199.13    8.54
  -1  -1  11  229.40    9.17
  -1  -1  11  209.52    8.08
  -1   1 -12   56.26    5.46
   1   1  12   58.15    3.85
   1  -1 -12   63.05    5.89
   1   1  12   58.48    3.80
  -1  -1  12   59.54    3.97
  -1  -1  12   60.27    4.52
  -1  -1  12   61.11    3.65
  -1  -1  12   60.05    4.37
   1   1  12   59.13    4.19
  -1  -1  12   54.99    3.58
   1  -1 -13  277.33   14.15
   1   1  13  303.90   11.18
   1   1  13  281.17   10.75
  -1   1 -13  274.44   13.97
  -1  -1  13  274.61   10.94
  -1  -1  13  275.51   10.47
  -1  -1  13  266.38   11.97
  -1  -1  13  270.07   11.60
   1   1  13  290.83   11.57
  -1  -1  13  259.21   10.46
   1   1  14   44.98    3.59
  -1  -1  14   38.76    3.47
   1   1  14   51.18    3.82
   1  -1 -14   38.85    5.07
  -1   1 -14   40.93    5.04
  -1  -1  14   51.26    3.59
  -1  -1  14   45.64    4.38
  -1  -1  14   45.04    4.13
   1   1  14   48.38    4.12
  -1  -1  14   48.25    3.51
   1  -1 -15  903.81   35.48
   1   1  15  955.48   30.70
  -1   1 -15  971.30   35.70
  -1  -1  15  981.25   30.84
  -1  -1  15  954.81   32.30
  -1  -1  15  931.31   30.00
  -1  -1  15  939.50   31.71
   1   1  15  953.37   31.53
  -1  -1  15  970.61   30.13
   1   1  16    8.21    2.06
  -1  -1  16    5.70    2.39
  -1  -1  16   11.05    2.13
  -1  -1  16   10.58    1.93
  -1  -1  16   10.75    2.69
   1   1  16   11.23    2.47
  -1  -1  16    4.43    1.48
  -1  -1  17  702.40   24.08
   1   1  17  669.82   23.73
  -1  -1  17  730.21   26.11
  -1  -1  17  688.88   23.16
   1   1  17  647.61   24.61
  -1  -1  17  658.40   25.03
  -1  -1  17  707.11   23.24
   1   1  18   34.46    3.89
  -1  -1  18   40.33    4.08
  -1  -1  18   33.46    4.58
  -1  -1  18   37.89    3.61
   1   1  18   30.29    3.91
  -1  -1  18   32.58    4.20
  -1  -1  18   31.38    3.27
   1   1  19    0.36    1.57
  -1  -1  19   -1.10    1.43
  -1  -1  19    2.74    1.73
  -1  -1  19    1.57    2.39
  -1  -1  19   -0.48    2.02
   1   1  19    0.46    2.04
  -1  -1  19    0.90    1.23
   1   1  20   43.08    4.57
  -1  -1  20   50.57    4.86
  -1  -1  20   46.19    5.56
  -1  -1  20   41.65    4.14
   1   1  20   39.01    4.84
  -1  -1  20   40.76    5.19
  -1  -1  20   41.67    3.93
  -1  -1  21   15.04    3.78
  -1  -1  21   18.89    3.12
   1   1  21   16.58    3.13
  -1  -1  21   14.74    3.18
   1   1  21   10.63    3.39
  -1  -1  21   17.70    3.87
  -1  -1  21   20.13    2.83
  -1  -1  22    1.86    1.98
   1   1  22    3.08    2.18
  -1  -1  22    0.64    2.48
  -1  -1  22    3.56    2.30
  -1  -1  22    1.77    2.51
   1   1  22    2.27    2.54
  -1  -1  22    1.32    1.21
   1   1  23  115.62    8.20
  -1  -1  23  137.45    8.92
  -1  -1  23  129.94    9.79
   1   1  23  141.82   10.07
  -1  -1  23  138.10    8.25
   1   1  23  116.67    7.68
  -1  -1  23  134.31   10.21
  -1  -1  24  115.23    8.27
   1   1  24  114.81    8.35
   1   1  24  102.84    8.98
  -1  -1  24  121.21    9.66
  -1  -1  24  110.12    9.65
   1   1  24  130.43    7.97
  -1  -1  24  114.90    7.70
   1   1  25  557.83   22.25
  -1  -1  25  539.06   22.10
   1   1  25  530.49   23.80
  -1  -1  25  532.88   24.03
   1   1  25  535.87   20.90
  -1  -1  25  520.22   20.93
  -1  -1  26  117.87    8.54
   1   1  26  126.13    8.74
   1   1  26  122.93    9.78
  -1  -1  26  112.40    9.63
  -1  -1  26  129.74    8.32
   1   1  26  118.88    7.93
   1   1  27   15.60    4.30
  -1  -1  27   16.48    4.30
  -1  -1  27   12.51    3.16
   1   1  27    7.57    2.85
  -1  -1  27   12.19    3.34
   1   1  27   20.89    3.61
  -1  -1  28    9.46    3.44
   1   1  28   10.70    3.52
  -1  -1  28   11.46    2.97
   1   1  28   16.48    3.28
  -1  -1  28    9.76    2.76
   1   1  28   11.90    3.14
   1   1  29    2.59    2.75
   1   1  29    3.34    2.28
   1   1  29    1.59    1.86
   1   1  30    6.73    2.99
   1   1  30    8.70    2.37
   1   1  30    6.76    2.64
   1   1  31  164.23    9.46
   1   1  31  159.22    8.78
   1   1  32   15.62    2.62
   1   1  32   20.63    3.24
   1  -2  32    5.65    2.56
   1  -2  31   14.82    3.72
   1  -2  31   21.50    3.29
   1  -2  31   20.48    3.61
   1  -2  30   32.01    5.06
   1  -2  29   18.19    4.26
  -1   2  29   14.24    2.67
  -1   2  29   12.45    3.01
   1  -2  28   25.56    4.82
  -1   2  28   26.66    3.60
  -1   2  28   21.62    3.73
   1  -2  27   19.03    4.43
  -1   2  27   21.39    3.27
  -1   2  27   25.89    3.84
  -1   2  26  345.68   15.92
   1  -2  26  362.74   18.52
  -1   2  26  350.16   15.16
  -1   2  25  102.12    7.64
   1  -2  25  116.96    9.46
  -1   2  25  103.83    9.18
  -1   2  25  115.85    7.45
   1  -2  24   19.76    4.35
  -1   2  24   25.69    4.81
  -1   2  24   24.38    3.53
  -1   2  24   26.20    3.89
   1  -2  23   85.21    7.03
  -1   2  23   90.61    6.96
   1  -2  23   82.23    7.67
  -1   2  23   71.43    7.32
  -1   2  23   80.40    7.92
  -1   2  23  101.72    6.55
   1  -2  23   74.49    6.14
  -1   2  22  107.13    7.32
   1  -2  22  101.31    7.59
   1  -2  22   80.83    7.67
  -1   2  22   90.13    8.01
  -1   2  22  104.50    8.85
  -1   2  22  106.47    6.70
   1  -2  22  105.66    7.04
   1  -2  21   34.71    4.44
   1  -2  21   27.10    4.49
  -1   2  21   32.11    3.58
  -1   2  21   23.93    3.55
   1  -2  21   27.64    3.87
  -1   2  21   32.88    4.94
   1  -2  20   38.40    4.44
  -1   2  20   36.39    4.03
   1  -2  20   32.83    4.74
  -1   2  20   33.17    3.57
  -1   2  20   43.74    5.41
   1  -2  20   34.83    3.90
   1  -2  19    1.40    2.14
   1  -2  19    1.59    1.61
   1  -2  19    2.31    1.80
  -1   2  19    1.98    1.48
  -1   2  19    1.37    1.29
  -1   2  19    3.65    2.33
  -1   2  18  310.76   13.16
   1  -2  18  324.62   13.84
  -1   2  18  314.51   15.11
  -1   2  18  303.48   12.40
   1  -2  18  320.49   14.56
  -1   2  17   57.36    4.54
   1  -2  17   67.33    5.23
  -1   2  17   73.89    6.16
   1  -2  17   56.87    5.22
   1  -2  17   62.58    4.00
  -1   2  16   10.94    2.11
   1  -2  16    8.81    2.30
  -1   2  16    5.71    2.19
   1  -2  16    8.76    2.71
   1  -2  16    7.17    2.16
  -1   2  16   10.96    2.64
   1  -2  16    7.23    1.43
  -1   2  16    9.15    1.74
  -1   2  15  207.29    9.04
   1  -2  15  207.69    9.46
  -1   2  15  203.00   10.30
   1  -2  15  204.58   10.72
  -1   2  15  180.52    9.74
   1  -2  15  188.45    9.67
  -1   2  15  220.85    8.80
   1  -2  15  190.78    7.99
   1  -2  14  450.43   16.10
  -1  -2 -14  427.09   19.85
  -1   2  14  438.57   15.56
  -1   2  14  435.78   17.10
   1  -2  14  450.88   17.75
   1  -2  14  451.34   16.58
  -1   2  14  394.12   16.44
  -1   2  14  419.12   15.10
   1  -2  14  453.55   14.74
  -1   2  13  373.53   13.60
   1  -2  13  391.78   14.20
   1  -2  13  410.69   15.80
  -1   2  13  395.00   15.21
  -1   2  13  374.02   14.78
   1  -2  13  386.10   12.92
  -1   2  13  381.27   13.50
  -1   2  12  163.09    6.82
   1  -2  12  146.14    6.92
  -1   2  12  141.79    7.50
  -1   2  12  142.45    7.49
   1  -2  12  142.64    6.01
  -1   2  12  146.21    6.46
  -1   2  11   12.01    1.68
   1  -2  11   11.42    1.76
  -1   2  11   14.12    2.26
   1  -2  11   11.98    2.39
  -1   2  11   10.53    2.03
  -1   2  11   11.28    1.64
  -1   2  10   82.67    4.15
   1  -2  10   88.43    4.54
   1  -2  10   79.16    5.12
  -1   2  10   80.55    4.86
  -1   2  10   84.26    4.93
  -1   2  10   77.86    4.10
   1  -2   9  641.49   19.88
  -1   2   9  620.70   20.54
   1  -2   9  647.14   21.08
  -1   2   9  604.75   20.41
  -1   2   8   76.36    4.33
  -1  -2   0    1.87    1.01
   1  -2  -1  546.04   15.69
  -1  -2   1  545.09   17.59
  -1  -2   2 1732.96   49.03
   1  -2  -2 1636.79   47.51
  -1   2  -2 1683.56   47.29
  -1  -2   3   64.50    3.89
   1  -2  -3   63.08    3.18
  -1   2  -3   61.72    3.03
  -1   2  -4  115.20    5.08
  -1  -2   4  122.43    5.95
   1  -2  -4  115.97    5.25
   1  -2  -5 2869.24   83.32
  -1   2  -5 2944.99   83.13
  -1  -2   5 2900.37   84.00
  -1   2  -6  791.65   24.52
  -1  -2   6  754.82   25.13
   1  -2  -6  745.00   24.56
   1  -2  -7   99.87    5.84
  -1  -2   7   91.21    5.79
  -1   2  -7  101.88    5.70
  -1  -2   8   73.43    3.62
  -1   2  -8   76.77    5.11
   1  -2  -8   74.33    5.18
  -1  -2   8   61.62    4.98
  -1  -2   8   73.68    3.90
   1  -2  -9  648.35   23.10
   1   2   9  613.72   20.12
   1   2   9  632.57   20.02
  -1  -2   9  691.42   23.61
  -1   2  -9  730.20   23.35
   1   2   9  641.43   21.27
  -1  -2   9  659.45   21.08
  -1  -2   9  655.55   20.84
   1   2   9  610.96   20.38
  -1  -2   9  633.72   20.12
  -1  -2  10   97.76    6.78
   1   2  10   85.47    4.51
  -1   2 -10   81.37    6.01
   1   2  10   87.57    4.45
   1  -2 -10   79.72    6.05
   1   2  10   93.63    5.46
  -1  -2  10   92.97    5.32
  -1  -2  10   92.02    5.10
   1   2  10   85.56    4.77
  -1  -2  10   88.04    4.50
   1   2  11   17.07    2.01
   1   2  11   13.74    1.89
   1  -2 -11   10.14    2.63
  -1   2 -11   11.05    2.46
   1   2  11   18.48    2.56
  -1  -2  11   19.77    2.57
  -1  -2  11   13.79    2.24
   1   2  11   10.08    1.77
  -1  -2  11   15.23    1.87
   1  -2 -12  167.28    9.83
   1   2  12  161.02    7.03
   1   2  12  149.39    6.75
  -1   2 -12  145.85    9.21
   1   2  12  151.93    8.03
  -1  -2  12  154.01    7.93
   1   2  12  153.99    7.38
  -1  -2  12  147.73    7.50
  -1  -2  12  143.14    6.70
   1  -2 -13  383.51   17.67
  -1   2 -13  405.21   17.83
   1   2  13  391.51   14.01
   1   2  13  387.31   13.80
   1   2  13  370.75   15.35
  -1  -2  13  388.29   15.33
  -1  -2  13  383.39   14.85
   1   2  13  389.25   14.62
  -1  -2  13  370.61   13.66
   1   2  14  454.50   15.99
   1   2  14  429.69   15.56
  -1   2 -14  389.52   19.03
   1  -2 -14  435.91   19.94
  -1  -2  14  441.08   17.40
   1   2  14  455.62   17.59
  -1  -2  14  437.76   16.87
   1   2  14  444.08   16.62
  -1  -2  14  449.24   15.68
   1   2  15  204.69    9.06
   1  -2 -15  213.46   12.97
  -1   2 -15  215.95   12.79
   1   2  15  199.71    9.17
   1   2  15  204.61   10.63
  -1  -2  15  197.17   10.40
  -1  -2  15  204.48   10.19
   1   2  15  197.45    9.80
  -1  -2  15  219.91    9.19
   1   2  16    6.21    1.81
   1   2  16    5.89    2.40
  -1  -2  16    7.03    2.71
  -1  -2  16    7.89    2.46
   1   2  16    6.00    1.98
  -1  -2  16    8.51    1.86
   1   2  17   73.38    5.15
  -1  -2  17   69.11    6.14
   1   2  17   62.21    5.34
  -1  -2  17   65.96    5.79
  -1  -2  17   65.39    4.68
   1   2  18  335.30   13.80
  -1  -2  18  321.86   15.40
   1   2  18  314.13   14.52
  -1  -2  18  299.12   14.67
  -1  -2  18  333.59   13.23
  -1  -2  19    5.81    2.30
  -1  -2  19    0.32    1.54
  -1  -2  19    2.29    1.82
   1   2  19    0.36    1.67
  -1  -2  19    0.96    2.15
   1   2  19    1.37    1.89
  -1  -2  19    2.18    1.42
   1   2  20   34.95    4.00
  -1  -2  20   37.12    4.34
  -1  -2  20   34.70    4.93
  -1  -2  20   37.40    3.93
  -1  -2  20   35.87    4.91
   1   2  20   37.16    4.83
  -1  -2  20   36.44    3.74
  -1  -2  21   28.97    3.59
   1   2  21   28.29    3.84
  -1  -2  21   31.24    4.08
  -1  -2  21   26.64    4.44
  -1  -2  21   26.25    4.48
   1   2  21   22.41    4.16
  -1  -2  21   24.87    3.23
  -1  -2  22   93.93    7.21
   1   2  22   94.63    7.01
  -1  -2  22   86.57    6.48
  -1  -2  22   90.37    8.40
  -1  -2  22   79.53    7.66
   1   2  22  106.93    8.34
  -1  -2  22  101.33    6.54
  -1  -2  23   82.14    6.95
   1   2  23   92.52    7.09
  -1  -2  23   82.62    8.08
  -1  -2  23   81.52    6.38
   1   2  23   74.80    7.47
  -1  -2  23   86.50    7.99
  -1  -2  23   87.13    6.03
  -1  -2  24   29.45    5.18
   1   2  24   21.49    4.31
   1   2  24   22.31    3.78
  -1  -2  24   20.88    4.54
  -1  -2  24   24.77    3.69
  -1  -2  24   25.43    4.14
   1   2  24   23.52    3.48
  -1  -2  25  126.02    8.83
   1   2  25  127.20    8.69
   1   2  25  125.39    9.88
  -1  -2  25  119.98    9.72
  -1  -2  25  125.21    8.19
   1   2  25  123.00    7.93
   1   2  26  375.06   16.93
  -1  -2  26  340.28   16.79
   1   2  26  389.36   18.98
  -1  -2  26  349.66   18.53
  -1  -2  26  364.42   16.25
   1   2  26  389.85   16.20
   1   2  27   20.62    4.29
  -1  -2  27   19.82    4.46
  -1  -2  27   18.05    3.51
  -1  -2  27   23.26    4.23
   1   2  27   26.56    4.08
   1   2  27   26.04    3.75
  -1  -2  28   31.51    5.41
   1   2  28   27.49    4.88
   1   2  28   30.34    4.40
   1   2  28   30.35    3.96
   1   2  29   18.26    4.09
  -1  -2  29   16.75    4.14
   1   2  29   14.31    3.39
   1   2  29   14.60    2.86
   1   2  30   29.01    4.11
   1   2  30   33.00    3.96
   1   2  31   20.10    3.01
   1   2  31   15.90    3.09
   1   2  32    2.13    1.70
   1   2  32    5.12    1.74
   1  -3  32    1.49    2.22
   1  -3  31    1.11    2.23
   1  -3  30  110.71    8.95
   1  -3  29   13.39    3.69
  -1   3  29   10.21    2.41
  -1   3  29    8.00    2.42
   1  -3  29   11.75    2.88
   1  -3  29   14.83    3.21
   1  -3  28   25.84    4.69
  -1   3  28   19.93    3.53
   1  -3  28   18.01    3.83
   1  -3  28   22.18    3.72
  -1   3  28   23.66    3.29
  -1   3  27  101.29    7.35
   1  -3  27  104.57    8.04
   1  -3  27   90.00    8.57
   1  -3  27  110.53    7.58
  -1   3  27   92.42    6.55
  -1   3  26   70.80    6.21
   1  -3  26   71.34    6.79
   1  -3  26   68.36    7.26
  -1   3  26   70.33    5.64
   1  -3  26   69.50    6.10
  -1   3  25  681.96   25.30
   1  -3  25  655.21   26.25
   1  -3  25  650.70   27.86
  -1   3  25  696.98   24.42
   1  -3  25  655.76   25.09
  -1   3  24   34.11    4.30
  -1   3  24   22.90    4.52
   1  -3  24   31.91    5.10
  -1   3  24   22.86    3.20
   1  -3  24   25.15    3.80
   1  -3  24   22.04    4.06
  -1   3  23  737.19   26.92
   1  -3  23  764.28   28.10
  -1   3  23  756.06   26.01
  -1   3  23  743.72   30.14
   1  -3  23  752.47   26.88
  -1   3  23  669.74   28.73
   1  -3  23  727.82   29.29
  -1   3  22   13.87    3.85
   1  -3  22   12.34    3.19
  -1   3  22   12.08    2.56
  -1   3  22   14.20    2.98
   1  -3  22   12.97    2.91
  -1   3  22    9.36    3.19
   1  -3  22   22.72    4.15
   1  -3  21    1.86    1.85
  -1   3  21    3.58    2.78
  -1   3  21    1.27    1.49
  -1   3  21    0.38    1.67
   1  -3  21    0.90    2.19
   1  -3  21    1.64    2.27
  -1   3  21    2.77    2.22
  -1   3  20   22.05    3.19
   1  -3  20   16.45    2.99
  -1   3  20   14.01    3.61
   1  -3  20   26.24    3.79
  -1   3  20   14.95    2.44
   1  -3  20   16.38    3.60
  -1   3  20   22.35    3.99
  -1   3  19   27.19    4.33
   1  -3  19   20.61    3.06
   1  -3  19   24.90    3.60
  -1   3  19   18.10    2.54
  -1   3  19   23.90    3.20
  -1   3  19   19.90    3.59
   1  -3  19   20.42    3.69
  -1   3  18  477.00   17.60
   1  -3  18  518.50   18.81
  -1   3  18  429.53   19.23
   1  -3  18  448.60   17.35
   1  -3  18  471.82   19.26
  -1   3  18  427.21   18.85
   1  -3  18  468.35   16.48
   1  -3  17  820.43   27.39
  -1   3  17  783.27   26.38
   1  -3  17  819.51   26.51
  -1   3  17  777.57   28.66
  -1   3  17  779.15   28.27
   1  -3  17  774.73   28.01
   1  -3  17  771.73   25.37
   1  -3  16    3.87    1.56
  -1   3  16    9.75    2.04
   1  -3  16    4.99    1.78
  -1   3  16    3.70    1.93
   1  -3  16    6.57    2.36
  -1   3  16   10.02    2.47
   1  -3  16    6.28    1.42
   1  -3  15 1716.26   52.05
  -1   3  15 1708.00   51.38
   1  -3  15 1737.92   54.08
  -1   3  15 1646.90   53.29
  -1   3  15 1646.00   52.97
   1  -3  15 1729.39   52.82
   1  -3  15 1755.06   50.60
   1  -3  14  397.69   15.06
  -1   3  14  410.12   14.57
  -1  -3 -14  378.64   18.85
   1   3 -14  395.28   19.37
  -1   3  14  394.63   16.09
   1  -3  14  387.86   16.32
  -1   3  14  414.30   16.10
   1  -3  14  414.31   14.06
  -1   3  13   53.90    3.65
   1  -3  13   52.69    3.93
   1   3 -13   45.49    5.58
  -1   3  13   55.48    4.55
   1  -3  13   46.74    4.37
  -1   3  13   51.02    4.31
   1  -3  13   53.88    3.35
   1  -3  12   59.35    4.07
   1   3 -12   56.57    5.79
  -1   3  12   60.29    3.72
  -1   3  12   63.72    4.61
  -1   3  12   55.87    4.41
   1  -3  12   61.79    4.72
  -1   3  11  272.46    9.56
   1  -3  11  249.08    9.89
   1   3 -11  271.54   13.34
  -1   3  11  238.08   10.48
   1  -3  11  226.41   10.62
  -1   3  11  269.75   10.83
   1   3 -10  948.10   33.20
  -1   3  10  957.70   28.76
   1  -3  10  959.61   29.35
  -1   3  10  963.15   30.19
   1  -3  10  932.26   30.35
  -1   3  10  971.35   30.15
   1   3  -9 1760.53   53.82
   1  -3   9 1692.56   49.78
  -1   3   9 1723.83   50.64
  -1   3   9 1738.60   50.53
   1  -3   9 1652.29   50.65
   1  -3   8   58.10    3.23
   1   3  -8   49.76    4.59
  -1   3   8   48.73    3.48
   1   3  -7 3680.89  107.12
   1   3  -6    9.92    2.03
   1   3  -5   82.21    5.33
   1   3  -4 1308.48   40.30
   1   3  -3 1346.04   41.13
   1  -3   3 1350.27   39.14
   1   3  -2  237.12   10.03
   1  -3   2  258.27    8.24
   1   3  -1  429.27   15.41
   1  -3   1  444.27   13.01
   1  -3   0   65.37    2.46
  -1  -3   0   69.84    4.28
  -1   3  -1  417.94   12.79
  -1  -3   1  467.24   15.15
  -1   3  -2  272.04    8.74
  -1  -3   2  254.73   10.19
  -1   3  -3 1380.71   38.98
  -1  -3   3 1273.50   40.44
  -1  -3   4 1390.25   43.08
  -1   3  -4 1448.15   41.78
  -1   3  -5   78.68    4.30
  -1  -3   5   79.50    5.01
  -1   3  -6    4.07    1.31
  -1  -3   6    8.36    1.90
   1  -3  -6    7.69    1.63
  -1  -3   7 3510.96  104.88
  -1   3  -7 3610.94  104.00
   1  -3  -7 3576.60  104.45
  -1  -3   7 3632.81  102.28
  -1  -3   7 3665.51  101.88
  -1   3  -8   64.43    4.62
   1  -3  -8   58.38    4.72
  -1  -3   8   58.94    3.50
  -1  -3   8   52.91    4.61
  -1  -3   8   55.36    3.21
  -1  -3   9 1660.31   50.22
  -1   3  -9 1820.60   53.11
  -1  -3   9 1669.30   53.56
   1  -3  -9 1675.43   53.26
  -1  -3   9 1701.59   50.53
   1   3   9 1767.84   50.34
  -1  -3   9 1674.04   49.78
  -1  -3   9 1796.63   51.01
   1   3   9 1708.59   51.01
  -1  -3  10  988.29   33.59
   1  -3 -10  966.63   33.23
  -1  -3  10  996.51   30.01
  -1   3 -10  940.07   32.45
   1   3  10 1013.56   29.68
   1   3  10  965.31   29.43
   1   3  10  938.66   30.66
  -1  -3  10  989.64   29.45
  -1  -3  10 1003.29   30.73
  -1  -3  10  921.37   29.51
  -1  -3  10  975.26   30.34
   1   3  10  934.99   29.91
   1   3  11  265.99    9.91
   1  -3 -11  255.77   12.91
   1   3  11  263.87   10.03
  -1  -3  11  259.88   13.21
  -1   3 -11  268.69   12.71
  -1  -3  11  266.29   10.29
  -1  -3  11  274.05   11.16
   1   3  11  253.16   10.96
  -1  -3  11  262.06    9.85
   1   3  11  258.54   10.40
  -1  -3  11  261.97   10.68
  -1  -3  11  250.27    9.91
  -1   3 -12   60.46    5.68
   1  -3 -12   53.37    5.61
   1   3  12   63.17    4.07
   1   3  12   63.18    3.97
  -1  -3  12   65.45    4.31
  -1  -3  12   64.76    3.99
   1   3  12   65.86    4.92
  -1  -3  12   70.41    4.93
  -1  -3  12   56.87    4.37
   1   3  12   67.47    4.49
  -1  -3  12   67.56    4.19
   1   3  13   54.91    3.87
  -1  -3  13   51.52    3.96
  -1   3 -13   49.79    5.35
   1   3  13   58.82    3.85
   1  -3 -13   58.01    5.87
   1   3  13   51.99    4.42
  -1  -3  13   44.72    4.23
  -1  -3  13   53.95    3.69
  -1  -3  13   48.32    4.19
   1   3  13   52.54    4.12
  -1  -3  13   51.95    3.73
   1   3  14  411.93   14.85
  -1  -3  14  384.95   15.04
   1  -3 -14  408.90   19.22
  -1   3 -14  416.35   18.92
   1   3  14  395.87   14.51
  -1  -3  14  386.63   14.43
   1   3  14  380.13   16.05
  -1  -3  14  415.57   16.37
   1   3  14  405.97   15.57
  -1  -3  14  390.01   15.70
  -1  -3  14  424.26   14.85
   1   3  15 1788.54   52.02
   1   3  15 1729.88   51.67
  -1  -3  15 1717.99   52.39
  -1  -3  15 1742.82   54.01
  -1  -3  15 1660.12   51.42
  -1  -3  15 1682.96   53.21
   1   3  15 1653.75   52.65
  -1  -3  15 1756.96   51.77
   1   3  16    8.18    1.91
   1   3  16    5.67    1.73
  -1  -3  16    5.93    2.23
   1   3  16    8.92    2.34
  -1  -3  16    8.06    2.43
  -1  -3  16    3.83    1.61
   1   3  17  798.30   27.45
  -1  -3  17  819.32   29.75
   1   3  17  808.23   28.73
  -1  -3  17  849.37   29.37
  -1  -3  17  827.39   27.37
   1   3  18  515.68   18.54
  -1  -3  18  471.08   20.15
  -1  -3  18  478.16   19.85
   1   3  18  457.09   19.19
  -1  -3  18  468.90   17.80
   1   3  19   18.54    3.06
  -1  -3  19   17.16    3.70
  -1  -3  19   20.56    3.70
   1   3  19   21.68    3.69
  -1  -3  19   20.71    2.95
  -1  -3  20   22.38    4.06
   1   3  20   14.52    2.88
  -1  -3  20   16.85    3.66
   1   3  20   19.97    3.77
  -1  -3  20   21.05    2.99
  -1  -3  21   -0.61    2.66
   1   3  21    3.25    2.17
   1   3  21    2.67    2.33
  -1  -3  21    0.56    2.57
  -1  -3  21    0.72    1.48
  -1  -3  22   20.61    4.28
   1   3  22   17.19    3.41
   1   3  22   20.49    4.18
  -1  -3  22   25.08    4.57
  -1  -3  22   15.45    2.68
   1   3  23  693.75   26.10
  -1  -3  23  720.77   29.19
  -1  -3  23  718.95   28.74
   1   3  23  672.16   27.76
  -1  -3  23  696.97   25.01
   1   3  24   25.40    3.60
   1   3  24   20.91    3.71
   1   3  24   26.83    4.83
  -1  -3  24   30.75    5.10
  -1  -3  24   21.27    3.24
   1   3  25  656.46   25.14
   1   3  25  649.80   27.17
  -1  -3  25  639.11   27.43
   1   3  25  650.66   24.06
  -1  -3  26   63.29    6.52
   1   3  26   67.11    6.23
  -1  -3  26   63.73    7.41
   1   3  26   84.92    7.81
   1   3  26   73.38    5.95
  -1  -3  26   82.20    6.60
   1   3  27   91.71    7.36
   1   3  27   98.18    8.53
  -1  -3  27   96.38    8.72
   1   3  27   89.96    6.62
  -1  -3  28   21.71    4.52
   1   3  28   23.30    4.46
   1   3  28   22.62    3.41
   1   3  28   14.79    3.41
  -1  -3  29   15.10    3.80
   1   3  29   13.19    3.08
   1   3  29   12.08    2.62
   1   3  30  103.09    7.28
   1   3  30  112.72    6.94
   1   3  31    0.63    1.53
   1   3  31    1.12    1.62
   1  -4  32    4.27    2.40
   1   4 -32   -0.32    1.63
   1  -4  31   13.30    3.21
   1  -4  30   99.93    8.27
   1  -4  29   21.07    4.35
   1  -4  28    4.52    2.88
  -1   4  28    4.29    1.79
   1  -4  28    3.56    2.58
  -1   4  28    2.73    1.74
   1  -4  28    4.33    2.39
   1  -4  27   20.49    4.45
  -1   4  27   18.39    3.28
  -1   4  27   18.22    2.93
   1  -4  27   18.66    3.50
   1  -4  27   26.18    4.15
   1  -4  26  115.46    8.50
  -1   4  26  101.39    7.23
   1  -4  26  110.35    9.22
  -1   4  26   95.23    6.52
   1  -4  26  110.72    7.76
   1  -4  25  121.17    8.92
  -1   4  25  148.71    8.79
   1  -4  25  121.67    9.71
  -1   4  25  120.84    7.48
   1  -4  25  135.82    8.64
   1  -4  24   67.31    6.44
  -1   4  24   82.91    6.40
   1  -4  24   73.28    7.38
  -1   4  24   73.32    5.62
   1  -4  24   84.15    6.61
   1  -4  23  167.28   10.34
  -1   4  23  152.84    9.12
   1  -4  23  160.65   11.04
  -1   4  23  159.92    8.64
   1  -4  23  162.19    9.45
  -1   4  22  144.91    8.60
   1  -4  22  144.25    9.39
   1  -4  22  148.03    8.76
  -1   4  22  150.32    8.08
  -1   4  22  148.93   10.56
   1  -4  22  148.10   10.36
  -1   4  21    8.69    2.12
   1  -4  21   11.93    2.95
  -1   4  21   13.13    2.73
  -1   4  21   13.62    3.43
   1  -4  21   14.48    2.75
  -1   4  21    9.96    3.38
   1  -4  21   16.66    3.64
   1  -4  20    3.03    2.31
  -1   4  20    2.79    2.24
  -1   4  20    2.63    1.45
  -1   4  20    3.54    1.86
   1  -4  20    1.79    1.85
   1  -4  20    3.64    2.68
  -1   4  20    1.04    2.28
  -1   4  19  161.78    8.46
   1  -4  19  172.34    9.47
  -1   4  19  141.50    9.64
   1  -4  19  150.27    8.36
  -1   4  19  133.82    9.30
   1  -4  19  147.22    9.62
   1  -4  19  150.40    7.62
   1  -4  18  186.88    9.77
  -1   4  18  172.32    8.76
  -1   4  18  176.83   10.51
   1  -4  18  177.24    8.98
   1  -4  18  165.66   10.01
  -1   4  18  166.88    9.98
   1  -4  18  170.35    8.17
  -1   4  17   43.23    3.86
   1  -4  17   39.62    4.15
   1  -4  17   30.46    3.34
  -1   4  17   36.38    4.48
   1  -4  17   30.40    4.08
  -1   4  17   41.62    4.50
   1  -4  17   30.17    3.01
   1  -4  16   51.78    4.54
  -1   4  16   57.20    4.27
   1  -4  16   60.76    4.41
  -1   4  16   52.90    5.13
   1  -4  16   53.83    4.95
  -1   4  16   62.56    5.26
   1  -4  16   54.01    3.94
   1  -4  15  164.39    8.21
  -1   4  15  171.83    7.70
  -1   4  15  149.77    8.70
   1  -4  15  144.98    7.35
  -1   4  15  156.79    8.73
   1  -4  15  146.15    7.05
   1  -4  14   80.04    5.25
  -1   4  14   82.69    4.84
   1  -4  14   76.76    4.56
  -1   4  14   81.20    5.76
  -1   4  14   76.29    5.72
   1  -4  14   84.78    4.92
  -1   4  13  110.05    5.63
   1   4 -13  110.59    8.84
   1  -4  13  112.76    6.13
  -1   4  13  112.87    6.69
   1  -4  13  116.09    5.79
  -1   4  13  113.69    6.81
  -1   4  12  578.15   18.32
   1   4 -12  561.48   23.38
   1  -4  12  550.20   18.90
  -1   4  12  538.24   19.63
   1  -4  12  550.29   18.32
  -1   4  12  557.71   19.80
   1  -4  11  105.41    5.45
   1   4 -11   82.67    7.20
  -1   4  11  100.93    4.89
  -1   4  11  105.33    5.97
  -1   4  11  103.79    5.96
   1  -4  11  102.74    5.04
  -1   4  10 1006.86   30.37
  -1   4  10  997.62   30.23
   1   4 -10 1003.86   35.27
   1  -4  10 1031.48   31.10
  -1   4  10  990.70   31.85
  -1   4  10 1028.43   31.85
   1  -4  10 1040.18   30.58
   1   4  -9  289.79   13.42
   1  -4   9  273.28   10.06
  -1   4   9  268.91   10.68
  -1   4   9  282.18   10.65
   1  -4   9  269.43    9.66
   1  -4   8  608.89   19.90
   1   4  -8  672.07   23.92
   1  -4   8  651.55   19.62
   1   4  -7  231.29   11.15
   1   4  -6  178.04    9.23
   1   4  -5  720.37   24.30
   1  -4   5  677.20   22.23
   1  -4   4  407.80   13.85
   1   4  -4  416.96   15.89
   1   4  -3   23.38    2.95
   1  -4   3   23.63    1.94
   1  -4   2 1045.05   30.43
   1   4  -2 1034.17   33.18
   1  -4   1  973.21   28.72
  -1  -4  -1 1062.45   31.88
   1  -4   0    3.33    0.78
  -1  -4   0    3.65    1.50
   1  -4  -1 1027.13   30.27
  -1  -4   1 1063.56   32.68
  -1  -4   2 1115.32   33.11
  -1   4  -2 1020.69   30.93
  -1  -4   3   30.28    3.01
  -1   4  -3   25.38    2.16
  -1  -4   4  410.24   14.38
  -1   4  -4  338.18   12.54
  -1  -4   5  699.74   23.76
  -1   4  -5  699.29   22.53
  -1   4  -6  170.82    7.84
  -1  -4   6  177.35    8.77
  -1  -4   7  234.16    8.72
  -1   4  -7  220.06    9.74
  -1  -4   7  225.76   10.66
  -1  -4   7  222.10    8.32
  -1  -4   8  662.66   23.94
  -1  -4   8  645.82   21.12
   1  -4  -8  708.36   23.93
  -1   4  -8  647.12   22.93
  -1  -4   8  674.82   20.78
  -1   4  -9  277.75   12.34
   1  -4  -9  264.89   12.64
  -1  -4   9  266.33   10.50
  -1  -4   9  292.15   13.29
  -1  -4   9  306.50   10.90
   1   4   9  293.11   10.56
  -1  -4   9  281.03   10.90
  -1  -4   9  281.29   10.24
   1   4  10  955.63   30.62
   1   4  10 1021.15   30.91
  -1  -4  10 1062.98   35.38
   1  -4 -10 1036.54   34.88
  -1   4 -10 1140.45   34.68
  -1  -4  10 1061.40   31.46
   1   4  10  937.18   30.99
  -1  -4  10 1007.57   31.52
  -1  -4  10 1021.24   30.80
  -1  -4  10 1002.89   31.84
   1   4  11  118.12    5.48
   1  -4 -11  101.73    7.56
   1   4  11  106.46    5.41
  -1  -4  11   94.69    7.46
  -1   4 -11  101.48    7.22
  -1  -4  11  107.55    5.76
  -1  -4  11   98.51    5.22
  -1  -4  11  107.22    5.92
   1   4  11   97.65    5.58
  -1  -4  12  560.33   23.29
  -1  -4  12  537.67   19.16
   1   4  12  578.81   18.87
   1   4  12  562.26   18.65
  -1   4 -12  570.26   22.51
   1  -4 -12  570.64   23.28
  -1  -4  12  532.85   18.52
  -1  -4  12  581.20   20.21
  -1  -4  12  542.84   19.57
   1   4  12  579.73   19.46
  -1  -4  12  557.69   18.94
  -1   4 -13  114.39    8.51
  -1  -4  13  121.12    6.55
   1   4  13  121.77    6.07
   1  -4 -13  122.40    9.08
   1   4  13  120.45    6.19
  -1  -4  13  119.57    6.13
  -1  -4  13  121.07    7.15
  -1  -4  13  114.35    6.72
   1   4  13  113.28    6.50
  -1  -4  13  118.24    6.26
  -1  -4  14   91.59    5.80
   1   4  14   91.89    5.29
  -1   4 -14   93.21    7.84
   1   4  14   96.17    5.51
   1  -4 -14  103.07    8.41
  -1  -4  14   91.02    5.36
  -1  -4  14   87.93    6.24
   1   4  14   83.04    5.72
  -1  -4  14   97.35    6.26
  -1  -4  14   88.77    5.44
  -1  -4  15  159.61    8.28
   1   4  15  161.90    7.77
   1   4  15  156.88    7.84
  -1  -4  15  145.03    8.78
  -1  -4  15  158.39    7.76
   1   4  15  159.00    8.55
  -1  -4  15  164.59    8.88
  -1  -4  15  167.30    8.06
   1   4  16   52.51    4.34
   1   4  16   55.59    4.25
  -1  -4  16   59.96    4.92
  -1  -4  16   54.93    5.22
  -1  -4  16   52.47    4.29
   1   4  16   53.01    4.82
  -1  -4  16   54.48    4.96
  -1  -4  16   58.28    4.47
  -1  -4  17   29.76    3.58
   1   4  17   27.69    3.18
   1   4  17   20.75    2.92
  -1  -4  17   28.28    3.26
  -1  -4  17   23.30    3.81
  -1  -4  17   24.29    3.67
   1   4  17   32.89    3.95
  -1  -4  17   28.03    3.25
  -1  -4  18  195.03    9.98
   1   4  18  184.48    9.22
  -1  -4  18  162.18   10.39
  -1  -4  18  183.15    9.20
   1   4  18  160.11    9.66
  -1  -4  18  180.16   10.44
  -1  -4  18  180.82    9.16
   1   4  19  148.18    8.44
  -1  -4  19  147.49    9.01
  -1  -4  19  151.48   10.04
  -1  -4  19  156.29    8.53
  -1  -4  19  149.42    9.65
   1   4  19  154.73    9.47
  -1  -4  19  159.12    8.55
   1   4  20    2.28    2.03
  -1  -4  20    2.31    2.32
  -1  -4  20    4.38    2.49
  -1  -4  20    3.69    2.25
  -1  -4  20    0.53    1.94
   1   4  20    4.00    2.18
  -1  -4  20    1.82    1.63
   1   4  21   12.09    2.72
  -1  -4  21   11.60    3.21
  -1  -4  21   12.56    2.91
  -1  -4  21   16.54    3.65
  -1  -4  21   11.34    3.29
   1   4  21   13.83    3.49
  -1  -4  21   13.22    2.65
   1   4  22  139.57    8.72
  -1  -4  22  130.72    9.18
  -1  -4  22  150.14   10.81
  -1  -4  22  144.10    8.90
   1   4  22  145.66    9.97
  -1  -4  22  146.41   10.37
  -1  -4  22  151.54    8.69
   1   4  23  174.76    9.95
  -1  -4  23  157.28   11.04
   1   4  23  160.17   10.81
  -1  -4  23  161.54    9.19
   1   4  24   71.73    6.18
  -1  -4  24   70.30    7.36
   1   4  24   59.62    6.71
  -1  -4  24   70.58    5.66
   1   4  25  125.60    8.45
   1   4  25  129.74    9.72
  -1  -4  25  120.17    9.71
   1   4  25  124.32    7.73
   1   4  26   97.42    7.38
   1   4  26  102.22    8.63
  -1  -4  26   93.94    8.62
   1   4  26   98.94    6.84
  -1  -4  27   25.65    4.74
   1   4  27   22.88    3.51
   1   4  27   17.70    3.30
  -1  -4  28    5.74    2.98
   1   4  28    4.34    1.93
   1   4  28    3.50    2.05
  -1  -4  29   25.43    4.57
   1   4  29   24.65    3.33
   1   4  29   21.01    3.49
   1   4  30   84.10    6.28
   1   4  30   84.08    5.81
   1   4  31   12.90    2.53
   1   4  31   15.74    2.52
   1  -5  31  125.96    8.84
   1   5 -31  127.65    7.61
   1  -5  30   49.61    5.66
   1   5 -30   39.96    4.39
   1  -5  29   14.83    3.54
   1  -5  28   21.20    4.46
  -1   5  27   85.47    6.26
   1  -5  27   85.12    7.34
   1  -5  27   99.07    8.60
   1  -5  27   87.39    6.77
  -1   5  27   81.58    5.72
   1  -5  26  302.40   15.12
  -1   5  26  274.21   13.09
   1  -5  26  301.39   16.28
  -1   5  26  294.30   12.71
   1  -5  26  314.83   14.42
  -1   5  25  167.40    9.38
   1  -5  25  184.46   11.04
   1  -5  25  181.62   11.96
  -1   5  25  153.20    8.51
   1  -5  25  178.86   10.21
   1  -5  24    3.80    3.09
  -1   5  24    4.90    1.89
   1  -5  24    9.21    2.74
   1  -5  24    5.72    3.00
  -1   5  24    4.73    2.11
   1  -5  23  283.16   14.09
  -1   5  23  261.96   12.44
   1  -5  23  257.52   14.76
  -1   5  23  264.58   11.78
   1  -5  23  264.32   12.95
   1  -5  22  346.64   15.86
  -1   5  22  322.91   14.26
   1  -5  22  315.81   16.54
   1  -5  22  332.93   14.81
  -1   5  22  334.14   13.65
   1  -5  21   78.01    6.64
  -1   5  21   73.13    5.67
  -1   5  21   76.36    7.26
  -1   5  21   73.72    5.21
   1  -5  21   74.90    5.85
   1  -5  21   69.66    6.92
  -1   5  20   49.89    4.57
   1  -5  20   46.93    5.03
  -1   5  20   53.72    4.24
  -1   5  20   46.14    5.44
   1  -5  20   46.84    4.64
   1  -5  20   51.88    5.64
   1  -5  20   45.39    4.09
   1  -5  19  201.47   10.56
  -1   5  19  202.13    9.60
  -1   5  19  178.32   10.98
   1  -5  19  190.77    9.63
   1  -5  19  192.52   11.19
   1  -5  19  176.06    8.92
   1  -5  18  188.22    9.84
  -1   5  18  187.88    8.99
   1  -5  18  194.05    9.31
  -1   5  18  165.94   10.29
   1  -5  18  173.23   10.29
   1  -5  18  168.81    8.52
  -1   5  17  528.03   18.37
   1  -5  17  476.69   19.00
   1  -5  17  534.90   18.68
  -1   5  17  497.36   20.33
   1  -5  17  518.60   20.27
   1  -5  17  467.14   17.80
  -1   5  16  133.10    7.06
   1  -5  16  145.74    7.92
  -1   5  16  135.01    8.49
   1  -5  16  147.17    7.44
   1  -5  16  137.42    8.30
   1  -5  16  140.07    7.13
  -1   5  15 1264.06   38.57
   1  -5  15 1188.05   39.38
   1  -5  15 1291.72   38.65
   1  -5  15 1263.15   38.80
  -1   5  15 1235.54   40.73
   1  -5  14 1374.70   42.96
  -1   5  14 1442.95   45.09
   1  -5  14 1393.73   43.79
  -1   5  14 1474.09   42.98
   1  -5  13  792.39   24.97
  -1   5  13  742.87   26.36
   1   5 -13  743.89   30.59
  -1   5  13  808.18   24.85
   1  -5  13  768.31   25.58
  -1   5  12    6.22    1.87
   1  -5  12    3.87    1.46
   1  -5  12    4.70    1.33
  -1   5  12    5.09    1.33
   1   5 -12    7.79    2.55
   1  -5  11    6.21    1.53
  -1   5  11    6.60    1.67
   1  -5  11    6.34    1.44
   1   5 -11    4.97    2.22
  -1   5  11    6.29    1.25
  -1   5  11    3.80    1.06
   1  -5  10  179.81    7.15
  -1   5  10  172.42    7.89
   1  -5  10  168.42    7.45
  -1   5  10  174.13    6.77
  -1   5  10  176.20    6.90
   1   5 -10  162.04   10.30
   1  -5   9  848.33   25.81
  -1   5   9  831.89   26.68
   1   5  -9  895.83   31.01
   1  -5   9  811.51   26.21
  -1  -5  -9  862.01   24.74
   1   5  -8   80.41    6.50
   1  -5   8   84.47    4.40
   1  -5   8   88.98    4.20
   1   5  -7  427.49   17.66
   1  -5   7  419.85   14.04
   1  -5   7  425.86   13.69
   1   5  -6 1091.83   37.06
   1  -5   6 1067.65   34.65
   1   5  -6 1158.38   33.49
   1   5  -5   17.85    2.93
   1  -5   5   12.18    1.88
  -1   5   5   17.17    1.70
   1   5  -5   14.47    1.73
   1   5  -4 1038.20   33.44
   1  -5   4 1034.02   30.60
   1   5  -4  941.79   29.79
  -1   5   4 1014.48   29.67
   1   5  -3   14.65    2.66
   1  -5   3   19.71    1.84
  -1   5   3   17.22    1.72
  -1   5   3   19.06    1.80
   1   5  -3   15.91    1.77
   1  -5   2   36.66    2.41
  -1  -5  -2   37.01    3.71
  -1   5   2   36.17    2.45
   1  -5   1  410.72   13.17
  -1  -5  -1  412.04   15.88
  -1  -5   0    6.04    1.93
   1  -5   0    5.92    1.00
  -1  -5   1  447.70   16.35
   1  -5  -1  428.87   14.16
   1   5   1  437.62   14.22
   1  -5  -2   41.53    2.81
   1   5   2   42.25    2.72
  -1   5  -2   38.82    2.62
  -1   5  -3   16.52    1.93
  -1  -5   3   11.91    2.14
   1   5   3   15.87    1.63
   1   5   3   15.21    1.72
  -1   5  -3   15.33    1.74
  -1   5  -4 1028.05   30.94
  -1  -5   4  989.99   32.31
   1   5   4  985.56   29.77
   1   5   4 1032.88   29.61
  -1   5  -4  948.46   29.74
  -1   5  -5   13.33    1.97
  -1   5  -5   17.32    1.83
  -1   5  -6 1112.38   34.85
  -1  -5   6 1119.69   36.09
  -1   5  -6 1095.44   33.07
  -1  -5   7  414.90   16.73
  -1   5  -7  418.45   15.83
  -1   5  -8   83.44    5.74
  -1  -5   8   85.72    6.29
  -1  -5   8   86.30    4.53
   1  -5  -9  906.38   30.98
  -1  -5   9  876.07   27.66
  -1   5  -9  858.76   29.89
  -1  -5   9  971.05   31.57
  -1  -5   9  838.70   27.51
  -1  -5   9  837.29   27.03
  -1  -5   9  858.75   27.45
   1   5   9  943.65   27.52
  -1  -5   9  886.10   25.73
  -1  -5  10  189.23   10.80
   1  -5 -10  188.80   10.60
  -1   5 -10  203.32   10.41
  -1  -5  10  184.48    8.20
  -1  -5  10  183.65    7.83
  -1  -5  10  173.07    8.24
  -1  -5  10  177.16    8.17
   1   5  10  199.34    8.24
  -1  -5  10  195.76    6.55
   1  -5 -11    2.96    1.53
   1   5  11    7.63    1.58
  -1  -5  11    7.73    2.47
   1   5  11    4.65    1.47
  -1   5 -11    4.95    1.97
  -1  -5  11    6.47    1.74
  -1  -5  11    6.11    1.60
  -1  -5  11    7.89    1.83
   1   5  11    6.62    1.55
  -1  -5  11    7.64    1.79
  -1  -5  11    6.04    0.84
   1  -5 -12    8.69    2.65
   1   5  12    6.17    1.52
  -1  -5  12    1.69    1.66
  -1   5 -12    6.48    2.12
   1   5  12    8.24    1.72
  -1  -5  12    4.75    1.57
  -1  -5  12    8.92    1.72
  -1  -5  12    6.93    1.90
   1   5  12   12.17    2.03
  -1  -5  12    7.12    1.80
  -1  -5  12    5.98    0.80
  -1  -5  13  791.05   25.97
   1   5  13  767.68   25.19
  -1   5 -13  780.87   29.71
   1   5  13  782.75   25.05
   1  -5 -13  845.58   31.17
  -1  -5  13  747.15   26.41
  -1  -5  13  755.99   25.18
  -1  -5  13  773.05   25.54
   1   5  13  767.33   25.90
  -1  -5  13  802.97   26.47
   1   5  14 1356.27   42.53
   1  -5 -14 1380.13   48.95
  -1   5 -14 1411.94   48.33
   1   5  14 1450.02   43.02
  -1  -5  14 1412.48   43.65
  -1  -5  14 1387.97   42.82
  -1  -5  14 1339.48   44.38
   1   5  14 1345.46   43.57
  -1  -5  14 1458.61   44.45
  -1  -5  14 1464.67   43.42
  -1  -5  15 1240.19   39.75
   1   5  15 1285.41   39.10
   1   5  15 1217.93   38.66
  -1  -5  15 1237.65   40.81
  -1  -5  15 1262.42   39.02
  -1  -5  15 1234.65   40.49
   1   5  15 1264.11   40.05
  -1  -5  15 1248.15   39.36
  -1  -5  16  151.01    8.26
   1   5  16  141.17    7.35
   1   5  16  143.52    7.62
  -1  -5  16  157.24    7.90
  -1  -5  16  144.24    8.85
  -1  -5  16  140.54    8.57
   1   5  16  131.15    8.03
  -1  -5  16  142.13    7.80
   1   5  17  524.26   18.59
   1   5  17  497.27   18.67
  -1  -5  17  485.22   19.34
  -1  -5  17  504.63   20.67
  -1  -5  17  459.88   18.47
   1   5  17  515.45   19.93
  -1  -5  17  553.83   20.91
  -1  -5  17  524.23   19.13
   1   5  18  173.64    9.09
  -1  -5  18  165.56    9.54
  -1  -5  18  191.04   11.08
  -1  -5  18  176.90    9.21
  -1  -5  18  183.50   10.49
   1   5  18  161.06    9.64
  -1  -5  18  190.05    9.53
   1   5  19  194.94    9.87
  -1  -5  19  199.37   10.61
  -1  -5  19  193.28    9.89
  -1  -5  19  204.34   11.84
  -1  -5  19  165.94   10.55
   1   5  19  191.99   10.81
  -1  -5  19  194.92    9.99
  -1  -5  20   52.83    5.36
   1   5  20   49.97    4.81
  -1  -5  20   52.80    5.97
  -1  -5  20   41.52    4.52
   1   5  20   48.47    5.32
  -1  -5  20   48.72    5.57
  -1  -5  20   57.38    5.07
  -1  -5  21   74.44    6.50
   1   5  21   68.25    5.68
  -1  -5  21   74.96    7.12
  -1  -5  21   74.01    6.10
  -1  -5  21   72.08    6.87
   1   5  21   63.88    6.20
  -1  -5  21   72.79    5.85
   1   5  22  329.39   14.76
  -1  -5  22  314.46   15.59
  -1  -5  22  336.14   15.10
  -1  -5  22  349.00   17.05
   1   5  22  315.02   15.96
  -1  -5  22  332.82   14.74
   1   5  23  271.09   13.16
  -1  -5  23  268.43   15.13
   1   5  23  276.72   14.69
  -1  -5  23  283.68   13.20
   1   5  24   10.99    2.68
   1   5  24    6.43    2.91
  -1  -5  24    5.12    3.00
  -1  -5  24    7.67    2.30
   1   5  25  172.01    9.92
  -1  -5  25  171.76   11.56
   1   5  25  157.80    8.96
   1   5  26  286.60   13.72
  -1  -5  26  276.83   15.57
   1   5  26  291.98   12.98
   1   5  27   89.62    6.88
  -1  -5  27  102.34    8.56
   1   5  27   92.80    6.41
  -1  -5  28   17.59    3.91
   1   5  28   20.90    3.00
   1   5  28   18.28    3.28
  -1  -5  29   13.13    3.31
   1   5  29   16.23    2.92
   1   5  29   11.63    2.32
   1  -6  31   33.84    4.43
   1   6 -31   24.64    3.33
   1  -6  30   19.96    3.67
   1   6 -30   18.02    3.06
   1  -6  29   40.71    5.32
   1   6 -29   45.08    4.73
   1  -6  28   50.44    5.98
   1   6 -28   46.27    4.86
   1   6 -27   22.22    3.59
   1  -6  27   18.50    4.07
   1  -6  26   32.00    5.08
   1  -6  25   66.02    6.37
  -1   6  25   60.19    5.14
   1  -6  25   76.41    7.41
  -1   6  25   66.47    4.92
   1  -6  25   75.71    6.24
   1  -6  24   43.42    5.25
  -1   6  24   38.56    4.08
   1  -6  24   51.22    6.21
   1  -6  24   42.65    4.78
  -1   6  24   35.61    3.65
   1  -6  23   45.07    5.27
  -1   6  23   42.11    4.31
  -1   6  23   46.20    4.09
   1  -6  23   61.09    5.59
   1  -6  23   54.47    6.22
   1  -6  22   16.64    3.50
  -1   6  22   16.96    2.64
  -1   6  22   14.85    2.73
   1  -6  22   18.21    3.18
   1  -6  22   19.53    4.02
   1  -6  21  119.27    8.26
  -1   6  21  114.89    7.11
   1  -6  21  133.30    8.12
  -1   6  21  116.11    6.66
   1  -6  21  123.95    9.02
   1  -6  21  114.04    7.07
  -1   6  20    0.27    1.27
   1  -6  20    3.10    2.15
   1  -6  20   -0.37    2.02
  -1   6  20    1.32    1.57
   1  -6  20    2.14    2.28
   1  -6  20    1.34    1.35
   1  -6  19   33.62    4.06
  -1   6  19   30.22    3.45
  -1   6  19   30.16    4.39
   1  -6  19   35.91    3.87
   1  -6  19   38.84    4.99
   1  -6  19   28.97    3.38
   1  -6  18   48.01    4.72
  -1   6  18   49.52    4.20
  -1   6  18   49.62    5.29
   1  -6  18   44.12    4.14
   1  -6  18   54.59    5.47
   1  -6  18   47.22    4.19
  -1   6  17  118.31    6.53
   1  -6  17  101.65    6.91
   1  -6  17  115.87    6.73
  -1   6  17  120.98    8.03
   1  -6  17  112.00    7.69
   1  -6  17  113.18    6.64
  -1   6  16    3.66    1.94
  -1   6  16    3.04    1.40
   1  -6  16    1.66    1.68
   1  -6  16    3.60    1.58
   1  -6  16    4.37    2.12
   1  -6  16    4.77    1.62
   1  -6  15   83.78    5.22
  -1   6  15   78.24    6.06
  -1   6  15   87.03    5.12
   1  -6  15   83.43    5.64
  -1   6  14   26.72    3.43
   1  -6  14   32.20    3.01
   1  -6  14   33.46    3.38
  -1   6  14   33.69    2.95
  -1   6  13   41.66    3.96
   1  -6  13   49.01    3.61
   1  -6  13   48.11    3.92
  -1   6  13   48.60    3.38
  -1   6  12    6.18    1.80
   1  -6  12    6.97    1.56
   1  -6  12    6.91    1.81
  -1   6  12    7.02    1.40
   1   6 -12    5.90    2.48
  -1   6  11   98.90    5.67
   1  -6  11   94.21    4.93
  -1   6  11   92.23    4.49
  -1   6  11   86.44    4.53
   1   6 -11   94.76    8.06
   1  -6  11   97.53    5.36
  -1  -6 -11   91.07    3.86
   1  -6  10  304.56   11.64
  -1   6  10  317.98   12.46
   1   6 -10  352.69   16.84
  -1   6  10  345.27   11.33
  -1   6  10  342.04   11.46
   1  -6  10  327.94   12.27
  -1  -6 -10  336.03   10.76
   1  -6   9   75.65    4.32
   1   6  -9   71.89    6.64
   1   6  -9   67.86    4.36
  -1   6   9   66.32    4.17
   1  -6   9   74.04    3.99
   1   6  -8   39.65    4.86
   1  -6   8   38.35    2.99
   1   6  -8   37.32    3.03
   1  -6   8   38.29    2.70
   1   6  -7  297.70   14.91
   1  -6   7  330.78   11.54
   1   6  -7  321.00   11.82
   1  -6   7  325.26   11.17
   1  -6   6   60.28    4.37
   1   6  -6   63.20    5.68
   1  -6   6   61.89    3.56
   1   6  -6   61.96    3.89
   1  -6   6   67.45    3.48
   1   6  -5   27.56    3.75
   1  -6   5   24.84    2.55
   1   6  -5   26.86    2.45
  -1   6   5   26.57    2.27
   1  -6   4  531.64   17.44
   1   6  -4  498.43   20.06
   1   6  -4  517.24   17.06
  -1   6   4  511.16   16.64
   1  -6   3    2.17    0.96
  -1  -6  -3    1.90    1.62
  -1   6   3    2.36    1.09
   1   6  -3    1.17    1.09
  -1   6   3    3.01    1.18
  -1  -6  -2  208.34   10.29
   1  -6   2  204.61    7.80
   1   6  -2  214.49    8.15
  -1   6   2  200.96    7.83
  -1   6   2  187.09    7.71
   1  -6   1  851.37   25.72
  -1  -6  -1  828.28   28.71
   1   6  -1  857.27   26.09
  -1   6   1  847.76   25.97
  -1   6   1  835.38   25.87
   1  -6   0    2.01    0.86
   1   6   0    3.74    1.11
  -1   6   0    3.14    1.17
  -1   6   0    3.74    1.19
  -1  -6   1  829.42   27.94
   1  -6  -1  838.72   25.45
   1   6   1  827.99   25.56
   1   6   1  819.52   25.34
  -1   6  -1  812.84   25.42
  -1   6  -1  819.38   25.32
   1  -6  -2  188.87    8.12
  -1  -6   2  217.88   10.02
  -1   6  -2  213.95    8.21
   1   6   2  197.12    7.82
   1   6   2  207.78    8.09
   1  -6  -3    3.21    1.19
  -1  -6   3    8.46    1.88
   1   6   3    5.53    1.25
   1   6   3    6.14    1.41
  -1   6  -3    5.19    1.32
  -1  -6   4  486.06   19.01
  -1   6  -4  497.64   17.81
   1   6   4  531.59   16.92
   1   6   4  536.98   16.68
  -1   6  -4  497.34   16.92
  -1   6  -5   27.46    2.90
  -1  -6   5   26.75    3.30
   1   6   5   25.48    2.19
  -1   6  -6   58.74    4.56
  -1  -6   6   60.17    5.08
  -1   6  -7  281.25   12.59
  -1  -6   7  313.36   13.77
  -1   6  -8   32.09    3.68
  -1  -6   8   41.77    4.42
  -1  -6   8   33.91    2.72
   1  -6  -9   67.59    5.72
  -1   6  -9   69.48    5.62
  -1  -6   9   61.86    3.95
  -1  -6   9   73.79    4.34
  -1  -6  10  339.19   15.84
   1  -6 -10  327.48   15.48
  -1   6 -10  328.64   14.96
  -1  -6  10  295.30   12.04
   1   6  10  324.86   12.23
  -1  -6  10  319.10   12.45
  -1  -6  10  357.81   10.93
  -1   6 -11   98.17    7.33
   1  -6 -11  106.16    7.98
   1   6  11   86.72    4.94
   1   6  11   92.43    4.93
  -1  -6  11   91.05    7.58
  -1  -6  11   79.49    5.12
   1   6  11   86.43    5.17
  -1  -6  11   90.31    5.45
  -1  -6  11   89.26    3.89
   1   6  12    7.08    1.70
   1  -6 -12   10.17    2.76
  -1  -6  12    4.18    2.02
   1   6  12    8.38    1.71
  -1   6 -12    4.21    2.00
  -1  -6  12    6.04    1.72
  -1  -6  12    5.32    1.69
   1   6  12    6.43    1.67
  -1  -6  12    9.40    1.08
   1   6  13   47.60    3.66
   1   6  13   58.71    4.06
  -1   6 -13   50.36    5.72
   1  -6 -13   39.34    5.33
  -1  -6  13   50.67    4.30
  -1  -6  13   51.38    4.40
   1   6  13   54.08    4.23
  -1  -6  13   48.81    2.57
   1   6  14   37.08    3.33
   1   6  14   40.06    3.47
  -1  -6  14   38.93    3.94
  -1  -6  14   41.13    4.04
  -1  -6  14   37.78    3.66
   1   6  14   31.34    3.47
   1   6  15   89.59    5.44
   1   6  15   84.11    5.45
  -1  -6  15   91.52    6.12
  -1  -6  15   90.40    5.72
  -1  -6  15   83.23    6.22
  -1  -6  15   91.38    6.34
   1   6  15   85.94    5.98
  -1  -6  15   92.45    6.00
   1   6  16    0.59    1.32
   1   6  16    2.48    1.42
  -1  -6  16    2.48    1.84
  -1  -6  16    4.62    1.83
  -1  -6  16    1.51    1.48
  -1  -6  16    2.42    1.89
   1   6  16    4.04    1.79
  -1  -6  16    0.34    1.27
   1   6  17  114.60    6.81
   1   6  17  104.86    6.44
  -1  -6  17  117.42    7.97
   1   6  17  115.03    7.52
  -1  -6  17  118.83    7.90
  -1  -6  17  112.69    7.11
   1   6  18   52.18    4.54
  -1  -6  18   51.05    5.37
   1   6  18   50.72    5.05
  -1  -6  18   50.20    5.33
  -1  -6  18   47.49    4.65
   1   6  19   38.41    4.06
  -1  -6  19   34.95    4.71
  -1  -6  19   41.63    4.94
   1   6  19   33.19    4.32
  -1  -6  19   34.78    4.07
   1   6  20   -0.38    1.71
  -1  -6  20    1.60    1.94
   1   6  20   -0.48    2.10
  -1  -6  20    2.47    1.60
   1   6  21  126.78    7.92
  -1  -6  21  114.00    8.73
  -1  -6  21  133.42    8.29
   1   6  22   16.26    3.06
  -1  -6  22   21.15    4.04
  -1  -6  22   18.41    3.35
   1   6  23   42.47    4.68
  -1  -6  23   56.52    6.40
  -1  -6  23   47.29    4.91
   1   6  24   37.84    4.45
  -1  -6  24   45.23    5.78
  -1  -6  24   45.09    4.67
   1   6  25   73.33    6.14
   1   6  25   78.57    5.74
  -1  -6  25   80.21    7.63
  -1  -6  25   73.07    5.94
   1   6  26   27.46    3.45
   1   6  26   31.95    3.97
  -1  -6  26   29.43    5.06
   1   6  27   21.11    3.10
   1   6  27   20.81    3.36
  -1  -6  27   16.66    3.80
  -1  -6  28   51.96    5.94
   1   7 -30  102.29    6.77
   1  -7  30  103.42    7.68
   1   7 -29   80.75    6.22
   1  -7  29   81.00    7.19
   1  -7  28   18.72    3.83
   1   7 -28   22.14    3.64
   1   7 -27   87.99    6.88
   1  -7  27   83.02    7.55
   1   7 -26   66.17    5.94
   1  -7  26   63.40    6.75
   1  -7  25   20.07    4.22
   1   7 -25   17.31    3.33
   1  -7  24    9.12    3.26
   1   7 -24   13.16    2.91
   1   7 -23   38.21    4.61
   1  -7  23   36.65    5.27
   1  -7  22   63.46    6.04
   1  -7  22   58.19    5.38
   1  -7  22   69.79    6.92
   1  -7  22   59.40    5.05
   1  -7  21  309.68   14.42
   1  -7  21  272.49   13.15
   1  -7  21  295.64   15.20
   1  -7  21  290.31   12.99
  -1   7  20   68.19    5.06
   1  -7  20   77.98    6.31
  -1   7  20   71.85    4.81
   1  -7  20   78.04    5.90
   1  -7  20   65.86    6.53
   1  -7  20   69.70    5.52
   1  -7  19  131.67    8.34
  -1   7  19  127.14    7.11
  -1   7  19  127.53    6.65
   1  -7  19  135.67    7.88
   1  -7  19  133.30    9.23
   1  -7  19  134.07    7.82
  -1   7  18  277.11   11.66
   1  -7  18  271.17   12.90
   1  -7  18  270.56   12.22
   1  -7  18  294.60   14.30
   1  -7  18  303.43   12.74
   1  -7  17  213.76   10.60
  -1   7  17  221.98    9.56
   1  -7  17  203.14    9.82
   1  -7  17  205.13   11.27
   1  -7  17  214.61   10.19
   1  -7  16   45.89    4.39
  -1   7  16   46.41    3.73
   1  -7  16   50.13    4.94
   1  -7  16   45.58    3.98
  -1   7  16   36.03    4.17
  -1   7  15   43.89    3.53
   1  -7  15   42.62    4.10
   1  -7  15   50.47    3.98
  -1   7  15   51.02    4.71
  -1   7  14  608.80   19.86
   1  -7  14  586.32   21.04
  -1   7  14  614.48   21.73
   1  -7  14  579.51   20.35
  -1   7  13  264.93    9.96
   1  -7  13  242.05   10.70
  -1   7  13  255.29   11.23
   1  -7  13  235.85   10.19
   1   7 -13  275.32   11.32
   1  -7  12   19.24    2.33
   1  -7  12   15.53    2.28
  -1   7  12   17.93    2.49
   1   7 -12   24.62    2.85
   1  -7  11  143.54    7.31
   1   7 -11  150.96   11.02
  -1   7  11  143.71    7.39
   1  -7  11  150.01    7.06
   1   7 -11  178.49    8.14
  -1  -7 -11  168.76    6.16
   1   7 -10  689.36   27.67
   1  -7  10  633.08   21.74
   1  -7  10  640.39   21.29
  -1   7  10  616.78   21.55
   1   7 -10  678.24   22.41
  -1  -7 -10  704.09   20.33
   1   7  -9  499.79   21.57
   1  -7   9  460.27   16.12
   1   7  -9  478.82   16.68
   1  -7   9  460.51   15.64
  -1   7   9  442.77   15.66
   1   7  -8  523.01   22.95
   1   7  -8  566.71   19.10
   1   7  -7  649.43   25.96
   1   7  -7  657.87   21.79
   1   7  -6 1092.71   38.46
   1  -7   6 1120.36   35.22
   1   7  -6 1100.57   34.19
   1  -7   5  184.17    8.48
   1   7  -5  195.72   11.00
  -1   7   5  183.24    7.71
   1   7  -5  198.73    8.37
  -1  -7  -4  729.91   27.03
   1  -7   4  723.36   23.68
   1   7  -4  749.14   23.67
  -1   7   4  722.90   23.05
   1  -7   3  194.69    8.24
  -1  -7  -3  188.32   10.59
  -1   7   3  212.36    8.32
  -1   7   3  201.95    8.18
   1   7  -3  204.91    8.52
   1  -7   2  783.75   25.22
  -1  -7  -2  795.98   28.67
  -1   7   2  841.83   25.49
   1   7  -2  826.22   25.75
  -1   7   2  807.37   25.41
  -1  -7  -1  673.32   24.93
   1  -7   1  683.50   21.75
   1   7  -1  700.12   22.20
  -1   7   1  701.62   22.02
  -1   7   1  671.20   21.93
  -1  -7   0   12.02    2.24
   1  -7   0    8.12    1.43
   1   7   0    9.46    1.80
  -1   7   0    9.02    1.68
  -1   7   0    9.58    1.61
   1   7   0   10.64    1.62
   1  -7  -1  682.12   21.65
  -1  -7   1  643.27   24.05
  -1   7  -1  629.60   21.57
   1   7   1  688.30   21.67
   1   7   1  680.32   21.82
  -1   7  -1  702.68   21.78
   1  -7  -2  728.41   24.85
  -1  -7   2  806.87   27.41
  -1   7  -2  793.59   24.79
   1   7   2  784.76   24.85
   1   7   2  805.17   24.67
   1  -7  -3  210.23    9.13
  -1  -7   3  208.72   10.41
   1   7   3  198.45    8.21
   1   7   3  208.64    8.52
  -1  -7   4  688.77   25.53
   1  -7  -4  662.03   24.00
   1   7   4  724.65   22.83
  -1   7  -5  210.97    9.79
  -1  -7   5  201.98   10.55
   1   7   5  210.75    8.36
  -1   7  -6 1087.48   35.65
  -1  -7   6 1104.02   36.87
  -1  -7   7  661.78   24.53
  -1   7  -7  636.65   23.53
  -1  -7   8  537.17   21.76
  -1   7  -8  556.94   21.23
  -1   7  -9  498.96   19.84
  -1  -7   9  467.43   20.05
  -1  -7   9  473.07   16.40
  -1   7 -10  670.43   25.84
  -1  -7  10  629.81   26.03
   1  -7 -10  672.67   25.85
  -1  -7  10  602.94   21.95
  -1  -7  10  725.43   20.75
   1   7  11  150.03    6.95
   1   7  11  163.76    7.27
  -1   7 -11  149.86    9.85
   1  -7 -11  161.85   10.16
  -1  -7  11  159.37   10.60
  -1  -7  11  163.93    7.76
  -1  -7  11  159.79    6.08
   1   7  12   18.14    2.32
   1   7  12   20.97    2.49
  -1   7 -12   19.38    3.64
   1  -7 -12   25.77    4.10
  -1  -7  12   14.90    2.28
  -1  -7  12   17.62    2.58
  -1  -7  12   22.04    1.79
   1   7  13  256.47   10.48
   1   7  13  275.39   10.82
  -1   7 -13  262.01   14.52
  -1  -7  13  257.23   11.44
  -1  -7  13  269.11    8.97
   1   7  14  619.38   20.57
   1   7  14  630.97   20.90
  -1  -7  14  560.70   21.09
  -1  -7  14  578.69   21.65
   1   7  15   46.70    4.03
   1   7  15   57.41    4.26
  -1  -7  15   48.70    4.47
  -1  -7  15   59.47    5.09
  -1  -7  15   55.52    4.76
   1   7  16   58.97    4.43
   1   7  16   50.65    4.36
  -1  -7  16   40.44    4.42
  -1  -7  16   53.49    5.13
  -1  -7  16   54.20    4.78
   1   7  17  202.65    9.58
   1   7  17  206.69    9.87
  -1  -7  17  188.34   10.52
  -1  -7  17  214.56   11.22
  -1  -7  17  223.06   10.87
   1   7  18  301.83   13.21
  -1  -7  18  323.18   14.89
  -1  -7  18  309.64   14.03
   1   7  19  144.40    8.13
  -1  -7  19  140.95    9.32
  -1  -7  19  138.45    8.62
   1   7  20   61.50    5.27
  -1  -7  20   82.80    7.10
  -1  -7  20   75.69    6.17
   1   7  21  291.90   13.09
  -1  -7  21  292.20   14.95
  -1  -7  21  276.29   13.53
   1   7  22   56.74    5.15
  -1  -7  22   62.14    6.53
  -1  -7  22   56.59    5.50
   1   7  23   28.88    3.79
  -1  -7  23   25.69    4.63
  -1  -7  23   37.54    4.47
   1   7  24    9.86    2.56
  -1  -7  24    8.84    3.16
  -1  -7  24   11.57    2.72
   1   7  25   12.18    2.51
   1   7  25   13.56    2.80
  -1  -7  25   13.44    3.43
  -1  -7  25   16.25    2.99
   1   7  26   65.90    5.44
   1   7  26   64.94    5.01
  -1  -7  26   63.88    6.56
  -1  -7  27   76.85    7.00
  -1  -7  28   17.33    3.40
   1   8 -30   26.84    3.44
   1   8 -29   63.90    5.30
   1  -8  29   51.95    5.33
   1  -8  28    0.49    1.86
   1   8 -28    2.44    2.21
   1   8 -27   45.77    4.88
   1  -8  27   40.93    5.19
   1   8 -26   24.67    3.85
   1  -8  26   28.99    4.54
   1   8 -25   97.59    7.38
   1  -8  25   84.69    7.57
   1  -8  24    1.74    2.11
   1   8 -24    3.35    2.19
   1   8 -23  165.77    9.95
   1  -8  23  153.50   10.50
   1   8 -22   25.05    3.80
   1  -8  22   15.44    3.56
   1  -8  22   18.22    2.96
   1   8 -21   60.40    5.89
   1  -8  21   57.41    6.08
   1  -8  21   53.61    4.97
   1  -8  20   23.63    4.14
   1   8 -20   28.59    4.14
   1  -8  20   24.26    3.55
   1   8 -19   12.04    2.70
   1  -8  19   12.30    3.06
   1  -8  19   12.90    2.71
   1  -8  18  210.48   11.64
   1   8 -18  199.37   10.80
   1  -8  18  202.43   10.35
   1   8 -17   61.40    5.35
   1  -8  17   63.11    5.21
   1  -8  17   67.40    5.93
   1   8 -16  160.37    8.98
   1  -8  16  161.50    9.45
   1   8 -15    4.31    1.86
   1  -8  15    5.45    2.01
   1   8 -14  152.95    8.41
   1   8 -13   25.63    3.28
   1   8 -12   41.31    3.89
  -1  -8 -12   34.18    2.41
   1   8 -11    3.04    1.54
  -1  -8 -11    1.89    0.82
   1   8 -10   29.85    3.20
  -1  -8 -10   32.26    2.32
   1   8  -9  241.34   14.45
   1   8  -9  240.22   10.58
   1   8  -8   14.14    3.43
   1   8  -8    5.22    1.70
   1   8  -7  185.03   11.72
   1   8  -7  182.73    8.66
   1   8  -6   45.08    5.31
   1  -8   6   33.31    3.46
   1   8  -6   36.50    3.46
   1  -8   5  319.30   12.43
  -1  -8  -5  291.22   14.98
   1   8  -5  299.35   12.12
  -1  -8  -4    5.61    2.17
   1  -8   4    3.10    1.16
   1   8  -4    1.96    1.33
  -1  -8  -3  108.41    7.87
   1  -8   3  104.32    5.58
   1   8  -3  121.00    6.25
  -1   8   3  105.74    5.66
  -1  -8  -2  160.04    9.71
   1  -8   2  168.32    7.32
  -1   8   2  166.99    7.49
   1   8  -2  165.04    7.75
  -1  -8  -1 1422.27   45.57
   1  -8   1 1335.01   41.41
   1   8  -1 1448.16   42.53
  -1   8   1 1374.23   41.92
   1   8  -1 1398.82   42.19
  -1  -8   0    2.94    1.16
   1  -8   0    2.75    1.02
   1   8   0    2.09    1.32
   1   8   0    6.82    1.66
  -1   8   0    2.99    1.53
   1  -8  -1 1364.13   42.68
  -1  -8   1 1358.77   45.76
  -1   8  -1 1432.97   43.05
   1   8   1 1479.05   43.13
   1   8   1 1476.83   43.45
   1  -8  -2  161.59    7.48
  -1  -8   2  164.31    9.26
  -1   8  -2  146.90    7.24
   1   8   2  159.96    7.30
   1   8   2  162.71    7.52
   1  -8  -3  104.08    6.01
  -1  -8   3  113.87    7.46
  -1   8  -3  106.67    5.75
   1   8   3  114.78    5.91
   1   8   3   97.79    5.41
  -1  -8   4    2.53    1.43
   1  -8  -4    2.45    1.27
   1   8   4    3.82    1.41
   1   8   4    3.12    1.47
   1  -8  -5  307.20   13.54
  -1  -8   5  310.86   14.59
   1   8   5  340.27   12.16
  -1  -8   6   33.63    4.11
  -1   8  -7  178.83    9.67
  -1  -8   7  165.74   10.09
  -1   8  -8    8.90    2.26
  -1  -8   8    3.04    1.64
   1  -8  -9  201.55   11.03
  -1  -8   9  206.46   12.04
  -1   8  -9  220.98   11.83
  -1   8 -10   26.10    4.01
  -1  -8  10   26.25    2.19
   1   8  11    1.50    1.05
   1   8  11    3.83    1.36
  -1   8 -11    4.03    1.86
  -1  -8  11    6.91    1.19
   1   8  12   34.93    3.08
   1   8  12   29.66    2.98
  -1   8 -12   33.52    4.84
  -1  -8  12   37.42    3.57
  -1  -8  12   30.57    2.33
   1   8  13   26.09    2.78
   1   8  13   22.11    2.69
  -1  -8  13   27.30    3.21
  -1  -8  13   26.33    2.08
   1   8  14  133.65    7.24
   1   8  14  145.46    7.29
  -1  -8  14  146.70    8.20
  -1  -8  14  149.08    5.93
   1   8  15    1.87    1.27
   1   8  15    1.99    1.44
  -1  -8  15    1.86    1.49
  -1  -8  15    1.12    1.88
   1   8  16  143.08    7.77
   1   8  16  151.61    7.73
  -1  -8  16  156.02    9.00
  -1  -8  16  147.13    8.70
   1   8  17   67.57    4.92
   1   8  17   58.05    4.78
  -1  -8  17   74.31    6.08
  -1  -8  17   78.42    6.18
   1   8  18  188.39    9.46
  -1  -8  18  188.15   10.69
  -1  -8  18  192.74   10.58
   1   8  19   12.05    2.47
  -1  -8  19   15.01    3.19
  -1  -8  19   15.95    3.16
   1   8  20   22.78    3.18
  -1  -8  20   20.33    3.72
  -1  -8  20   22.27    3.59
   1   8  21   60.80    5.14
  -1  -8  21   65.02    6.40
  -1  -8  21   56.28    5.57
   1   8  22   23.57    3.37
  -1  -8  22   21.16    4.01
  -1  -8  22   26.70    3.86
   1   8  23  154.96    8.75
  -1  -8  23  150.96   10.16
  -1  -8  23  162.35    9.64
   1   8  24    2.52    1.64
   1   8  24   -0.30    1.29
  -1  -8  24    3.82    2.26
  -1  -8  24   -0.43    1.74
  -1  -8  25   81.14    7.20
  -1  -8  26   36.91    4.87
  -1  -8  27   35.11    4.60
   1   9 -29   92.30    6.38
   1   9 -28   17.89    3.16
   1   9 -27   39.75    4.68
   1  -9  27   33.04    4.41
   1   9 -26  116.93    8.00
   1  -9  26  102.92    8.01
   1  -9  25   20.93    3.97
   1   9 -25   28.19    4.20
   1  -9  24   10.21    2.98
   1   9 -24   12.54    2.95
   1   9 -23   55.75    5.62
   1  -9  23   50.19    5.74
   1  -9  22  161.27   10.32
   1   9 -22  140.54    9.23
   1  -9  22  144.79    8.63
   1  -9  21  277.82   14.25
   1   9 -21  257.10   13.39
   1  -9  21  268.23   12.79
   1  -9  20   19.42    3.88
   1   9 -20   29.25    4.21
   1  -9  20   22.32    3.44
   1  -9  19  159.44   10.10
   1   9 -19  163.43    9.87
   1  -9  19  164.01    9.32
   1  -9  18  307.97   15.13
   1   9 -18  335.66   15.12
   1  -9  18  322.56   14.37
   1   9 -17   12.88    2.95
   1  -9  17   15.61    3.19
   1   9 -16   47.69    4.85
   1  -9  16   41.37    4.63
   1  -9  15   29.23    3.82
   1   9 -15   32.76    3.98
   1  -9  14  283.63   12.62
   1   9 -14  255.50   12.40
   1   9 -13  422.56   17.13
   1   9 -12   19.88    3.03
  -1  -9 -12   16.92    1.86
   1   9 -11   85.03    6.13
  -1  -9 -11   92.60    4.57
   1   9 -10  249.22   11.76
  -1  -9 -10  267.05    9.75
   1   9  -9   21.45    3.21
  -1  -9  -9   23.93    2.26
  -1  -9  -8    4.22    2.06
   1   9  -8   -0.70    2.14
   1   9  -8    3.85    1.82
  -1  -9  -7  661.96   28.23
   1   9  -7  705.00   24.13
  -1  -9  -6  707.45   29.34
   1   9  -6  767.86   25.61
  -1  -9  -5 1195.30   42.48
   1   9  -5 1210.26   38.21
  -1  -9  -4    2.80    1.97
   1   9  -4    5.12    1.73
  -1  -9  -3  654.30   26.01
   1   9  -3  662.41   22.66
  -1  -9  -2  375.58   17.71
   1   9  -2  425.49   15.50
  -1   9   2  410.35   15.07
  -1  -9  -1    1.44    1.24
   1   9  -1    2.74    1.58
   1   9  -1    2.36    1.47
  -1   9   1    0.24    1.24
  -1  -9   0   13.00    2.92
   1   9   0   13.51    2.25
   1   9   0   10.26    2.15
  -1   9   0   14.17    2.26
  -1  -9   1    2.29    1.54
  -1   9  -1   -0.50    1.32
   1   9   1    0.27    1.30
   1   9   1    1.25    1.35
  -1  -9   2  420.73   18.01
   1   9   2  421.11   15.34
   1   9   2  418.10   15.60
  -1   9  -2  420.80   15.56
  -1  -9   3  648.58   25.19
  -1   9  -3  683.34   22.85
   1   9   3  659.33   22.28
   1   9   3  683.24   22.75
  -1  -9   4    5.14    1.93
   1   9   4    4.42    1.49
  -1   9  -4    4.78    1.64
   1   9   4    2.58    1.43
  -1  -9   5 1194.29   40.74
   1   9   5 1207.21   37.17
  -1  -9   6  767.05   28.61
  -1  -9   7  717.09   27.52
  -1  -9   8    2.75    1.78
  -1  -9  10  266.96    9.94
   1   9  11   80.45    4.91
   1   9  11   72.71    4.67
  -1  -9  11   89.17    4.48
   1   9  12   17.44    2.29
   1   9  12   15.51    2.21
  -1  -9  12   11.78    1.65
   1   9  13  393.49   14.99
   1   9  13  408.86   15.30
  -1  -9  13  428.05   14.02
   1   9  14  254.39   10.80
   1   9  14  253.49   10.58
  -1  -9  14  250.39    9.28
   1   9  15   32.45    3.28
   1   9  15   31.32    3.29
   1   9  16   38.88    3.63
   1   9  16   45.00    3.98
  -1  -9  16   43.72    4.68
   1   9  17   13.02    2.35
   1   9  17   18.75    2.63
  -1  -9  17    9.72    2.78
   1   9  18  296.57   12.86
  -1  -9  18  319.87   14.71
   1   9  19  154.95    8.41
  -1  -9  19  174.99   10.13
   1   9  20   21.41    3.06
  -1  -9  20   22.69    3.73
  -1  -9  21  259.66   13.24
  -1  -9  22  131.39    8.72
  -1  -9  23   55.62    5.46
  -1  -9  24   10.78    2.80
   1  10 -28    1.80    1.61
   1  10 -27   23.58    3.52
   1  10 -26   12.10    2.99
   1  10 -25   44.95    5.07
   1  10 -24   10.04    3.03
   1  10 -23  143.59    9.24
   1 -10  23  127.42    8.87
   1  10 -22    6.97    2.79
   1 -10  22   10.06    3.07
   1 -10  22    6.35    2.23
   1 -10  21   18.14    3.65
   1  10 -21   23.94    4.01
   1 -10  21   18.64    3.17
   1  10 -20   14.33    3.45
   1 -10  20   14.48    3.31
   1 -10  20    8.90    2.50
   1 -10  19   59.05    5.84
   1  10 -19   57.45    5.91
   1 -10  19   56.77    5.40
   1  10 -18   47.23    5.23
   1 -10  18   35.87    4.57
   1 -10  18   40.30    4.59
   1 -10  17   88.31    6.93
   1  10 -17  102.68    7.53
   1  10 -16   80.48    6.56
   1 -10  16   68.89    5.99
   1 -10  15    6.49    2.13
   1  10 -15    7.09    2.33
   1 -10  14  213.49   10.85
   1  10 -14  231.42   11.82
   1  10 -13   15.11    3.00
   1 -10  13   10.85    2.36
   1  10 -12   12.69    2.82
  -1 -10 -12   17.49    1.97
   1  10 -11   23.56    3.55
  -1 -10 -11   14.94    1.90
   1  10 -10   70.70    5.78
  -1 -10 -10   67.89    4.09
   1  10  -9  190.21   10.06
  -1 -10  -9  194.43    8.08
   1  10  -8   50.36    4.75
   1  10  -7  163.43    8.91
   1  10  -6  264.66   12.02
   1  10  -5   48.06    4.41
   1  10  -4    7.19    2.12
   1  10  -3   93.57    6.12
  -1  10   2  180.10    8.66
   1  10  -2  173.99    8.81
   1  10  -1  316.10   13.19
  -1  10   1  326.13   13.05
   1  10   0    4.68    1.56
   1  10   0    1.24    1.57
  -1  10   0    3.71    1.82
  -1  10  -1  318.19   12.96
   1  10   1  325.31   13.33
   1  10   1  306.84   12.80
   1  10   2  187.47    8.93
   1  10   2  162.40    8.23
  -1  10  -2  175.39    8.69
   1  10   3   85.99    5.47
  -1  10  -3   87.70    5.74
   1  10   3   84.13    5.66
   1  10   4    5.08    1.67
  -1  10  -4    6.10    1.93
   1  10   4    1.78    1.69
  -1  10  -5   49.83    4.39
   1  10   5   55.08    4.25
  -1  10  -6  236.91   10.89
  -1 -10   9  186.22    7.92
  -1 -10  10   68.70    4.11
   1  10  11   15.63    2.11
   1  10  11   17.18    2.29
  -1 -10  11   18.21    2.13
   1  10  12   14.29    2.11
   1  10  12   13.17    2.10
  -1 -10  12   15.26    1.97
   1  10  13   18.60    2.52
   1  10  13   15.25    2.21
  -1 -10  13   15.16    1.92
  -1 -10  14  240.49    9.21
  -1 -10  16   80.56    6.61
  -1 -10  17   90.51    7.16
  -1 -10  18   40.26    4.93
  -1 -10  19   60.75    5.90
  -1 -10  20   10.74    2.95
  -1 -10  21   22.27    3.73
  -1 -10  22    6.13    2.35
  -1 -10  23  144.86    9.06
  -1 -10  24   10.12    2.65
   1  11 -27  101.64    6.85
   1  11 -26  100.76    7.15
   1  11 -25   13.03    2.98
   1  11 -24   22.60    3.59
   1  11 -23   27.47    4.29
   1  11 -22   88.24    7.08
   1 -11  22   72.28    5.94
   1  11 -21  394.30   17.45
   1 -11  21  358.16   15.98
   1  11 -20   24.33    3.96
   1 -11  20   19.90    3.42
   1  11 -19  405.50   17.87
   1 -11  19  377.68   16.79
   1  11 -18  294.49   14.73
   1 -11  18  301.51   14.21
   1  11 -17   33.83    4.64
   1  11 -16   22.54    3.81
   1  11 -15   47.25    5.34
   1 -11  15   54.74    3.55
   1  11 -14   60.55    5.85
   1 -11  14   67.92    4.14
   1  11 -13  661.75   25.45
  -1 -11 -13  671.91   21.58
   1  11 -12   23.19    3.70
  -1 -11 -12   21.02    2.31
   1  11 -11   51.61    5.30
  -1 -11 -11   53.70    3.69
   1  11 -10  380.47   16.42
  -1 -11 -10  369.46   13.53
   1  11  -9   97.83    7.08
  -1 -11  -9   80.52    4.82
   1  11  -8    5.35    2.21
  -1 -11  -8    8.09    1.69
   1  11  -7   -1.61    1.95
   1  11  -6  291.87   13.38
   1  11  -5 1092.17   36.30
   1  11  -4   91.58    6.51
   1  11  -3  374.90   15.55
   1  11  -2   83.01    5.93
   1  11  -1   15.57    2.66
  -1  11   1    9.26    2.22
  -1  11   0    3.22    1.66
   1  11   0    1.65    1.40
   1  11   1    7.25    2.09
  -1  11  -1   13.10    2.59
   1  11   1   10.90    2.39
   1  11   2   87.41    6.00
   1  11   2   81.19    5.62
  -1  11  -2   80.71    5.76
  -1  11  -3  380.71   15.38
   1  11   3  361.38   14.77
   1  11   3  385.28   15.45
  -1  11  -4   98.52    6.54
   1  11   4   96.52    6.15
  -1  11  -5 1058.04   34.93
  -1  11  -6  286.26   12.81
  -1  11  -7   -0.37    1.59
  -1  11  -8    9.31    2.44
  -1 -11   8    6.58    1.64
  -1 -11   9   80.95    4.83
  -1 -11  10  375.59   13.69
  -1 -11  11   55.41    3.82
  -1 -11  12   27.14    2.65
  -1 -11  13  622.95   20.46
  -1 -11  14   49.68    3.43
  -1 -11  15   52.28    3.49
  -1 -11  16   22.26    3.79
  -1 -11  17   39.95    4.90
  -1 -11  18  325.83   15.64
  -1 -11  19  382.15   17.48
  -1 -11  20   19.29    3.55
  -1 -11  21  390.19   17.47
  -1 -11  22   95.12    7.37
  -1 -11  23   26.31    3.84
  -1 -11  24   16.06    3.09
   1  12 -25    1.18    1.84
   1  12 -24    3.84    2.12
   1  12 -23   20.44    3.61
   1  12 -22    9.04    2.90
   1  12 -21   27.55    4.19
   1 -12  21   27.79    3.81
   1  12 -20   59.86    6.00
   1 -12  20   52.70    5.23
   1  12 -19   32.63    4.64
   1 -12  19   41.72    4.80
   1  12 -18   32.33    4.59
   1 -12  18   24.20    3.74
   1  12 -17   46.74    5.31
   1  12 -16   15.36    3.26
   1  12 -15   43.21    5.33
   1 -12  15   33.26    2.87
   1  12 -14  153.03    9.92
   1 -12  14  155.33    7.09
   1  12 -13    5.97    2.83
  -1 -12 -13    7.27    1.58
   1 -12  13    6.39    1.57
   1  12 -12   45.10    5.21
  -1 -12 -12   46.66    3.56
   1  12 -11  102.56    7.75
  -1 -12 -11  104.37    5.64
   1  12 -10    9.46    2.77
  -1 -12 -10    7.21    1.72
   1  12  -9  112.11    7.96
  -1 -12  -9  115.81    6.15
   1  12  -8    7.14    2.69
   1  12  -8    7.25    2.76
  -1 -12  -8    8.49    1.89
   1  12  -7    0.44    1.86
   1  12  -7    1.33    2.07
  -1 -12  -7    2.22    1.42
   1  12  -6   48.28    5.06
   1  12  -6   62.84    5.66
  -1 -12  -6   52.38    4.01
   1  12  -5   21.33    3.71
   1  12  -4   15.87    3.08
   1  12  -3   23.76    3.57
   1  12  -2  160.15    9.02
   1  12  -1  291.15   13.25
   1  12   0    5.11    1.95
  -1  12   0    0.36    1.68
  -1  12  -1  291.49   13.11
   1  12   1  292.26   13.06
   1  12   2  150.37    8.46
  -1  12  -2  145.73    8.52
   1  12   2  171.85    9.32
   1  12   3   23.53    3.22
  -1  12  -3   29.73    3.73
   1  12   4   18.35    2.98
  -1  12  -4   16.06    3.06
  -1  12  -5   21.38    3.33
  -1  12  -6   45.01    4.63
  -1 -12   6   53.09    4.01
  -1  12  -7    1.20    1.92
  -1 -12   7    1.47    1.24
  -1  12  -8    7.36    2.46
  -1 -12   8    5.84    1.62
  -1  12  -9   97.84    7.06
  -1 -12   9  106.98    5.86
  -1  12 -10    5.92    2.48
  -1 -12  10    4.98    1.48
  -1  12 -11  101.86    7.26
  -1 -12  11   99.80    5.59
  -1 -12  12   39.27    3.27
  -1 -12  13    6.53    1.55
   1 -12 -13   12.14    1.90
  -1 -12  14  154.00    7.07
  -1 -12  15   32.69    2.80
  -1 -12  16   13.68    3.29
  -1 -12  17   49.49    5.48
  -1 -12  18   29.01    4.34
  -1 -12  19   52.78    5.62
  -1 -12  20   52.54    5.54
  -1 -12  21   34.97    4.45
  -1 -12  22   10.26    2.69
  -1 -12  23   19.45    3.24
   1  13 -24    5.65    2.17
   1  13 -23    4.09    2.22
   1  13 -23    2.66    1.74
   1  13 -22   17.89    3.41
   1  13 -21  312.39   14.56
   1 -13  21  289.88   13.45
   1  13 -20    8.11    2.88
   1 -13  20   14.97    3.02
   1  13 -19  582.94   22.91
   1 -13  19  542.53   21.95
   1  13 -18   25.08    4.10
   1 -13  18   30.49    4.20
   1  13 -17    4.07    2.67
   1 -13  17    2.32    2.07
   1  13 -16    0.51    2.24
   1  13 -15   11.35    3.07
   1  13 -14   31.49    4.45
   1 -13  14   26.95    2.82
   1  13 -13  192.16   11.40
   1 -13  13  198.91    8.66
  -1 -13 -13  193.63    8.43
   1  13 -12   63.04    6.14
   1  13 -12   52.23    5.74
  -1 -13 -12   47.57    3.72
   1 -13  12   54.13    3.97
   1  13 -11  291.29   14.71
   1  13 -11  288.16   14.75
  -1 -13 -11  307.50   11.88
   1  13 -10    7.86    2.85
   1  13 -10   10.04    3.33
  -1 -13 -10   11.74    2.11
   1  13  -9   11.18    2.90
   1  13  -9   10.86    3.20
  -1 -13  -9   11.05    2.09
   1  13  -8  190.41   10.87
   1  13  -8  177.10   10.62
  -1 -13  -8  178.37    8.51
   1  13  -7    8.98    2.85
   1  13  -7    6.15    2.62
  -1 -13  -7   10.43    2.10
   1  13  -6  186.62   10.65
   1  13  -6  189.03   10.75
  -1 -13  -6  178.24    8.60
   1  13  -5  286.98   13.96
   1  13  -5  288.59   13.94
  -1 -13  -5  287.66   11.91
   1  13  -4   98.36    7.32
  -1 -13  -4   99.56    5.95
   1  13  -3  279.22   13.71
  -1 -13  -3  311.09   12.36
   1  13  -2   64.04    5.71
  -1 -13  -2   76.39    5.06
   1  13  -1    5.71    2.39
  -1 -13  -1    4.99    1.86
   1  13   0    8.70    2.44
  -1 -13   0    4.99    1.92
   1  13   1    3.47    1.99
  -1  13  -1    7.58    2.34
  -1 -13   1    6.08    1.83
   1  13   2   63.43    5.45
  -1  13  -2   68.31    5.72
  -1  13  -3  286.26   13.53
   1  13   3  302.66   13.48
  -1  13  -4   89.62    6.77
  -1 -13   4  108.66    6.20
  -1  13  -5  275.02   13.12
  -1 -13   5  270.15   11.38
  -1  13  -6  165.68    9.67
  -1 -13   6  173.55    8.33
  -1  13  -7    4.75    2.23
  -1 -13   7    5.88    1.90
  -1  13  -8  190.63   10.59
  -1 -13   8  194.12    8.89
  -1  13  -9   11.92    2.83
  -1 -13   9    8.86    1.90
  -1  13 -10    4.02    2.18
  -1 -13  10    8.93    1.95
  -1  13 -11  307.32   14.64
  -1 -13  11  318.75   12.38
  -1  13 -12   48.11    5.17
   1 -13 -12   56.28    4.01
  -1 -13  12   50.53    3.88
  -1  13 -13  199.17   10.81
  -1 -13  13  174.69    8.08
   1 -13 -13  183.75    8.15
  -1  13 -14   21.42    3.74
  -1 -13  14   23.66    2.60
  -1  13 -15    8.62    2.80
  -1 -13  15    9.22    2.65
  -1 -13  15    7.25    1.52
  -1  13 -16   -0.90    1.85
  -1 -13  16   -0.52    1.95
  -1  13 -17    3.52    2.11
  -1 -13  17    6.67    2.65
  -1  13 -18   23.60    3.79
  -1 -13  18   23.70    3.92
  -1  13 -19  574.11   21.94
  -1 -13  19  563.00   22.82
  -1  13 -20   18.50    3.20
  -1 -13  20   17.45    3.44
  -1 -13  21  300.26   14.21
  -1 -13  22   21.08    3.39
  -1 -13  23    1.50    1.63
   1  14 -22   56.58    5.19
   1  14 -22   64.56    5.31
   1  14 -21   28.64    3.81
   1  14 -21   28.32    3.98
   1  14 -20    7.38    2.58
   1  14 -20   10.78    2.72
   1 -14  20    9.21    2.32
   1  14 -19   36.34    4.36
   1 -14  19   33.91    4.18
   1  14 -18   20.26    3.77
   1  14 -18   23.29    3.79
   1 -14  18   17.44    3.31
   1  14 -17   21.71    3.84
   1  14 -17   20.36    3.62
   1 -14  17   24.09    3.91
   1  14 -16    2.90    2.26
   1  14 -16    1.98    2.21
   1  14 -15    2.46    2.25
   1  14 -15    4.03    2.14
   1  14 -14    9.69    3.00
   1  14 -14   14.48    3.55
   1 -14  14   10.39    1.84
   1  14 -13   54.38    5.79
   1  14 -13   52.35    5.70
   1 -14  13   56.17    4.02
   1  14 -12    2.02    2.31
   1  14 -12    3.60    2.35
  -1 -14 -12    2.61    1.20
   1 -14  12    2.48    1.26
   1  14 -11   50.04    5.43
   1  14 -11   50.30    5.55
  -1 -14 -11   50.65    3.92
   1 -14  11   47.73    3.87
   1  14 -10   93.79    7.48
   1  14 -10  100.04    7.75
  -1 -14 -10   85.51    5.38
   1 -14  10   94.74    5.73
   1  14  -9   66.35    6.43
  -1 -14  -9   64.31    4.66
   1  14  -8   10.50    3.13
  -1 -14  -8    8.57    2.04
   1  14  -7    5.94    2.56
   1  14  -7    5.91    2.84
  -1 -14  -7    6.78    1.66
   1  14  -6  323.34   15.42
   1  14  -6  313.40   15.31
  -1 -14  -6  334.72   13.29
   1  14  -5  312.33   14.91
   1  14  -5  302.96   14.68
  -1 -14  -5  297.18   12.48
   1  14  -4   10.68    3.05
   1  14  -4   10.50    3.20
  -1 -14  -4   11.71    2.32
   1  14  -3   64.32    5.90
  -1 -14  -3   56.34    4.50
   1  14  -2   81.73    6.49
  -1 -14  -2   76.77    5.35
   1  14  -1   17.60    3.25
  -1 -14  -1   17.77    2.61
   1  14   0    7.15    2.46
  -1 -14   0    6.52    1.99
   1  14   1   16.46    3.14
  -1 -14   1   18.66    2.73
  -1  14  -2   78.10    6.28
   1  14   2   68.02    5.80
  -1  14  -3   53.00    5.31
  -1  14  -4    9.98    2.82
  -1 -14   4   12.60    2.36
  -1  14  -5  321.31   14.60
  -1 -14   5  297.85   12.60
  -1  14  -6  300.32   14.06
  -1 -14   6  282.63   12.04
  -1  14  -7    7.16    2.70
  -1 -14   7    6.84    1.74
  -1  14  -8    9.49    2.77
  -1 -14   8   14.57    2.34
  -1  14  -9   73.14    6.22
  -1 -14   9   69.83    4.84
  -1  14 -10   86.56    6.89
   1 -14 -10   83.54    5.34
  -1 -14  10   93.73    5.60
  -1  14 -11   46.03    5.14
   1 -14 -11   51.70    3.97
  -1 -14  11   42.16    3.64
  -1  14 -12   -0.45    1.71
  -1 -14  12    1.23    1.05
   1 -14 -12    3.64    1.48
  -1  14 -13   61.20    5.70
  -1 -14  13   52.53    3.90
  -1  14 -14   16.00    3.23
  -1 -14  14   11.08    1.84
  -1  14 -15    2.61    1.95
  -1 -14  15    2.06    2.24
  -1  14 -16    4.67    2.15
  -1 -14  16    1.02    1.92
  -1  14 -17   18.85    3.30
  -1 -14  17   16.47    3.54
  -1  14 -18   28.96    3.79
  -1 -14  18   27.09    4.26
  -1  14 -19   24.37    3.50
  -1 -14  19   26.40    3.92
  -1 -14  20    8.31    2.57
  -1 -14  21   33.15    4.12
   1  15 -20    2.11    1.81
   1  15 -20    4.84    2.21
   1  15 -19   98.73    6.91
   1  15 -19   85.46    6.39
   1 -15  19   87.10    6.38
   1  15 -18   38.01    4.47
   1  15 -18   46.40    5.01
   1 -15  18   44.42    4.71
   1  15 -17   17.03    3.30
   1  15 -17   20.40    3.42
   1 -15  17   16.94    3.29
   1  15 -16   15.50    3.20
   1  15 -16   18.12    3.50
   1 -15  16   16.79    3.22
   1  15 -15    9.16    2.79
   1  15 -15    6.06    2.73
   1  15 -14    6.58    2.71
   1  15 -14    0.48    2.18
   1  15 -13  163.94   10.19
   1 -15  13  165.97    7.73
   1  15 -12    2.96    2.30
   1  15 -12    3.42    2.33
  -1 -15 -12    1.64    1.31
   1 -15  12    3.17    1.45
   1  15 -11  140.66    9.22
   1  15 -11  149.53    9.40
   1 -15  11  123.15    6.75
  -1 -15 -11  133.75    6.89
   1  15 -10   96.88    7.60
   1  15 -10  100.28    7.74
   1 -15  10  103.68    6.03
  -1 -15 -10   95.00    5.73
   1  15  -9   12.47    3.27
   1  15  -9   15.46    3.38
   1 -15   9   12.15    2.36
  -1 -15  -9    9.22    2.07
   1  15  -8   86.26    7.24
   1  15  -8  104.34    7.84
   1 -15   8   88.44    5.70
  -1 -15  -8   82.08    5.47
   1  15  -7   -0.50    2.00
   1  15  -7    0.99    2.35
  -1 -15  -7    2.59    1.68
   1  15  -6    6.91    2.81
   1  15  -6   10.20    3.00
  -1 -15  -6    7.93    2.01
   1  15  -5  835.50   30.45
   1  15  -5  826.83   30.55
  -1 -15  -5  838.31   27.83
   1  15  -4   13.14    3.18
   1  15  -4   10.67    3.26
  -1 -15  -4   13.27    2.50
   1  15  -3  350.56   15.95
   1  15  -3  329.48   15.44
  -1 -15  -3  331.23   13.67
   1  15  -2    3.60    2.28
  -1 -15  -2    3.37    1.58
   1  15  -1   11.92    3.17
  -1 -15  -1    6.46    1.98
   1  15   0    1.30    1.89
  -1 -15   0    0.93    1.34
   1  15   1    5.58    2.48
  -1 -15   1    7.71    2.15
  -1  15  -4    8.01    2.57
  -1 -15   4    9.46    2.14
  -1  15  -5  832.22   29.70
  -1 -15   5  814.49   27.50
  -1  15  -6    8.46    2.76
  -1 -15   6   11.64    2.29
  -1  15  -7    0.45    2.04
  -1 -15   7   -0.29    1.59
  -1  15  -8   91.32    6.92
  -1 -15   8   87.08    5.53
   1 -15  -8   80.27    5.40
  -1  15  -9    8.89    2.72
  -1 -15   9   11.40    2.35
   1 -15  -9    9.41    2.07
  -1  15 -10  100.82    7.34
  -1 -15  10   92.90    5.71
   1 -15 -10   99.51    5.84
  -1  15 -11  141.59    8.77
   1 -15 -11  130.57    6.85
  -1 -15  11  132.92    6.92
  -1  15 -12    2.16    1.88
   1 -15 -12    2.15    1.32
  -1 -15  12    2.19    1.44
  -1  15 -13  163.44    9.55
  -1 -15  13  164.74    7.60
  -1  15 -14    0.82    1.84
  -1 -15  14    4.01    2.49
  -1  15 -15   11.14    2.76
  -1 -15  15   10.38    3.13
  -1  15 -16   14.47    2.83
  -1 -15  16   16.34    3.27
  -1  15 -17   18.72    3.02
  -1 -15  17   19.08    3.61
  -1 -15  18   35.02    4.55
  -1 -15  19   90.51    6.80
  -1 -15  20    4.25    1.96
   1  16 -18    5.62    2.09
   1  16 -17    7.46    2.25
   1  16 -17    6.87    2.21
   1 -16  17    9.44    2.39
   1  16 -16   48.32    4.79
   1  16 -16   50.64    4.92
   1 -16  16   49.00    4.90
   1  16 -15   -0.41    1.96
   1  16 -15    1.61    1.80
   1 -16  15   -0.42    1.79
   1  16 -14   21.69    3.56
   1  16 -14   21.41    3.40
   1  16 -13   42.07    4.79
   1  16 -13   39.50    4.71
   1  16 -12    0.90    1.91
   1  16 -12   -0.45    1.89
   1 -16  12    0.91    1.03
   1  16 -11   21.96    3.80
   1  16 -11   23.69    3.78
  -1 -16 -11   19.84    2.54
   1 -16  11   21.49    2.66
   1  16 -10   63.38    5.87
   1  16 -10   62.08    5.84
   1 -16  10   57.94    4.29
  -1 -16 -10   53.38    4.19
   1  16  -9    1.40    1.82
   1  16  -9    5.61    2.46
  -1 -16  -9    4.99    1.72
   1 -16   9    3.82    1.55
   1  16  -8    0.47    2.34
   1  16  -8    0.94    2.32
  -1 -16  -8    1.91    1.46
   1 -16   8    1.42    1.41
   1  16  -7   18.24    3.65
   1  16  -7   18.01    3.55
   1 -16   7   20.40    2.84
  -1 -16  -7   18.54    2.60
   1  16  -6  114.44    8.04
   1  16  -6  121.71    8.35
   1 -16   6  112.27    6.63
  -1 -16  -6  111.95    6.55
   1  16  -5  163.04    9.70
   1  16  -5  155.57    9.72
   1 -16   5  157.57    8.14
  -1 -16  -5  151.76    7.97
   1  16  -4   89.53    6.99
   1  16  -4   97.61    7.40
  -1 -16  -4   83.18    5.65
   1 -16   4   97.85    6.07
   1  16  -3   17.92    3.21
  -1 -16  -3   15.09    2.53
   1  16  -2  643.13   23.73
  -1 -16  -2  582.77   21.33
   1  16  -1   15.32    2.95
  -1 -16  -1   14.40    2.62
  -1 -16   0   20.92    2.90
  -1 -16   1    9.86    2.42
   1 -16  -3   15.33    2.67
   1 -16  -4   87.67    5.74
  -1 -16   4   93.68    5.95
   1 -16  -5  153.89    7.95
  -1 -16   5  147.28    7.82
   1 -16  -6  118.60    6.70
  -1 -16   6  112.59    6.66
  -1  16  -7   15.83    3.05
   1 -16  -7   23.30    2.97
  -1 -16   7   17.34    2.68
  -1  16  -8    1.27    1.84
   1 -16  -8    1.94    1.62
  -1 -16   8   -0.28    1.34
  -1  16  -9    2.08    1.94
   1 -16  -9    3.21    1.57
  -1 -16   9    3.79    1.67
  -1  16 -10   57.52    5.28
  -1 -16  10   53.37    4.23
   1 -16 -10   60.54    4.34
  -1  16 -11   22.72    3.47
   1 -16 -11   22.42    2.66
  -1 -16  11   17.39    2.38
  -1  16 -12    0.39    1.51
  -1 -16  12   -0.46    1.02
  -1  16 -13   40.70    4.36
  -1  16 -14   16.42    2.92
  -1  16 -15    1.69    1.58
  -1 -16  15    1.36    1.71
  -1 -16  16   52.31    5.29
  -1 -16  17   11.97    2.80
  -1 -16  18    7.72    2.33
   1  17 -15    2.02    1.67
   1  17 -15    3.62    1.73
   1 -17  15    1.48    1.57
   1  17 -14   64.24    5.22
   1 -17  14   61.27    5.50
   1  17 -14   63.11    5.24
   1  17 -13  161.80    8.95
   1  17 -13  159.48    8.94
   1  17 -12    8.81    2.40
   1  17 -12    7.64    2.39
   1  17 -11   87.04    6.54
   1  17 -11   95.81    6.78
   1 -17  11   86.18    5.05
  -1 -17 -11   89.81    5.08
   1  17 -10   19.97    3.37
   1  17 -10   18.52    3.31
   1 -17  10   13.09    2.14
  -1 -17 -10   15.00    2.18
   1  17  -9   10.44    2.74
   1  17  -9    8.59    2.63
  -1 -17  -9   12.79    2.12
   1 -17   9   11.43    2.09
   1  17  -8    3.73    1.98
   1  17  -8    3.41    2.24
   1 -17   8    2.87    1.48
  -1 -17  -8    3.04    1.46
   1  17  -7    9.21    2.75
   1  17  -7   10.84    2.78
  -1 -17  -7    7.34    1.89
   1 -17   7   10.83    2.17
   1  17  -6   50.10    5.03
   1 -17   6   37.59    3.63
  -1 -17  -6   44.54    3.82
   1  17  -5  179.42    9.95
   1 -17   5  169.64    8.39
  -1 -17  -5  166.57    8.28
   1  17  -4    4.19    1.92
   1 -17   4    1.73    1.64
  -1 -17  -4    1.69    1.53
   1  17  -3  332.27   14.92
  -1 -17  -3  327.47   13.24
  -1 -17  -2   23.37    2.94
   1 -17   1   60.59    4.72
  -1 -17  -1   63.41    4.72
   1 -17   0    1.16    1.63
  -1 -17   0    2.34    1.59
   1 -17  -1   68.47    4.88
  -1 -17   1   56.87    4.61
   1 -17  -2   27.51    3.14
   1 -17  -3  313.30   12.78
  -1 -17   4    0.87    1.62
   1 -17  -4    2.25    1.69
  -1 -17   5  146.96    7.75
   1 -17  -5  162.32    7.98
  -1 -17   6   44.40    3.86
   1 -17  -6   41.29    3.70
  -1 -17   7   11.14    2.25
   1 -17  -7   11.92    2.14
   1 -17  -8    0.51    1.32
  -1 -17   8    3.14    1.42
  -1 -17   9    8.51    1.89
   1 -17  -9   12.76    2.17
   1 -17 -10   18.11    2.39
  -1 -17  10   14.85    2.25
   1 -17 -11   85.28    5.03
  -1 -17  11   84.36    5.00
  -1 -17  12    6.66    2.34
  -1 -17  15    2.78    1.73
   1  18 -12    0.92    1.46
   1 -18  12    1.81    1.65
   1  18 -11   26.82    3.39
   1  18 -10   63.10    5.00
   1 -18  10   47.66    3.51
   1  18  -9    2.04    1.55
   1 -18   9    0.21    1.12
  -1 -18  -9    2.08    1.23
   1  18  -8    1.74    1.52
  -1 -18  -8    0.44    1.09
   1 -18   8    0.45    1.08
   1  18  -7    2.85    1.81
   1 -18   7    5.91    1.44
  -1 -18  -7    4.16    1.41
   1  18  -6   66.02    5.38
  -1 -18  -6   61.25    4.35
   1 -18   6   62.21    4.34
   1  18  -5   30.21    3.74
   1 -18   5   30.18    3.04
  -1 -18  -5   33.00    3.22
   1 -18   4    4.86    1.52
  -1 -18  -4    2.52    1.46
  -1 -18  -3    4.10    1.57
   1 -18   3    9.33    1.83
  -1 -18  -2   29.62    3.12
  -1 -18  -1   14.95    2.41
   1 -18   1   12.79    2.21
   1 -18   0    1.30    1.34
  -1 -18   0    0.26    1.26
   1 -18  -1   19.71    2.68
  -1 -18   1   18.02    2.52
   1 -18  -2   32.41    3.22
   1 -18  -3    8.91    1.89
   1 -18  -4    1.25    1.15
  -1 -18   4    2.34    1.41
   1 -18  -5   24.40    2.78
  -1 -18   5   32.93    3.24
   1 -18  -6   58.94    4.24
  -1 -18   6   68.15    4.56
  -1 -18   7    3.84    1.39
   1 -18  -7    3.26    1.29
   1 -18  -8    0.67    1.11
  -1 -18   8    0.91    1.24
  -1 -18   9    2.07    2.02
   1 -18  -9    3.62    1.39
  -1 -18   9    1.29    1.17
  -1 -18  10   52.24    3.63
  -1 -18  10   46.08    4.85
  -1 -18  11   25.42    3.70
  -1 -18  12    1.53    1.83
   1 -19   5   12.94    1.95
  -1 -19  -5   11.31    1.82
   1 -19   4    3.84    1.37
  -1 -19  -4    4.23    1.39
  -1 -19  -3   13.15    2.00
   1 -19   3   13.45    2.06
  -1 -19  -2   39.12    3.32
  -1 -19  -1   57.51    4.05
   1 -19   1   59.16    4.04
   1 -19   0   -0.66    1.19
  -1 -19   0   -0.22    1.02
   1 -19  -1   67.21    4.30
  -1 -19   1   58.46    4.13
   1 -19  -2   39.52    3.29
   1 -19  -3   15.45    2.19
  -1 -19   3   17.74    2.33
   1 -19  -4    6.97    1.60
  -1 -19   4    5.01    1.51
  -1 -19   5    8.48    1.71
   1 -19  -5    9.51    1.74
  -1 -19   6  139.07    8.11
  -2   0   0  164.05    6.73
   2   0  -1    1.22    0.88
  -2   0   1    0.71    0.90
  -2   0   2  441.39   14.99
   2   0  -2  475.96   15.47
  -2   0   3   44.70    3.09
   2   0  -3   40.57    3.12
  -2   0   4  188.01    7.92
   2   0  -4  190.23    8.19
   2   0  -5    8.73    1.78
  -2   0   5    8.38    1.66
  -2   0   6  368.95   14.07
   2   0  -6  381.74   14.42
  -2   0   7   39.56    3.64
   2   0  -7   33.49    3.53
  -2   0   8  978.98   32.87
   2   0   8  984.32   30.02
   2   0   8  999.63   30.15
   2   0  -8 1021.63   33.24
  -2   0   8 1010.96   30.64
  -2   0   8 1017.60   30.95
  -2   0   8 1027.26   30.31
  -2   0   9    3.53    1.69
   2   0   9    2.51    1.07
   2   0   9    1.56    1.05
   2   0  -9    1.10    1.52
  -2   0   9    3.82    1.41
  -2   0   9    3.42    1.14
  -2   0   9    2.58    0.98
  -2   0   9    4.97    1.60
  -2   0   9    3.53    1.24
   2   0 -10  290.97   13.54
   2   0  10  265.47   10.39
   2   0  10  285.67   10.64
  -2   0  10  312.14   10.76
  -2   0  10  276.11   11.16
  -2   0  10  301.84   10.27
  -2   0  10  297.45   11.54
  -2   0  10  291.15   10.74
   2   0  11    4.02    1.36
   2   0 -11    3.65    1.94
   2   0  11    2.87    1.26
  -2   0  11    2.69    1.53
  -2   0  11    3.32    1.15
  -2   0  11    2.56    1.29
  -2   0  11    3.57    1.59
  -2   0  11    3.23    1.24
  -2   0  12   25.31    2.57
   2   0 -12   26.25    4.05
   2   0  12   27.02    2.57
   2   0  12   24.84    2.62
  -2   0 -12   26.31    3.83
  -2   0  12   19.72    2.79
  -2   0  12   21.45    2.22
  -2   0  12   28.05    3.20
  -2   0  12   24.95    2.52
   2   0  13   33.43    3.00
   2   0 -13   33.43    4.63
  -2   0 -13   25.94    4.08
   2   0  13   33.74    3.11
  -2   0  13   31.94    2.95
  -2   0  13   33.54    2.79
  -2   0  13   34.68    3.54
  -2   0  13   34.70    3.52
  -2   0  13   28.79    2.83
   2   0  14   19.34    2.46
   2   0  14   14.42    2.33
  -2   0 -14   13.63    3.06
   2   0 -14    8.59    2.71
  -2   0  14   18.36    2.21
  -2   0  14   15.17    2.32
  -2   0  14   19.15    2.87
  -2   0  14   16.46    2.69
  -2   0  14   16.64    2.34
   2   0  15    1.03    1.23
   2   0  15    1.38    1.37
  -2   0  15    1.74    1.18
  -2   0  15    0.79    1.33
  -2   0  15    1.86    1.36
   2   0  15    3.19    1.67
  -2   0  15    1.46    1.67
  -2   0  15    1.30    1.19
  -2   0  16  980.85   30.28
   2   0  16  855.50   29.95
  -2   0  16  917.34   29.30
  -2   0  16  901.16   31.82
  -2   0  16  857.43   31.37
   2   0  16  966.42   31.32
  -2   0  16  933.21   29.91
   2   0  17   18.14    2.79
  -2   0  17   15.77    2.64
  -2   0  17   16.99    3.23
  -2   0  17   14.64    2.29
   2   0  17   12.49    2.78
  -2   0  17   18.05    3.27
  -2   0  17   15.77    2.50
  -2   0  18   44.38    4.24
  -2   0  18   51.42    5.33
  -2   0  18   43.31    3.79
   2   0  18   34.98    4.36
  -2   0  18   45.00    4.88
  -2   0  18   40.76    3.91
  -2   0  19   76.45    5.75
  -2   0  19   71.50    5.13
  -2   0  19   70.67    6.69
  -2   0  19   63.34    6.17
   2   0  19   68.53    6.10
  -2   0  19   65.07    5.13
  -2   0  20   25.32    3.33
  -2   0  20   25.73    3.56
  -2   0  20   27.86    4.50
   2   0  20   18.53    3.57
  -2   0  20   18.68    3.80
  -2   0  20   18.87    2.95
  -2   0  21   75.63    6.11
  -2   0  21   77.17    7.63
  -2   0  21   84.72    5.83
   2   0  21   79.09    7.10
  -2   0  21   66.50    6.75
  -2   0  21   67.05    5.41
  -2   0  22   -0.65    2.59
  -2   0  22    2.18    1.80
  -2   0  22    0.43    1.63
  -2   0  22   -1.20    2.42
   2   0  22   -1.15    2.62
  -2   0  22    0.74    1.36
  -2   0  23    5.34    2.20
  -2   0  23    3.40    3.37
  -2   0  23    0.91    1.87
  -2   0  23   -1.26    2.75
   2   0  23    1.21    2.70
  -2   0  23    3.01    1.60
  -2   0  24    2.62    2.78
   2   0  24    0.63    2.69
  -2   0  24    1.88    2.29
  -2   0  24    0.80    1.78
  -2   0  24    1.41    3.07
   2   0  25   15.70    4.04
  -2   0  25   10.10    3.72
  -2   0  25    7.71    2.87
  -2   0  25    8.72    3.69
  -2   0  25   13.92    3.10
  -2   0  26  164.40   10.08
   2   0  26  166.94   11.63
  -2   0  26  172.41   12.22
  -2   0  26  148.30    9.07
   2   0  27   12.13    3.74
   2   0  27   22.31    3.50
   2   0  27   15.05    3.57
   2   0  28   50.47    5.54
   2   0  28   45.96    6.02
   2   0  28   33.83    4.33
   2   0  29    7.71    3.27
   2   0  29   12.76    3.19
   2   0  29   17.54    3.25
   2   0  30   46.14    5.78
   2   0  30   39.81    4.35
   2   0  30   37.94    4.71
   2   0  31    2.24    2.56
   2   0  31    1.44    1.92
   2   0  31    2.14    2.04
   2   0  32   12.77    2.52
   2   0  32   12.74    2.77
   2  -1  32   34.67    4.20
   2  -1  32   34.44    3.81
   2  -1  31   22.24    3.36
   2  -1  31   18.55    3.36
  -2   1  27  269.81   13.71
  -2   1  27  285.24   13.07
  -2   1  26   42.79    4.92
  -2   1  26   37.14    4.24
  -2   1  25  219.34   11.99
  -2   1  25  242.79   11.73
  -2   1  24   20.19    4.39
  -2   1  24   21.44    3.66
  -2   1  24   21.55    3.40
   2  -1  23  323.61   15.37
  -2   1  23  310.46   14.56
  -2   1  23  295.02   16.20
  -2   1  23  328.08   13.96
   2  -1  23  305.69   14.07
   2  -1  22  105.32    7.91
  -2   1  22  113.34    7.65
  -2   1  22  117.96    9.07
  -2   1  22  112.31    7.08
   2  -1  21  469.17   18.89
  -2   1  21  435.61   17.96
  -2   1  21  428.26   17.09
  -2   1  21  456.79   20.24
  -2   1  20   19.89    2.86
   2  -1  20   23.43    3.56
  -2   1  20   20.17    3.14
  -2   1  20   17.56    3.71
  -2   1  20   21.19    3.01
  -2   1  19  795.61   27.03
   2  -1  19  800.39   27.58
  -2   1  19  769.01   26.01
  -2   1  19  707.02   28.47
  -2   1  19  789.38   26.65
   2  -1  18   49.54    4.69
  -2   1  18   44.68    4.19
  -2   1  18   45.69    3.93
  -2   1  18   37.52    4.59
  -2   1  18   45.59    4.09
   2  -1  17  133.55    7.68
  -2   1  17  134.34    7.41
  -2   1  17  138.80    6.98
  -2   1  17  139.10    8.76
  -2   1  17  133.16    7.26
   2  -1  16  147.30    7.87
  -2   1  16  139.03    7.35
  -2   1  16  148.66    7.01
  -2   1  16  134.28    8.44
  -2   1  16  139.09    7.29
   2  -1  15  627.40   22.13
  -2   1  15  655.58   21.89
  -2   1  15  669.80   21.29
  -2   1  15  610.17   23.23
  -2   1  15  641.07   21.82
   2  -1  14   44.04    3.70
  -2   1  14   46.14    3.60
   2   1 -14   43.24    5.47
  -2   1  14   44.65    3.31
  -2   1  14   46.75    4.38
  -2   1  14   43.50    3.55
   2  -1  13  385.42   14.10
   2   1 -13  351.72   17.76
  -2   1  13  376.82   13.92
   2  -1  13  393.39   14.38
  -2   1  13  395.67   13.53
  -2   1  13  386.14   15.34
  -2   1  13  404.26   14.23
   2  -1  12  133.16    6.25
   2   1 -12  128.57    8.97
  -2   1  12  126.54    6.09
   2  -1  12  125.29    6.29
  -2   1  12  127.80    5.74
  -2   1  12  121.85    6.91
  -2   1  12  123.19    6.15
  -2   1  11 1035.05   31.55
   2  -1  11 1056.19   31.78
   2   1 -11 1060.02   36.40
   2  -1  11 1054.38   31.95
  -2   1  11 1040.89   31.08
  -2   1  11 1028.37   32.97
  -2   1  11 1000.01   31.74
   2  -1  10  124.28    5.60
  -2   1  10  114.75    5.41
   2  -1  10  120.31    5.68
   2   1 -10  118.99    7.96
  -2   1  10  120.44    5.16
  -2   1  10  115.51    6.25
  -2   1  10  123.15    5.74
   2  -1   9  267.15    9.85
   2  -1   9  272.25    9.76
   2   1  -9  261.97   12.63
  -2   1   9  263.52   10.56
  -2   1   9  276.48   10.02
   2  -1   8   14.78    1.76
   2  -1   8   12.30    1.55
   2   1  -8   14.20    2.66
  -2   1   8   10.81    1.83
  -2   1   8   12.72    1.63
   2   1  -7  491.00   20.10
  -2   1   7  652.93   20.50
  -2   1   6   98.64    5.53
   2   1  -6   92.90    5.95
   2   1  -5  586.47   20.53
  -2   1   5  600.33   19.58
  -2   1   4    5.10    1.34
   2   1  -4    6.10    1.66
  -2   1   3   10.63    1.39
   2   1  -3    9.40    1.82
  -2   1   2  679.91   20.84
   2   1  -2  698.22   22.40
  -2   1   1 1658.42   46.61
   2   1  -1 1559.86   48.15
  -2   1   0  385.92   12.35
   2  -1  -1 1703.45   48.97
   2  -1  -2  694.65   21.30
   2  -1  -3    5.41    1.24
   2  -1  -4    2.27    1.18
   2  -1  -5  609.08   20.13
   2  -1  -6  108.84    5.97
   2  -1  -7  667.48   22.86
   2  -1  -8    8.12    2.02
  -2  -1   8   10.67    1.60
  -2  -1   8   13.80    1.83
  -2  -1   8    9.89    1.37
  -2  -1   8   11.57    1.86
  -2  -1   8   10.70    1.53
   2   1   9  265.62    9.94
   2   1   9  265.93   10.04
  -2  -1   9  289.44   10.22
   2  -1  -9  291.63   12.71
  -2  -1   9  277.79   10.56
  -2  -1   9  281.49    9.82
  -2  -1   9  278.79   10.73
  -2  -1   9  267.15   10.08
  -2  -1  10  123.35    5.84
   2  -1 -10  127.32    7.92
  -2   1 -10  124.45    7.67
  -2  -1  10  123.90    5.50
  -2  -1  10  114.51    6.07
  -2  -1  10  122.03    6.29
  -2  -1  10  120.73    5.74
  -2   1 -11 1054.38   35.79
  -2  -1  11 1057.96   32.38
   2  -1 -11 1026.27   35.98
  -2  -1  11 1033.88   33.13
  -2  -1  11 1075.42   31.86
  -2  -1  11 1024.83   33.19
  -2  -1  11 1059.35   32.32
  -2  -1  12  131.20    6.42
  -2   1 -12  118.17    8.24
   2  -1 -12  122.23    8.69
  -2  -1  12  133.13    7.07
  -2  -1  12  128.09    5.97
  -2  -1  12  118.07    6.79
  -2  -1  12  126.57    6.25
   2  -1 -13  355.53   17.63
  -2   1 -13  361.42   17.28
  -2  -1  13  406.92   14.50
  -2  -1  13  412.32   13.94
  -2  -1  13  371.88   15.12
  -2  -1  13  401.08   15.39
   2   1  13  384.20   14.69
  -2  -1  13  380.01   14.17
  -2   1 -14   36.85    4.93
  -2  -1  14   40.65    3.56
   2  -1 -14   36.24    5.01
  -2  -1  14   44.94    4.30
  -2  -1  14   38.45    3.23
  -2  -1  14   40.44    4.03
   2   1  14   42.71    3.85
  -2  -1  14   39.86    3.43
  -2  -1  15  619.70   21.69
  -2  -1  15  634.04   21.05
  -2  -1  15  642.47   23.24
  -2  -1  15  609.31   22.92
   2   1  15  646.34   22.43
  -2  -1  15  617.69   21.46
  -2  -1  16  133.11    7.34
  -2  -1  16  134.96    6.87
  -2  -1  16  125.10    8.16
  -2  -1  16  124.14    8.01
   2   1  16  134.46    7.88
  -2  -1  16  133.57    7.18
  -2  -1  17  145.12    7.81
  -2  -1  17  119.93    8.29
  -2  -1  17  135.68    7.10
   2   1  17  137.33    8.27
  -2  -1  17  125.17    8.31
  -2  -1  17  140.39    7.48
  -2  -1  18   40.80    4.28
  -2  -1  18   45.78    5.08
  -2  -1  18   37.52    3.75
   2   1  18   46.71    4.87
  -2  -1  18   35.93    4.57
  -2  -1  18   42.80    4.05
  -2  -1  19  735.71   26.78
  -2  -1  19  759.53   26.05
  -2  -1  19  760.93   29.00
   2   1  19  763.15   28.14
  -2  -1  19  776.53   28.83
  -2  -1  19  789.83   26.62
  -2  -1  20   26.27    3.31
  -2  -1  20   20.52    4.09
  -2  -1  20   23.01    3.40
   2   1  20   22.93    3.96
  -2  -1  20   17.21    3.57
  -2  -1  20   24.14    3.28
  -2  -1  21  460.68   18.48
   2   1  21  422.67   18.11
  -2  -1  21  431.84   17.26
  -2  -1  21  435.34   20.33
   2   1  21  447.94   19.64
  -2  -1  21  463.06   20.26
  -2  -1  21  423.99   17.39
  -2  -1  22  120.80    8.25
   2   1  22  132.58    8.65
  -2  -1  22  124.08    7.78
  -2  -1  22  120.93    9.69
  -2  -1  22  110.94    9.08
   2   1  22  137.05    9.65
  -2  -1  22  124.51    7.73
   2   1  23  337.46   15.35
  -2  -1  23  306.18   14.83
  -2  -1  23  315.50   14.20
  -2  -1  23  308.52   17.10
   2   1  23  310.58   16.30
  -2  -1  23  310.04   16.54
  -2  -1  23  316.03   14.04
  -2  -1  24   21.19    4.75
  -2  -1  24   15.00    3.31
   2   1  24   18.24    3.67
  -2  -1  24   19.74    3.47
   2   1  24   23.31    4.58
  -2  -1  24   29.04    5.05
  -2  -1  24   19.77    3.21
   2   1  25  219.17   12.22
  -2  -1  25  214.96   11.97
   2   1  25  219.74   13.54
  -2  -1  25  211.98   13.57
  -2  -1  25  230.02   14.41
  -2  -1  25  208.62   11.24
   2   1  25  213.23   11.16
   2   1  26   38.59    5.75
  -2  -1  26   29.41    5.23
  -2  -1  26   36.58    5.93
   2   1  26   44.64    4.82
   2   1  26   43.16    5.33
   2   1  27  288.13   14.50
   2   1  27  279.45   15.88
   2   1  27  284.33   13.51
   2   1  28    7.88    3.46
   2   1  28   15.79    3.26
   2   1  28   14.57    3.41
   2   1  29   79.21    6.84
   2   1  29   85.26    7.95
   2   1  29   87.79    6.49
   2   1  30    2.38    2.32
   2   1  30    2.27    2.26
   2   1  30    5.30    2.05
   2   1  31   22.43    3.84
   2   1  31   22.14    3.61
   2   1  31   16.48    3.01
   2   1  32   39.44    4.34
   2   1  32   40.00    3.99
   2  -2  32   25.60    4.06
   2  -2  31    6.14    2.72
   2  -2  30    1.81    2.20
   2  -2  29  159.63   10.10
   2  -2  29  154.62    9.29
   2  -2  28   12.56    3.93
   2  -2  28    8.95    2.48
   2  -2  28   16.35    3.74
  -2   2  27   42.90    4.79
   2  -2  27   44.29    6.05
   2  -2  27   39.20    5.11
   2  -2  27   36.06    4.47
  -2   2  27   38.04    4.23
   2  -2  26   28.73    5.08
   2  -2  26   24.86    3.80
  -2   2  26   22.15    3.48
   2  -2  26   18.40    3.81
  -2   2  26   18.88    3.53
   2  -2  25    5.26    3.14
  -2   2  25    3.79    1.82
  -2   2  25    4.29    3.49
  -2   2  25    5.83    2.10
   2  -2  25    5.17    2.26
   2  -2  25    6.77    3.00
  -2   2  24  536.16   21.15
   2  -2  24  560.39   22.38
   2  -2  24  553.06   23.81
   2  -2  24  514.50   20.85
  -2   2  24  513.41   24.06
  -2   2  24  523.91   20.18
  -2   2  23   47.70    4.77
   2  -2  23   30.61    5.12
   2  -2  23   38.18    4.53
  -2   2  23   32.13    3.87
  -2   2  23   28.32    5.01
   2  -2  23   34.36    4.56
   2  -2  22    1.74    2.33
  -2   2  22   -0.64    3.13
  -2   2  22    2.85    2.10
   2  -2  22    3.11    2.04
  -2   2  22    4.42    1.99
   2  -2  22    2.35    2.33
  -2   2  21   33.27    3.95
   2  -2  21   25.11    4.27
  -2   2  21   27.30    4.57
   2  -2  21   30.89    3.83
  -2   2  21   29.98    3.51
   2  -2  21   31.57    4.34
  -2   2  20  122.65    7.47
   2  -2  20  117.52    7.82
   2  -2  20  112.17    8.45
  -2   2  20  116.07    8.85
  -2   2  20  122.74    6.96
   2  -2  19  111.86    7.34
  -2   2  19  112.46    6.95
   2  -2  19   97.78    7.52
  -2   2  19  109.18    6.34
  -2   2  19  109.03    8.50
   2  -2  18   45.90    4.54
  -2   2  18   53.57    4.42
  -2   2  18   44.07    3.78
  -2   2  18   39.45    4.92
   2  -2  18   35.92    4.43
  -2   2  17   19.19    2.76
   2  -2  17   20.90    3.09
  -2   2  17   26.50    3.80
  -2   2  17   18.28    2.43
   2  -2  17   23.24    3.46
  -2   2  17   18.33    2.58
  -2   2  16 1033.84   31.34
  -2   2  16  952.33   33.85
   2  -2  16 1011.69   32.81
  -2   2  16 1022.99   32.04
  -2   2  16  948.45   31.85
  -2   2  15  176.78    9.57
  -2   2  15  166.13    7.56
  -2   2  15  175.69    8.16
   2  -2  15  171.75    8.52
  -2   2  15  177.96    8.25
  -2   2  14  124.28    7.53
  -2   2  14  130.34    6.13
   2  -2  14  139.19    7.09
  -2   2  14  133.89    6.55
   2   2 -14  123.25    9.86
  -2   2  14  128.23    6.65
  -2   2  13   82.82    4.31
  -2   2  13   70.74    5.19
   2   2 -13   71.23    7.12
   2  -2  13   79.70    4.97
  -2   2  13   82.07    4.66
  -2   2  13   75.63    4.72
  -2   2  12    0.30    0.89
  -2   2  12    0.18    1.02
  -2   2  12    1.94    1.60
   2  -2  12   -0.65    1.17
   2   2 -12    1.11    1.80
  -2   2  12    0.63    1.11
  -2   2  11  128.60    5.54
  -2   2  11  133.53    6.86
   2  -2  11  133.74    6.31
  -2   2  11  139.16    5.99
   2   2 -11  121.79    8.70
  -2   2  11  126.05    6.18
  -2   2  10   28.13    2.88
  -2   2  10   36.67    2.38
   2  -2  10   35.06    2.87
   2   2 -10   29.16    4.02
   2  -2  10   33.99    2.74
  -2   2  10   30.96    2.69
  -2   2   9  116.50    5.70
   2  -2   9  110.22    5.05
   2   2  -9  110.01    7.52
   2  -2   9  114.08    5.22
  -2   2   9   97.07    5.08
  -2   2   8  358.52   12.33
   2  -2   8  332.68   11.58
   2  -2   8  342.62   11.77
   2   2  -8  351.67   14.99
  -2   2   8  352.46   12.09
   2   2  -7   74.74    5.60
   2   2  -6   95.71    6.22
   2   2  -5   58.31    4.60
  -2   2   4  502.55   16.22
   2   2  -4  494.35   18.16
  -2   2   3  466.06   15.02
   2   2  -3  506.06   17.59
  -2   2   2 5134.40  141.07
   2   2  -2 4841.36  143.86
  -2  -2  -1 1596.15   51.67
  -2   2   1 1769.48   48.80
   2   2  -1 1719.66   51.92
  -2  -2   0   29.91    2.98
  -2   2   0   33.07    1.56
   2  -2  -1 1721.06   48.03
  -2  -2   1 1618.37   50.54
  -2  -2   2 4962.99  146.07
   2  -2  -2 5238.59  143.91
  -2  -2   3  482.12   17.15
   2  -2  -3  487.57   15.47
  -2  -2   4  467.01   17.27
   2  -2  -4  500.12   16.06
   2  -2  -5   57.05    3.74
  -2  -2   5   64.49    4.63
   2  -2  -6  111.16    5.86
  -2  -2   6   96.79    6.16
  -2   2  -7   67.42    4.62
   2  -2  -7   78.28    4.98
  -2  -2   7   61.70    4.90
  -2  -2   8  327.75   11.89
  -2  -2   8  369.69   14.66
   2  -2  -8  333.66   13.66
  -2   2  -8  343.64   13.55
  -2  -2   8  320.76   11.62
  -2   2  -9  115.73    7.06
   2  -2  -9  112.93    7.09
  -2  -2   9  118.21    5.65
  -2  -2   9  108.37    7.28
  -2  -2   9  125.40    5.43
  -2  -2   9  121.01    5.88
  -2  -2   9  116.67    5.88
  -2  -2   9  108.28    5.39
  -2  -2  10   34.35    2.89
  -2   2 -10   37.41    3.92
  -2  -2  10   36.97    4.30
   2  -2 -10   32.02    3.82
  -2  -2  10   29.70    2.94
  -2  -2  10   31.10    2.57
  -2  -2  10   33.65    3.13
  -2  -2  10   32.44    2.80
  -2  -2  11  137.75    6.54
  -2  -2  11  143.70    9.11
   2  -2 -11  138.27    8.72
  -2   2 -11  143.12    8.53
  -2  -2  11  135.04    6.92
  -2  -2  11  135.65    6.13
  -2  -2  11  133.58    6.93
   2   2  11  121.17    6.28
  -2  -2  11  128.85    6.32
   2   2  12    0.40    1.13
   2  -2 -12    0.49    1.26
  -2   2 -12    1.38    1.34
   2   2  12    0.86    1.22
  -2  -2  12   -1.57    1.44
  -2  -2  12   -1.68    1.52
  -2  -2  12    1.13    1.09
  -2  -2  12    0.90    1.18
  -2  -2  12    0.28    1.33
   2   2  12    0.23    1.09
  -2  -2  12   -0.22    1.13
   2  -2 -13   79.70    7.09
   2   2  13   77.33    4.74
  -2   2 -13   73.01    6.51
   2   2  13   78.93    4.96
  -2  -2  13   82.77    5.14
  -2  -2  13   82.12    4.72
  -2  -2  13   73.44    5.44
  -2  -2  13   86.15    5.74
   2   2  13   76.33    5.10
  -2  -2  13   83.44    4.99
   2   2  14  134.13    6.90
   2  -2 -14  127.73    9.64
  -2  -2  14  146.33    7.45
   2   2  14  142.13    7.21
  -2   2 -14  141.01    9.62
  -2  -2  14  140.86    8.04
  -2  -2  14  140.59    6.85
   2   2  14  138.70    7.49
  -2  -2  14  141.49    7.90
  -2  -2  14  151.76    7.38
   2   2  15  170.56    8.19
  -2  -2  15  163.01    8.30
   2   2  15  174.38    8.41
  -2  -2  15  174.28    9.54
  -2  -2  15  168.55    7.92
  -2  -2  15  165.83    9.13
   2   2  15  188.05    9.07
  -2  -2  15  161.14    8.15
   2   2  16  953.14   31.51
  -2  -2  16  953.34   32.03
   2   2  16  970.91   31.90
  -2  -2  16  971.92   33.84
  -2  -2  16  991.70   31.45
   2   2  16  985.66   32.75
  -2  -2  16  987.23   33.52
  -2  -2  16 1024.82   32.07
   2   2  17   23.93    3.15
   2   2  17   25.60    3.08
  -2  -2  17   26.81    3.39
  -2  -2  17   24.56    3.86
  -2  -2  17   28.94    3.18
  -2  -2  17   18.69    3.31
   2   2  17   23.32    3.49
  -2  -2  17   15.74    2.59
   2   2  18   44.91    4.41
  -2  -2  18   39.98    4.17
  -2  -2  18   42.38    5.14
  -2  -2  18   37.54    3.78
   2   2  18   41.11    4.48
  -2  -2  18   40.44    4.72
  -2  -2  18   44.30    4.15
  -2  -2  19  114.27    7.30
   2   2  19  112.22    7.17
  -2  -2  19  107.95    6.70
  -2  -2  19   90.96    7.75
   2   2  19   96.06    7.41
  -2  -2  19  116.42    8.40
  -2  -2  19  108.97    6.94
  -2  -2  20  133.95    8.26
   2   2  20  111.74    7.58
  -2  -2  20  117.18    7.27
  -2  -2  20  125.30    9.22
   2   2  20  129.71    8.72
  -2  -2  20  108.17    8.56
  -2  -2  20  119.28    7.50
   2   2  21   34.45    4.32
  -2  -2  21   32.36    4.24
  -2  -2  21   33.30    3.98
  -2  -2  21   33.68    5.03
  -2  -2  21   36.99    5.32
   2   2  21   33.42    4.70
  -2  -2  21   25.63    3.58
  -2  -2  22    2.60    2.83
  -2  -2  22    0.78    1.70
   2   2  22    3.14    2.51
  -2  -2  22    1.84    2.10
  -2  -2  22    3.66    2.91
   2   2  22    5.64    2.52
  -2  -2  22   -0.40    1.51
  -2  -2  23   39.45    4.85
   2   2  23   43.80    5.01
  -2  -2  23   48.25    6.16
  -2  -2  23   41.71    4.54
  -2  -2  23   37.70    5.38
   2   2  23   26.79    4.76
  -2  -2  23   34.83    4.19
   2   2  24  550.91   21.94
  -2  -2  24  554.98   22.14
  -2  -2  24  511.45   23.99
  -2  -2  24  514.32   20.79
  -2  -2  24  515.21   23.57
   2   2  24  548.87   23.61
  -2  -2  24  526.40   20.60
   2   2  25    5.99    2.84
  -2  -2  25    1.44    2.98
   2   2  25    7.09    3.14
  -2  -2  25    4.74    3.02
  -2  -2  25    7.47    2.24
  -2  -2  26   25.24    4.87
   2   2  26   15.05    4.01
   2   2  26   21.69    3.51
   2   2  26   16.18    3.49
   2   2  27   50.20    5.47
   2   2  27   38.47    5.77
   2   2  27   42.36    4.64
   2   2  28   11.50    3.49
   2   2  28   16.67    3.53
   2   2  28   13.78    3.03
   2   2  29  146.89    9.36
   2   2  29  131.56   10.02
   2   2  29  152.20    8.73
   2   2  30    5.73    2.50
   2   2  30    5.12    2.14
   2   2  30    6.59    2.53
   2   2  31    2.81    1.96
   2   2  31    5.38    2.02
   2   2  32   20.77    3.24
   2   2  32   18.11    2.70
   2  -3  32    9.76    2.94
   2  -3  31   40.58    4.68
   2  -3  31   40.85    5.19
   2  -3  31   44.14    4.46
   2  -3  30    4.74    2.65
   2  -3  30   10.02    2.88
   2  -3  30    3.48    2.00
   2  -3  29  238.11   12.72
   2  -3  29  254.62   14.31
   2  -3  29  235.37   11.84
   2  -3  28   20.84    4.49
   2  -3  28   24.21    3.87
   2  -3  28   25.30    4.17
   2  -3  27   93.99    7.61
  -2   3  27   78.78    6.37
   2  -3  27   87.61    8.22
   2  -3  27   88.50    6.74
  -2   3  27   76.21    5.80
   2  -3  26  161.65   10.13
  -2   3  26  132.00    8.56
   2  -3  26  161.39   11.20
  -2   3  26  144.84    8.36
   2  -3  26  144.22    9.00
   2  -3  25  115.44    8.70
  -2   3  25  128.87    8.29
   2  -3  25  131.83   10.16
   2  -3  25  136.59    8.50
  -2   3  25  135.12    7.83
  -2   3  25  125.63   10.21
  -2   3  24  121.26    7.82
   2  -3  24  106.60    8.16
   2  -3  24  129.80    9.69
  -2   3  24  116.04    9.85
  -2   3  24  115.62    7.16
   2  -3  24  110.30    7.72
  -2   3  23  135.27    8.41
   2  -3  23  140.02    9.36
   2  -3  23  154.42   10.67
   2  -3  23  149.84    8.84
  -2   3  23  142.81    7.99
  -2   3  23  126.01   10.21
   2  -3  22   12.88    3.79
  -2   3  22    8.53    2.23
   2  -3  22    7.08    2.31
  -2   3  22    9.59    3.47
  -2   3  22    8.66    2.58
   2  -3  22    7.14    2.75
  -2   3  21  139.75    8.25
   2  -3  21  140.72    8.97
   2  -3  21  130.68    9.43
  -2   3  21  133.26    9.96
  -2   3  21  143.99    7.77
   2  -3  21  145.64    8.41
   2  -3  20  129.82    8.32
  -2   3  20  119.84    7.42
   2  -3  20  112.59    8.55
   2  -3  20  127.45    7.60
  -2   3  20  122.94    6.88
  -2   3  20  115.95    8.85
   2  -3  19  231.57   11.41
  -2   3  19  222.10   10.54
   2  -3  19  217.63   12.00
  -2   3  19  198.78   11.83
  -2   3  19  243.43   10.20
   2  -3  19  214.63   10.48
  -2   3  19  221.82   12.58
   2  -3  18    5.70    2.23
  -2   3  18   10.84    2.84
  -2   3  18    9.83    2.88
   2  -3  18    6.31    2.38
  -2   3  18    8.90    2.17
  -2   3  18    7.11    1.78
   2  -3  17  388.15   15.88
  -2   3  17  405.68   15.19
   2  -3  17  390.87   16.57
  -2   3  17  374.82   16.77
  -2   3  17  392.14   14.40
  -2   3  17  393.20   17.18
   2  -3  16  224.56   10.45
  -2   3  16  239.16    9.97
  -2   3  16  197.37   10.98
  -2   3  16  228.78    9.31
  -2   3  16  210.01   11.13
  -2   3  15  123.47    6.32
   2  -3  15  118.80    6.75
  -2   3  15  107.31    7.21
  -2   3  15  117.17    5.79
  -2   3  15  114.39    7.39
   2  -3  15  106.78    5.28
   2  -3  14   95.38    5.78
  -2   3  14   95.57    5.28
  -2   3  14   92.00    6.32
  -2   3  14   97.27    4.96
  -2   3  14  106.08    6.76
   2  -3  14   94.49    4.69
   2  -3  13  346.03   13.10
  -2   3  13  332.77   12.33
  -2   3  13  312.93   13.76
  -2   3  13  330.52   13.77
  -2   3  13  355.90   12.00
   2  -3  12  477.20   16.44
  -2   3  12  467.36   15.71
  -2   3  12  453.26   17.31
  -2   3  12  464.40   17.25
  -2   3  12  468.38   15.25
  -2   3  11  339.03   11.41
   2  -3  11  315.70   11.85
  -2   3  11  312.02   12.74
  -2   3  11  306.26   12.47
  -2   3  10  425.69   15.19
   2  -3  10  417.34   14.45
  -2   3   9  196.69    8.28
   2  -3   9  195.50    7.73
  -2   3   8  454.00   15.19
   2  -3   8  440.94   14.56
  -2  -3  -1   22.38    2.94
  -2  -3   0 4510.89  129.34
  -2  -3   1   33.49    3.39
  -2   3  -2  467.88   13.86
  -2  -3   2  479.99   17.27
   2  -3  -2  477.69   14.20
  -2  -3   3  428.97   16.43
  -2   3  -3  449.37   13.80
   2  -3  -3  454.09   14.18
  -2   3  -4  114.37    4.86
   2  -3  -4  109.41    5.07
  -2  -3   4  112.27    6.59
  -2  -3   5  514.67   18.75
  -2   3  -5  504.78   16.57
   2  -3  -5  504.91   16.92
  -2   3  -6 1262.76   37.69
   2  -3  -6 1225.14   38.02
  -2  -3   6 1237.77   39.63
  -2  -3   7   85.85    6.08
  -2   3  -7   91.86    5.27
   2  -3  -7   86.10    5.32
  -2  -3   8  482.73   16.11
   2  -3  -8  480.91   17.81
  -2  -3   8  485.39   18.86
  -2   3  -8  459.35   17.29
  -2   3  -9  210.79    9.95
   2  -3  -9  202.80   10.14
  -2  -3   9  200.75   10.74
  -2  -3   9  216.12    8.77
   2   3   9  217.96    8.29
  -2  -3   9  194.83    8.50
  -2  -3   9  197.83    8.29
  -2   3 -10  438.14   17.15
   2  -3 -10  433.33   17.62
  -2  -3  10  431.55   18.26
  -2  -3  10  427.08   15.43
  -2  -3  10  448.73   15.43
   2   3  10  404.48   14.59
  -2  -3  10  412.68   14.83
   2  -3 -11  327.02   14.87
  -2  -3  11  304.79   15.02
   2   3  11  306.03   11.67
   2   3  11  315.68   11.60
  -2   3 -11  324.77   14.31
  -2  -3  11  315.04   12.50
   2   3  11  312.82   11.92
  -2  -3  11  309.73   12.35
  -2  -3  11  303.22   11.81
   2  -3 -12  447.60   19.87
  -2   3 -12  474.05   19.66
  -2  -3  12  491.52   20.97
   2   3  12  489.79   16.54
   2   3  12  474.23   16.59
  -2  -3  12  478.66   17.53
   2   3  12  467.27   16.78
  -2  -3  12  497.25   17.61
  -2  -3  12  446.14   16.53
   2  -3 -13  348.53   16.69
  -2   3 -13  338.40   15.98
   2   3  13  327.83   12.79
   2   3  13  310.47   12.50
  -2  -3  13  352.97   17.17
  -2  -3  13  333.58   13.84
   2   3  13  356.85   13.39
  -2  -3  13  340.20   13.78
  -2  -3  13  327.37   12.85
   2   3  14  103.55    5.89
   2   3  14  105.21    6.04
  -2   3 -14   94.06    7.90
   2  -3 -14  103.87    8.59
  -2  -3  14   97.90    6.64
   2   3  14  107.14    6.33
  -2  -3  14  117.26    7.02
  -2  -3  14  112.49    6.25
   2   3  15  122.03    6.51
   2   3  15  112.60    6.54
  -2  -3  15  107.89    7.30
  -2  -3  15  116.02    7.36
   2   3  15  119.83    7.03
  -2  -3  15  111.40    6.52
   2   3  16  212.36    9.80
   2   3  16  226.80   10.21
  -2  -3  16  212.29   11.22
   2   3  16  214.54   10.53
  -2  -3  16  223.06   11.20
  -2  -3  16  208.39   10.00
   2   3  17  375.38   15.35
   2   3  17  391.54   15.24
  -2  -3  17  371.27   16.84
   2   3  17  384.45   16.18
  -2  -3  17  388.58   16.84
  -2  -3  17  401.56   15.65
   2   3  18    8.42    2.17
   2   3  18    9.80    2.26
  -2  -3  18   10.50    2.85
  -2  -3  18    4.52    2.36
  -2  -3  18    5.22    2.41
   2   3  18    7.61    2.26
  -2  -3  18    7.02    2.01
   2   3  19  248.32   11.46
  -2  -3  19  223.69   11.38
  -2  -3  19  200.58   10.39
  -2  -3  19  215.64   12.52
   2   3  19  233.56   12.03
  -2  -3  19  219.72   12.32
  -2  -3  19  229.06   11.07
  -2  -3  20  124.83    8.16
   2   3  20  111.69    7.55
  -2  -3  20  114.16    7.31
  -2  -3  20  129.87    9.41
  -2  -3  20  122.19    9.02
   2   3  20  121.12    8.45
  -2  -3  20  108.71    7.31
  -2  -3  21  140.21    8.98
   2   3  21  130.46    8.40
  -2  -3  21  120.08    9.51
  -2  -3  21  127.48    8.09
   2   3  21  142.25    9.48
  -2  -3  21  129.10    9.54
  -2  -3  21  141.09    8.40
  -2  -3  22    5.72    2.63
  -2  -3  22    5.68    2.63
   2   3  22    4.91    2.39
  -2  -3  22    9.11    3.24
  -2  -3  22    9.81    3.38
   2   3  22    4.48    2.32
  -2  -3  22    8.72    2.56
   2   3  23  142.11    9.12
  -2  -3  23  153.69    9.72
  -2  -3  23  152.54   11.09
  -2  -3  23  122.52    8.32
   2   3  23  156.44   10.47
  -2  -3  23  157.15   10.91
  -2  -3  23  141.69    8.74
   2   3  24  111.15    8.00
  -2  -3  24  107.73    9.34
   2   3  24   99.41    8.49
  -2  -3  24  102.90    9.09
  -2  -3  24  114.39    7.57
   2   3  25  122.10    8.65
  -2  -3  25  128.83   10.44
   2   3  25  151.52   10.52
  -2  -3  25  121.62    9.92
  -2  -3  25  130.01    8.19
   2   3  26  147.32    9.53
   2   3  26  141.92   10.41
  -2  -3  26  144.25   10.77
   2   3  26  153.21    9.01
   2   3  27   72.15    6.57
   2   3  27   84.91    8.06
  -2  -3  27   75.02    7.72
   2   3  27   87.94    6.56
   2   3  28   36.05    5.08
   2   3  28   24.60    4.00
   2   3  28   31.28    3.93
   2   3  29  221.30   11.76
   2   3  29  220.08   12.93
   2   3  29  223.38   11.03
   2   3  30    6.60    2.12
   2   3  30    7.10    2.51
   2   3  31   32.91    3.97
   2   3  31   33.50    3.67
   2  -4  32  104.00    7.69
   2  -4  31   25.11    4.27
   2   4 -31   27.89    3.45
   2  -4  30   10.31    3.07
   2  -4  30   10.14    2.80
   2  -4  30   13.89    2.75
   2  -4  29    7.35    3.28
   2  -4  29    8.04    2.49
   2  -4  29   11.83    3.20
   2  -4  28   24.25    4.53
   2  -4  28   21.89    4.02
   2  -4  28   25.23    3.83
   2  -4  27    9.13    3.65
   2  -4  27    9.50    2.92
   2  -4  27    8.21    2.92
  -2   4  27    6.36    2.10
  -2   4  27    7.32    2.09
   2  -4  26   99.48    7.82
  -2   4  26   85.85    6.52
   2  -4  26   95.23    8.55
  -2   4  26   97.69    6.33
   2  -4  26   98.59    7.13
  -2   4  25   37.12    4.25
   2  -4  25   36.55    5.48
  -2   4  25   36.07    3.85
   2  -4  25   35.61    4.52
   2  -4  25   26.03    4.35
   2  -4  24  237.29   12.66
  -2   4  24  214.92   11.02
   2  -4  24  232.80   13.71
  -2   4  24  207.18   10.30
  -2   4  24  230.57   13.98
   2  -4  24  225.88   11.64
  -2   4  23  188.90   10.09
   2  -4  23  187.14   11.13
   2  -4  23  190.29   12.26
  -2   4  23  194.42    9.58
   2  -4  23  210.60   10.84
  -2   4  23  203.73   12.77
  -2   4  22   56.96    5.07
   2  -4  22   54.42    5.58
   2  -4  22   55.51    6.16
   2  -4  22   59.80    5.32
  -2   4  22   61.83    4.82
  -2   4  22   53.57    6.40
  -2   4  21   53.84    4.83
   2  -4  21   56.41    5.51
   2  -4  21   53.63    6.19
   2  -4  21   56.88    5.20
  -2   4  21   57.72    6.42
  -2   4  21   60.25    4.61
   2  -4  20   22.05    3.96
   2  -4  20   19.07    3.36
  -2   4  20   11.89    3.34
  -2   4  20   20.42    3.01
  -2   4  20   17.80    2.60
   2  -4  20   17.20    2.83
   2  -4  19    6.32    2.69
  -2   4  19    7.67    1.87
  -2   4  19    8.49    3.02
   2  -4  19    8.06    2.30
  -2   4  19    8.63    2.14
   2  -4  19    6.50    2.25
   2  -4  18  213.74   10.64
  -2   4  18  193.39    9.53
   2  -4  18  213.75   11.45
   2  -4  18  224.43   10.17
  -2   4  18  212.88    9.24
  -2   4  18  195.16   11.45
  -2   4  17   31.36    4.24
  -2   4  17   31.63    2.99
   2  -4  17   30.06    3.28
   2  -4  17   28.74    3.57
  -2   4  17   31.65    3.30
  -2   4  16  764.60   24.19
   2  -4  16  775.56   25.17
  -2   4  16  749.77   27.20
   2  -4  16  753.63   25.92
  -2   4  16  730.13   24.72
   2  -4  16  730.78   23.94
  -2   4  15  451.15   18.49
  -2   4  15  490.21   16.17
   2  -4  15  486.87   16.99
  -2   4  15  468.59   16.63
   2  -4  15  437.64   17.31
   2  -4  15  478.36   16.09
   2  -4  14  140.77    7.37
  -2   4  14  152.93    6.91
  -2   4  14  145.24    6.40
  -2   4  14  126.86    7.84
   2   4 -13  203.16   13.14
   2  -4  13  204.66    9.22
  -2   4  13  220.14    8.72
  -2   4  13  198.24    9.91
  -2   4  13  223.86    8.32
   2   4 -12  158.38   11.00
  -2   4  12  164.18    6.94
   2  -4  12  163.85    7.60
  -2   4  12  169.11    8.31
   2  -4  11  125.37    6.10
  -2   4  11  129.57    5.58
   2   4 -11  117.23    8.99
  -2   4  11  120.45    6.60
   2  -4  10  191.36    7.82
   2   4 -10  178.04   11.08
  -2   4  10  187.45    8.41
   2  -4   9  726.20   23.07
   2   4  -9  760.36   28.16
  -2   4   9  750.33   23.88
   2  -4   8  477.10   15.98
   2   4  -8  530.10   20.89
  -2   4   8  511.03   16.73
   2   4  -7  498.60   20.11
   2   4  -6 1178.67   39.36
   2   4  -5 1444.99   46.55
   2   4  -4   52.28    4.91
   2   4  -3  139.42    8.18
   2   4  -2  120.81    7.35
  -2  -4  -1  542.19   20.12
  -2  -4   0   53.50    4.60
  -2  -4   1  511.80   18.99
  -2  -4   2  144.09    7.88
   2  -4  -2  150.68    4.94
   2  -4  -3  147.64    5.70
  -2   4  -3  156.48    5.60
   2  -4  -4   55.94    3.24
  -2   4  -4   56.91    3.09
  -2  -4   4   48.18    4.47
   2  -4  -5 1539.00   45.60
  -2   4  -5 1542.34   45.24
  -2  -4   5 1538.32   48.19
  -2   4  -6 1079.43   33.80
   2  -4  -6 1078.84   34.34
   2  -4  -7  524.05   18.85
  -2  -4   7  541.14   20.45
  -2   4  -7  527.89   18.24
   2  -4  -8  536.41   19.24
  -2  -4   8  539.85   20.60
  -2   4  -8  525.00   18.52
  -2  -4   8  492.13   17.17
  -2  -4   9  775.85   27.85
  -2   4  -9  747.54   25.80
   2  -4  -9  742.23   26.42
  -2  -4   9  742.09   24.27
   2   4   9  742.77   23.52
  -2  -4   9  773.05   24.18
  -2  -4  10  196.99   11.02
   2  -4 -10  208.75   10.65
  -2   4 -10  188.17    9.68
  -2  -4  10  179.37    8.41
   2   4  10  190.20    7.94
  -2  -4  10  178.79    8.23
  -2  -4  10  181.15    8.07
  -2  -4  11  129.30    8.98
  -2  -4  11  131.74    6.65
   2  -4 -11  122.16    8.29
  -2   4 -11  126.43    7.95
  -2  -4  11  121.96    6.79
  -2  -4  11  122.80    6.10
  -2  -4  11  131.38    6.77
   2   4  11  117.38    6.15
  -2  -4  11  136.78    6.60
  -2   4 -12  185.55   10.25
  -2  -4  12  159.89    7.99
   2   4  12  173.54    7.80
   2  -4 -12  173.48   10.61
   2   4  12  152.90    7.41
  -2  -4  12  189.34   11.45
  -2  -4  12  156.76    7.49
  -2  -4  12  169.41    8.49
   2   4  12  159.23    7.75
  -2  -4  12  162.80    8.22
  -2  -4  12  171.22    7.93
   2   4  13  200.35    8.90
   2  -4 -13  218.15   12.60
   2   4  13  202.88    9.11
  -2  -4  13  198.84   12.57
  -2   4 -13  219.43   11.97
  -2  -4  13  216.32    9.61
  -2  -4  13  207.41    9.03
  -2  -4  13  185.65    9.66
   2   4  13  210.45    9.38
  -2  -4  13  218.83   10.04
  -2  -4  13  199.47    9.23
  -2  -4  14  148.23    7.90
   2   4  14  151.15    7.40
   2  -4 -14  151.74   10.76
  -2   4 -14  162.45   10.44
   2   4  14  149.68    7.60
  -2  -4  14  132.83    8.13
  -2  -4  14  149.95    7.48
   2   4  14  151.27    7.88
  -2  -4  14  139.46    8.08
  -2  -4  14  147.28    7.64
   2   4  15  471.60   16.89
   2   4  15  451.20   16.95
  -2  -4  15  444.83   17.33
  -2  -4  15  473.71   18.58
  -2  -4  15  421.99   16.54
   2   4  15  442.82   17.30
  -2  -4  15  486.33   18.35
  -2  -4  15  470.97   17.36
   2   4  16  709.79   24.90
   2   4  16  722.97   25.25
  -2  -4  16  761.71   27.29
   2   4  16  742.51   26.01
  -2  -4  16  735.84   26.69
  -2  -4  16  784.94   25.88
   2   4  17   31.12    3.59
   2   4  17   28.42    3.30
  -2  -4  17   26.37    3.97
   2   4  17   33.01    3.95
  -2  -4  17   22.98    3.53
  -2  -4  17   25.53    3.36
   2   4  18  206.57   10.04
   2   4  18  200.09   10.22
  -2  -4  18  212.35   11.87
  -2  -4  18  221.42   11.74
   2   4  18  203.95   10.88
  -2  -4  18  192.27   10.14
   2   4  19    3.78    2.02
  -2  -4  19   11.53    3.39
   2   4  19    4.56    2.23
  -2  -4  19    8.23    2.84
  -2  -4  19    7.78    2.25
   2   4  20   17.22    3.18
  -2  -4  20   21.06    4.10
  -2  -4  20   20.84    3.84
   2   4  20   15.21    3.35
  -2  -4  20   15.09    2.88
   2   4  21   61.65    5.56
  -2  -4  21   53.86    6.30
   2   4  21   60.23    6.20
  -2  -4  21   51.22    5.92
  -2  -4  21   61.29    5.51
   2   4  22   56.71    5.54
  -2  -4  22   64.26    7.05
  -2  -4  22   50.64    6.06
   2   4  22   64.01    6.35
  -2  -4  22   55.85    5.40
   2   4  23  177.87   10.39
  -2  -4  23  185.51   12.38
  -2  -4  23  173.68   11.76
   2   4  23  203.52   11.95
  -2  -4  23  184.13   10.34
   2   4  24  227.18   12.24
  -2  -4  24  236.37   14.38
   2   4  24  222.29   13.25
  -2  -4  24  238.92   14.06
  -2  -4  24  242.03   12.11
   2   4  25   31.54    4.40
  -2  -4  25   30.28    5.12
   2   4  25   25.39    4.48
  -2  -4  25   32.67    4.09
   2   4  26   97.31    7.44
   2   4  26   91.93    6.61
  -2  -4  26   86.62    8.15
   2   4  26   94.95    8.15
  -2  -4  26   87.55    6.55
   2   4  27    2.97    2.47
  -2  -4  27   16.06    3.96
   2   4  27   10.45    2.60
   2   4  27    9.83    2.89
   2   4  28   27.47    4.07
   2   4  28   18.98    3.20
   2   4  29    8.91    2.72
   2   4  29    8.42    2.35
   2   4  30   11.67    2.46
   2   4  30    7.02    2.26
  -2   4 -31   22.49    3.34
   2   4  31   26.87    3.52
   2   4  31   20.70    2.85
   2  -5  31   -0.49    1.93
   2   5 -31   -0.98    1.38
   2   5 -30   12.57    2.79
   2  -5  30    6.56    2.83
   2   5 -29    3.10    2.07
   2  -5  29    5.30    2.75
   2  -5  28  124.08    8.60
   2  -5  28  106.95    9.03
   2  -5  28  135.61    8.29
   2  -5  27    5.73    2.98
   2  -5  27    4.69    2.50
   2  -5  27    5.03    2.59
   2  -5  26   32.93    5.25
   2  -5  26   28.22    3.87
   2  -5  26   29.79    4.47
  -2   5  25   46.89    4.57
   2  -5  25   60.36    6.06
   2  -5  25   51.04    6.30
  -2   5  25   47.94    4.28
   2  -5  25   65.98    5.65
   2  -5  24  271.86   13.59
  -2   5  24  215.94   11.01
   2  -5  24  247.28   14.30
  -2   5  24  237.06   10.71
   2  -5  24  245.70   12.23
  -2   5  23   60.93    5.15
   2  -5  23   60.92    6.04
   2  -5  23   63.83    6.78
   2  -5  23   73.44    5.96
  -2   5  23   57.34    4.60
   2  -5  22  144.36    9.36
  -2   5  22  145.06    8.19
   2  -5  22  156.53   10.59
  -2   5  22  141.15    7.62
   2  -5  22  160.83    9.08
  -2   5  22  145.76   10.57
   2  -5  21  111.65    7.85
  -2   5  21  113.22    6.88
   2  -5  21  109.39    8.63
   2  -5  21  118.52    7.48
  -2   5  21   92.49    8.16
  -2   5  21  105.69    6.25
   2  -5  20  191.36   10.49
  -2   5  20  180.25    9.11
   2  -5  20  169.30   10.95
   2  -5  20  200.07    9.96
  -2   5  20  189.45    8.75
  -2   5  20  170.79   11.14
  -2   5  19   61.72    4.79
  -2   5  19   61.90    4.38
  -2   5  19   53.21    5.84
   2  -5  19   65.19    5.17
   2  -5  19   57.62    5.74
   2  -5  18    3.82    2.20
  -2   5  18    1.65    1.24
   2  -5  18    1.26    1.63
  -2   5  18    1.42    1.33
  -2   5  18    0.98    1.79
   2  -5  18    2.29    1.95
   2  -5  18    2.79    1.23
  -2   5  17   60.71    5.78
   2  -5  17   70.78    5.00
  -2   5  17   70.15    4.37
  -2   5  17   70.01    4.70
   2  -5  17   62.62    5.22
   2  -5  17   53.80    4.10
  -2   5  16  790.91   24.73
   2  -5  16  785.74   25.83
  -2   5  16  751.96   27.73
  -2   5  16  774.93   25.27
   2  -5  16  796.17   26.69
   2  -5  16  740.14   24.99
  -2   5  15  277.85   10.44
  -2   5  15  279.71   12.90
   2  -5  15  284.64   11.35
  -2   5  15  284.67   11.03
   2  -5  15  256.96   11.64
   2  -5  14   35.42    3.14
  -2   5  14   34.00    2.65
  -2   5  14   35.02    3.77
  -2   5  14   30.41    2.77
   2  -5  14   38.18    3.49
  -2   5  13  173.78    8.88
   2  -5  13  178.91    7.75
  -2   5  13  174.10    7.41
   2  -5  13  167.84    8.07
  -2   5  12 1576.72   51.72
   2  -5  12 1704.59   50.28
  -2   5  12 1733.68   49.94
   2   5 -12 1743.66   58.09
   2  -5  12 1763.47   51.10
  -2   5  11  719.97   23.82
   2  -5  11  672.92   22.25
   2  -5  11  730.84   23.02
  -2   5  11  730.35   22.00
   2   5 -11  654.94   28.09
  -2   5  10  297.12   11.71
   2  -5  10  287.95   10.52
   2  -5  10  296.45   11.03
   2   5 -10  292.63   15.54
  -2  -5 -10  302.07    9.57
  -2   5   9  102.51    5.45
   2  -5   9   89.53    4.48
   2   5  -9   84.84    7.52
   2  -5   9   99.68    4.95
  -2  -5  -9  105.10    4.03
  -2   5   8 1122.20   34.61
   2  -5   8 1121.89   33.64
   2  -5   8 1123.95   34.10
   2   5  -8 1145.44   39.89
  -2  -5  -8 1178.93   33.07
   2   5  -7  340.87   16.03
   2  -5   7  331.36   11.51
   2  -5   7  327.66   11.17
   2   5  -7  353.28   12.03
  -2  -5  -7  347.59   10.86
   2   5  -6  299.18   14.36
   2   5  -6  282.92   10.33
  -2  -5  -6  289.52    9.42
   2   5  -5   41.08    4.54
   2   5  -5   33.13    2.53
  -2  -5  -5   38.60    2.17
   2   5  -4  861.80   30.81
   2   5  -4  833.72   26.36
  -2   5   4  869.74   26.16
  -2  -5  -4  904.42   25.69
   2   5  -3  183.58    9.99
   2   5  -3  161.50    6.69
  -2   5   3  173.00    6.60
  -2  -5  -3  178.66    6.25
  -2  -5  -2   12.37    2.74
  -2   5   2   10.33    1.42
   2   5  -2    8.94    1.43
  -2  -5  -2   12.62    1.27
  -2  -5  -1   62.91    5.42
  -2  -5  -1   69.40    3.19
  -2  -5   0 1884.66   63.84
  -2  -5   0 2167.50   59.77
  -2  -5   1   73.11    5.59
   2   5   1   74.43    3.87
   2  -5  -2   10.86    0.81
   2  -5  -2   11.32    0.80
  -2  -5   2   12.05    2.39
   2   5   2   10.70    1.53
   2   5   2   13.21    1.49
  -2   5  -2   10.54    1.44
  -2  -5   3  167.28    9.04
  -2   5  -3  164.33    5.96
   2  -5  -3  169.52    6.14
  -2   5  -3  158.09    6.61
   2   5   3  166.87    6.72
   2   5   3  164.01    6.39
  -2  -5   3  181.74    6.17
   2  -5  -4  877.99   27.02
  -2  -5   4  887.50   30.50
  -2   5  -4  919.05   27.01
   2   5   4  883.67   26.97
  -2   5  -4  854.39   26.96
   2   5   4  931.63   26.76
  -2  -5   4  890.82   26.23
  -2  -5   5   35.58    4.03
   2  -5  -5   37.72    2.90
  -2   5  -5   36.97    2.79
  -2   5  -5   36.85    2.69
  -2  -5   5   39.17    2.23
  -2  -5   6  302.45   13.79
   2  -5  -6  295.78   11.72
  -2   5  -6  320.96   11.64
  -2   5  -6  282.84   10.62
  -2  -5   6  307.30    9.86
   2  -5  -7  360.70   14.10
  -2   5  -7  349.97   13.54
  -2  -5   7  360.72   15.81
  -2  -5   7  364.35   11.47
  -2  -5   8 1157.03   35.90
   2  -5  -8 1186.83   38.13
  -2   5  -8 1114.14   37.16
  -2  -5   8 1209.50   40.08
  -2  -5   8 1216.94   34.30
  -2   5  -9  109.88    6.66
  -2  -5   9  110.63    7.95
   2  -5  -9  109.46    7.11
  -2  -5   9  111.31    5.80
  -2  -5   9  103.12    5.47
   2   5   9  108.03    5.20
  -2  -5   9  106.56    4.29
  -2  -5  10  314.06   15.18
   2  -5 -10  324.14   14.43
  -2   5 -10  298.79   13.33
  -2  -5  10  317.99   12.18
  -2  -5  10  304.10   11.80
   2   5  10  301.26   11.26
  -2  -5  10  293.42    9.78
  -2   5 -11  705.84   25.76
  -2  -5  11  746.07   28.07
   2  -5 -11  744.09   26.99
  -2  -5  11  673.27   23.62
  -2  -5  11  719.99   23.57
   2   5  11  689.02   22.80
  -2  -5  11  727.37   23.48
  -2  -5  11  681.72   20.81
  -2  -5  12 1826.31   59.66
  -2   5 -12 1780.78   57.11
   2  -5 -12 1866.56   58.66
  -2  -5  12 1690.64   54.43
   2   5  12 1833.91   53.71
  -2  -5  12 1848.15   54.50
  -2  -5  12 1785.86   50.99
  -2  -5  12 1778.49   53.99
   2   5  13  175.03    8.40
   2  -5 -13  178.98   11.63
   2   5  13  203.66    8.90
  -2   5 -13  191.22   11.31
  -2  -5  13  188.37    9.59
   2   5  13  190.44    8.85
  -2  -5  13  197.05    9.42
  -2  -5  13  192.64    9.09
   2  -5 -14   44.54    5.72
  -2   5 -14   40.06    5.13
   2   5  14   37.97    3.53
   2   5  14   39.98    3.53
  -2  -5  14   31.75    3.82
  -2  -5  14   34.99    3.75
   2   5  14   37.95    3.62
  -2  -5  14   32.85    3.50
   2   5  15  302.47   12.13
   2   5  15  277.97   12.05
  -2  -5  15  290.16   13.42
   2   5  15  279.62   12.46
  -2  -5  15  313.45   13.44
  -2  -5  15  281.31   12.44
   2   5  16  739.80   25.88
   2   5  16  782.54   26.43
  -2  -5  16  753.57   27.93
   2   5  16  751.54   26.85
  -2  -5  16  833.72   28.11
  -2  -5  16  788.61   26.98
   2   5  17   62.00    4.91
   2   5  17   71.03    5.31
  -2  -5  17   69.35    6.30
   2   5  17   68.81    5.62
  -2  -5  17   55.82    5.56
  -2  -5  17   63.32    5.26
   2   5  18    2.01    1.63
   2   5  18    2.15    1.85
  -2  -5  18    4.63    2.35
  -2  -5  18    5.73    2.28
   2   5  18    1.68    1.88
  -2  -5  18    3.13    1.95
   2   5  19   57.06    4.93
   2   5  19   65.52    5.39
  -2  -5  19   67.74    6.57
  -2  -5  19   55.20    5.68
   2   5  19   48.45    5.13
  -2  -5  19   59.71    5.35
   2   5  20  184.96   10.08
  -2  -5  20  192.53   11.89
  -2  -5  20  171.13   10.95
   2   5  20  197.85   10.99
  -2  -5  20  182.01   10.19
   2   5  21  102.46    7.23
  -2  -5  21  101.07    8.44
  -2  -5  21  112.86    8.67
   2   5  21   93.45    7.59
  -2  -5  21  100.21    7.31
   2   5  22  160.62    9.41
  -2  -5  22  146.11   10.61
   2   5  22  150.72    9.93
  -2  -5  22  136.30   10.11
  -2  -5  22  152.86    9.32
   2   5  23   64.07    5.79
  -2  -5  23   57.68    6.54
   2   5  23   52.07    5.97
  -2  -5  23   63.63    5.81
   2   5  24  250.97   12.65
  -2  -5  24  256.25   14.48
   2   5  24  214.68   13.00
  -2  -5  24  256.44   12.67
   2   5  25   58.11    5.68
  -2  -5  25   61.69    6.77
   2   5  25   54.17    6.08
  -2  -5  25   53.66    5.30
   2   5  26   30.57    3.90
   2   5  26   30.08    4.16
  -2  -5  26   36.46    5.30
  -2  -5  26   30.86    3.90
  -2  -5  27    7.92    3.03
   2   5  27    3.30    1.89
   2   5  27    4.88    2.21
   2   5  28  128.26    8.20
   2   5  28  108.79    7.02
  -2   5 -29    5.75    2.23
   2   5  29    4.55    1.88
   2   5  29    5.50    2.03
  -2   5 -30   12.93    2.86
   2   5  30    9.96    2.32
   2   5  30   10.95    2.22
  -2   5 -31   -0.35    1.85
   2  -6  30   72.83    6.64
   2   6 -30   68.65    5.44
   2  -6  29   -0.55    2.09
   2   6 -29    1.52    1.93
   2   6 -28   42.81    4.59
   2  -6  28   37.11    5.22
   2   6 -27    0.43    1.96
   2  -6  27   -1.84    2.53
   2   6 -26   28.89    3.91
   2  -6  26   29.50    4.97
   2  -6  26   27.95    4.35
   2  -6  26   17.42    3.43
   2  -6  25    4.44    2.90
   2  -6  25    3.03    2.42
   2  -6  25    5.15    2.18
   2  -6  24   84.67    7.22
   2  -6  24   86.38    8.13
   2  -6  24   90.33    6.85
   2  -6  23    8.65    3.02
   2  -6  23   12.10    3.05
   2  -6  23   10.39    3.06
   2  -6  22   18.53    4.23
   2  -6  22   16.29    3.40
  -2   6  22   17.09    4.09
   2  -6  22   18.91    3.34
   2  -6  21   13.76    3.69
   2  -6  21   16.16    2.91
  -2   6  21   13.12    3.63
   2  -6  21   23.43    3.80
   2  -6  20  129.80    8.32
  -2   6  20  118.59    8.92
   2  -6  20  130.67    7.79
   2  -6  20  126.06    9.07
   2  -6  19   73.78    6.03
   2  -6  19   87.18    6.03
  -2   6  19   87.10    7.29
   2  -6  19   84.87    7.03
   2  -6  19   79.10    5.35
   2  -6  18  381.75   16.12
  -2   6  18  388.03   14.69
  -2   6  18  388.03   14.13
  -2   6  18  393.68   17.41
   2  -6  18  382.33   15.35
   2  -6  18  384.27   17.22
   2  -6  18  397.53   15.04
  -2   6  17   36.58    4.49
   2  -6  17   39.29    3.70
  -2   6  17   36.24    3.05
  -2   6  17   30.45    3.07
   2  -6  17   31.98    3.80
   2  -6  16  112.31    6.44
  -2   6  16  122.30    7.89
   2  -6  16  111.65    6.93
  -2   6  15  474.90   18.55
   2  -6  15  467.85   16.69
   2  -6  15  447.85   17.24
  -2   6  14  134.35    7.76
   2  -6  14  124.45    6.42
   2  -6  14  118.41    6.74
   2  -6  13  577.48   19.87
  -2   6  13  611.81   21.63
   2  -6  13  613.75   20.74
   2  -6  12  119.94    5.79
  -2   6  12  115.88    6.67
   2  -6  12  111.98    6.05
  -2   6  11   11.56    2.10
   2  -6  11   18.59    1.95
   2  -6  11   18.99    2.20
   2   6 -11   10.54    3.08
  -2  -6 -11   10.84    1.23
   2  -6  10  215.22    9.04
   2   6 -10  220.40   13.60
  -2   6  10  223.81    9.67
   2  -6  10  227.46    8.73
   2   6 -10  240.42    9.63
  -2  -6 -10  231.98    7.90
   2   6  -9   12.58    3.26
   2  -6   9   12.24    1.81
  -2   6   9   13.10    1.96
   2  -6   9   16.60    1.81
   2   6  -9   13.15    1.99
  -2  -6  -9   13.76    1.38
   2  -6   8  253.33    9.10
   2   6  -8  223.90   13.23
  -2   6   8  222.84    9.06
   2  -6   8  226.45    8.49
   2   6  -8  236.13    9.41
  -2  -6  -8  227.22    8.03
   2  -6   7   67.95    3.78
   2  -6   7   68.32    3.55
   2   6  -7   70.29    4.19
  -2  -6  -7   69.86    3.33
   2  -6   6   98.24    4.62
   2   6  -6   89.24    7.55
   2   6  -6   90.20    4.94
  -2  -6  -6  100.63    4.24
   2   6  -5  427.25   18.91
  -2   6   5  430.06   14.18
   2   6  -5  405.79   14.43
  -2  -6  -5  427.81   13.50
   2   6  -4   38.61    4.67
   2   6  -4   36.42    2.88
  -2   6   4   38.03    2.71
  -2  -6  -4   38.86    2.40
  -2  -6  -3  120.97    8.28
   2   6  -3  121.26    5.70
  -2   6   3  117.36    5.38
  -2  -6  -3  128.19    5.08
  -2  -6  -2  409.24   17.72
  -2   6   2  405.68   13.86
   2   6  -2  397.75   14.01
  -2  -6  -2  435.28   13.36
  -2  -6  -1  195.09   10.56
  -2   6   1  189.91    7.40
  -2   6   1  190.95    7.57
   2   6  -1  184.45    7.58
  -2  -6   0 1990.17   59.97
  -2   6   0 1886.59   55.33
  -2   6   0 1853.39   55.05
   2   6   0 1963.48   55.45
  -2  -6   1  189.89   10.16
  -2   6  -1  176.48    7.14
   2   6   1  170.57    7.44
  -2   6  -1  188.84    7.48
   2   6   1  191.50    7.39
  -2  -6   2  460.69   17.78
  -2   6  -2  411.75   14.19
  -2   6  -2  402.30   13.78
   2   6   2  449.63   14.43
   2   6   2  395.54   13.80
  -2  -6   3  106.11    7.32
   2  -6  -3  119.36    4.70
   2  -6  -3  106.54    4.71
   2   6   3  125.68    5.67
   2   6   3  122.72    5.33
  -2   6  -3  117.11    5.58
  -2  -6   3  118.51    4.89
   2  -6  -4   53.62    3.15
  -2  -6   4   41.26    4.48
  -2   6  -4   46.10    2.90
  -2   6  -4   43.44    3.17
   2   6   4   46.03    3.20
   2   6   4   46.96    3.00
  -2  -6   4   48.11    2.72
  -2  -6   5  392.71   16.99
   2  -6  -5  388.74   14.23
  -2   6  -5  397.67   14.11
  -2   6  -5  388.51   13.91
   2   6   5  426.56   14.03
  -2  -6   5  416.55   13.05
  -2  -6   6   75.82    6.35
  -2   6  -6   90.79    5.19
   2  -6  -6   86.63    5.24
  -2   6  -6   86.47    4.74
  -2  -6   6   95.51    4.10
   2  -6  -7   68.60    4.92
  -2   6  -7   70.54    4.78
  -2  -6   7   75.30    6.31
  -2   6  -7   68.66    4.19
  -2  -6   7   70.46    3.42
  -2   6  -8  226.78   10.60
   2  -6  -8  239.97   11.25
  -2  -6   8  251.37   12.90
  -2  -6   8  217.21    9.20
  -2   6  -8  243.61    9.58
  -2  -6   8  249.62    8.39
  -2  -6   9   15.64    3.16
   2  -6  -9   18.93    2.85
  -2   6  -9   15.33    2.48
  -2  -6   9   12.38    1.92
  -2  -6   9   15.45    2.06
  -2   6  -9   15.64    2.08
  -2  -6   9   15.74    1.47
   2  -6 -10  246.55   12.13
  -2   6 -10  211.27   10.99
  -2  -6  10  219.90   12.71
  -2  -6  10  218.83    9.58
  -2  -6  10  228.35    9.52
   2   6  10  229.43    9.08
  -2  -6  10  226.91    7.95
  -2  -6  11   18.01    3.62
   2  -6 -11   15.24    3.04
  -2   6 -11    9.58    2.31
  -2  -6  11   11.62    2.22
  -2  -6  11   13.23    2.15
   2   6  11    9.30    1.67
  -2  -6  11   10.35    1.21
   2  -6 -12  134.02    9.35
  -2   6 -12  140.97    9.01
  -2  -6  12  131.24    7.18
  -2  -6  12  138.39    7.20
   2   6  12  123.71    6.49
  -2  -6  12  117.37    6.80
  -2  -6  12  121.56    5.01
  -2   6 -13  580.65   24.28
   2  -6 -13  604.19   25.37
   2   6  13  613.87   20.86
   2   6  13  618.97   21.02
  -2  -6  13  599.15   21.83
  -2  -6  13  641.80   21.84
   2   6  13  609.20   21.00
  -2  -6  13  584.35   18.36
  -2  -6  13  621.75   21.65
   2   6  14  126.77    6.79
  -2   6 -14  116.56    9.13
   2   6  14  132.76    7.11
  -2  -6  14  121.26    7.51
  -2  -6  14  115.89    7.24
   2   6  14  121.28    6.96
  -2  -6  14  134.76    7.48
   2   6  15  471.64   17.41
   2   6  15  476.33   17.70
  -2  -6  15  462.34   18.81
   2   6  15  462.19   17.84
  -2  -6  15  481.99   18.71
  -2  -6  15  490.32   18.45
   2   6  16  114.77    6.75
   2   6  16  114.93    6.96
  -2  -6  16  117.32    7.87
   2   6  16  117.06    7.22
  -2  -6  16  107.69    7.39
  -2  -6  16  113.38    7.27
   2   6  17   37.51    3.96
   2   6  17   33.57    3.78
  -2  -6  17   32.68    4.52
  -2  -6  17   43.91    4.84
   2   6  17   38.19    4.19
  -2  -6  17   41.31    4.37
   2   6  18  392.49   15.72
   2   6  18  363.17   15.72
  -2  -6  18  381.69   17.56
  -2  -6  18  395.42   17.33
   2   6  18  403.79   16.73
  -2  -6  18  410.02   16.84
   2   6  19   74.63    5.88
   2   6  19   74.08    5.63
  -2  -6  19   62.51    6.40
  -2  -6  19   77.77    6.81
   2   6  19   82.92    6.51
  -2  -6  19   76.27    6.20
   2   6  20  130.17    7.95
  -2  -6  20  109.18    8.70
  -2  -6  20  115.68    8.63
   2   6  20  118.04    8.18
  -2  -6  20  115.68    7.97
   2   6  21   21.19    3.37
  -2  -6  21   12.66    3.51
   2   6  21   23.90    3.83
  -2  -6  21   16.27    3.66
  -2  -6  21   16.16    3.22
   2   6  22   17.18    3.25
  -2  -6  22   11.87    3.53
   2   6  22   17.23    3.42
  -2  -6  22   20.96    4.04
  -2  -6  22   21.53    3.65
   2   6  23   14.48    2.98
  -2  -6  23   14.33    3.46
  -2  -6  23   10.78    2.91
   2   6  24   75.75    6.33
  -2  -6  24   70.56    7.16
  -2  -6  24   88.47    6.87
   2   6  25    3.08    2.23
  -2  -6  25    1.80    2.55
  -2  -6  25    4.89    2.03
   2   6  26   21.51    3.55
   2   6  26   22.06    3.18
  -2  -6  26   15.29    3.57
  -2  -6  26   19.98    3.29
  -2   6 -27    0.45    1.86
   2   6  27    1.02    1.56
   2   6  27    1.24    2.05
   2   6  28   42.96    4.52
  -2   6 -28   39.56    4.63
   2   6  28   40.96    4.06
  -2   6 -29   -0.40    1.88
   2   6  29    0.35    1.65
   2   6  29   -0.59    1.40
  -2   6 -30   66.17    5.46
  -2   6 -31   20.38    3.12
   2   7 -30   27.79    3.51
   2  -7  30   23.50    3.74
   2  -7  29    7.15    2.64
   2   7 -29    7.77    2.37
   2   7 -28   89.02    6.65
   2  -7  28   89.77    7.64
   2  -7  27   19.13    4.19
   2   7 -27   22.15    3.59
   2   7 -26   20.04    3.60
   2  -7  26   23.42    4.46
   2   7 -25   15.09    3.05
   2  -7  25   13.47    3.70
   2  -7  24  377.06   17.16
   2   7 -24  394.81   17.09
   2  -7  24  385.65   18.71
   2  -7  24  372.25   16.27
   2  -7  23    0.61    2.22
   2   7 -23    1.37    2.09
   2  -7  23    4.35    2.58
   2  -7  23   -0.82    2.04
   2  -7  22   44.74    5.13
   2  -7  22   38.00    4.40
   2  -7  22   48.26    5.90
   2   7 -22   48.07    5.13
   2  -7  21   31.93    3.87
   2  -7  21   30.83    4.18
   2  -7  21   37.39    5.16
   2   7 -21   43.19    4.64
   2  -7  20  453.14   18.78
  -2   7  20  437.74   19.64
   2  -7  20  451.47   17.96
   2   7 -20  508.13   19.31
   2  -7  20  467.02   20.37
   2  -7  20  444.20   17.33
   2  -7  19   82.38    6.42
   2  -7  19   94.19    6.27
  -2   7  19   81.49    6.95
   2   7 -19   82.19    6.42
   2  -7  19   96.52    7.65
   2  -7  19   95.50    6.16
   2  -7  18   34.76    4.08
   2  -7  18   36.00    3.87
  -2   7  18   43.30    4.85
   2  -7  18   38.27    4.88
   2  -7  18   42.97    3.97
   2  -7  17   58.79    5.06
   2   7 -17   53.85    4.75
   2  -7  17   58.79    4.59
   2  -7  17   61.16    4.73
  -2   7  17   51.09    5.22
   2  -7  16  477.30   18.64
   2   7 -16  538.58   19.36
   2  -7  16  501.14   18.13
  -2   7  16  496.56   19.83
   2  -7  15   46.91    4.14
   2   7 -15   53.15    4.51
  -2   7  15   46.93    4.59
   2  -7  15   44.55    3.80
   2  -7  14   24.98    2.99
   2   7 -14   25.79    3.20
  -2   7  14   23.80    3.33
   2  -7  14   28.85    2.88
   2  -7  13   47.08    3.83
   2   7 -13   42.64    3.86
   2  -7  13   37.56    3.23
  -2   7  13   43.26    4.00
   2  -7  12  347.79   13.68
   2  -7  12  373.37   13.34
  -2   7  12  368.07   14.42
   2   7 -12  376.11   14.42
   2  -7  11    4.09    1.41
  -2   7  11    4.88    1.51
   2  -7  11    4.59    1.34
   2   7 -11    8.78    1.87
  -2  -7 -11    6.02    1.03
   2  -7  10   33.53    3.00
   2   7 -10   28.86    5.03
   2  -7  10   33.12    2.76
  -2   7  10   30.06    2.95
   2   7 -10   38.39    3.42
  -2  -7 -10   40.19    2.44
   2   7  -9   31.66    5.08
   2  -7   9   25.82    2.52
   2  -7   9   21.51    2.18
  -2   7   9   21.98    2.40
   2   7  -9   31.57    3.06
  -2  -7  -9   27.23    2.02
   2  -7   8  334.50   11.92
  -2   7   8  307.34   11.62
   2  -7   8  334.66   11.52
   2   7  -8  313.60   12.44
  -2  -7  -8  322.08   10.96
   2   7  -7  313.32   16.71
   2  -7   7  332.99   11.83
   2  -7   7  335.73   11.46
   2   7  -7  323.74   12.53
  -2  -7  -7  328.04   11.15
   2   7  -6  124.73    9.62
   2   7  -6  134.33    6.61
  -2  -7  -6  130.97    5.49
  -2  -7  -5  150.72   10.34
   2   7  -5  148.78   10.28
   2   7  -5  146.17    7.15
  -2   7   5  166.25    6.96
  -2  -7  -5  163.39    6.33
  -2  -7  -4 1024.41   36.74
   2   7  -4  995.45   31.63
  -2   7   4 1001.75   31.02
  -2  -7  -4 1049.17   30.45
  -2  -7  -3   21.62    3.75
   2   7  -3   19.22    2.30
  -2   7   3   23.42    2.29
  -2  -7  -3   20.74    1.92
  -2   7   2  110.93    5.47
   2   7  -2  104.10    5.54
  -2  -7  -1   66.70    5.92
   2   7  -1   63.85    3.99
  -2   7   1   57.70    3.66
  -2   7   1   60.29    3.84
  -2  -7   0 3850.15  117.54
   2   7   0 4049.44  113.42
  -2   7   0 3967.19  112.71
  -2   7   0 4022.50  113.05
   2   7   0 3927.94  112.95
  -2  -7   1   60.61    5.57
  -2   7  -1   56.29    3.59
  -2   7  -1   54.89    3.69
   2   7   1   53.92    3.59
   2   7   1   58.88    3.93
  -2  -7   2  116.82    7.91
  -2   7  -2  110.51    5.46
   2   7   2  118.17    5.88
   2   7   2  115.17    5.57
  -2   7  -2  113.34    5.77
   2  -7  -3   16.09    1.42
   2  -7  -3   19.32    1.53
  -2  -7   3   16.27    3.09
  -2   7  -3   18.49    2.08
   2   7   3   21.90    2.32
  -2   7  -3   17.01    2.20
   2   7   3   17.42    2.02
  -2  -7   3   17.28    1.76
   2  -7  -4 1001.76   30.21
  -2  -7   4 1016.91   35.01
   2  -7  -4  986.46   30.30
  -2   7  -4  986.51   31.18
   2   7   4  977.03   30.93
   2   7   4 1000.09   30.55
  -2  -7   4 1035.36   29.96
   2  -7  -5  156.30    7.26
  -2  -7   5  144.48    9.47
   2   7   5  173.59    7.19
   2   7   5  174.03    7.53
  -2   7  -5  156.29    7.41
  -2  -7   5  176.78    6.66
  -2  -7   6  123.08    8.55
  -2   7  -6  129.69    6.61
   2  -7  -6  131.39    6.76
  -2   7  -6  127.95    6.45
  -2  -7   6  132.74    5.53
   2  -7  -7  329.06   13.33
  -2  -7   7  327.35   15.60
  -2   7  -7  307.79   12.93
  -2   7  -7  329.07   12.44
  -2  -7   7  329.93   11.12
  -2   7  -8  317.01   13.49
   2  -7  -8  315.66   13.66
  -2   7  -8  311.36   12.33
  -2  -7   8  342.56   11.09
  -2   7  -9   31.95    3.68
  -2  -7   9   26.02    4.13
   2  -7  -9   28.60    3.67
  -2   7  -9   28.98    2.92
  -2  -7   9   31.01    2.26
   2  -7 -10   40.67    4.49
  -2   7 -10   30.93    3.87
  -2  -7  10   36.12    4.96
  -2  -7  10   24.06    2.66
  -2   7 -10   37.90    3.40
  -2  -7  10   38.15    2.48
   2  -7 -11    2.96    1.45
  -2   7 -11    7.39    2.16
  -2  -7  11    6.79    1.67
  -2   7 -11    7.20    1.65
  -2  -7  11    4.83    1.04
  -2   7 -12  336.46   16.48
  -2  -7  12  342.07   14.14
  -2   7 -12  374.26   14.48
  -2  -7  12  391.74   14.62
  -2  -7  12  384.01   12.35
   2   7  13   48.63    3.89
   2   7  13   40.86    3.71
  -2   7 -13   54.06    5.80
  -2  -7  13   37.95    3.88
  -2  -7  13   37.87    3.99
  -2   7 -13   44.28    3.97
  -2  -7  13   49.72    4.27
  -2  -7  13   46.64    2.71
   2   7  14   23.41    2.90
   2   7  14   26.84    3.10
  -2  -7  14   26.76    3.39
  -2  -7  14   26.75    3.44
  -2   7 -14   29.68    3.44
  -2  -7  14   25.44    3.34
   2   7  15   46.14    4.09
   2   7  15   53.10    4.42
  -2  -7  15   45.06    4.50
   2   7  15   47.33    4.17
  -2   7 -15   44.65    4.29
  -2  -7  15   45.02    4.40
  -2  -7  15   48.52    4.61
   2   7  16  510.02   19.27
   2   7  16  509.27   18.99
  -2  -7  16  535.48   20.59
  -2  -7  16  508.44   20.16
  -2  -7  16  541.99   20.46
   2   7  17   52.70    4.53
   2   7  17   58.39    4.96
  -2  -7  17   51.53    5.43
  -2  -7  17   63.33    5.62
  -2  -7  17   63.03    5.50
   2   7  18   32.37    3.79
   2   7  18   31.43    3.81
  -2  -7  18   28.16    4.08
  -2  -7  18   37.47    4.59
  -2  -7  18   34.08    4.26
   2   7  19   90.26    6.55
   2   7  19   87.19    6.20
  -2  -7  19   81.28    7.17
  -2  -7  19   98.08    7.46
  -2  -7  19  105.37    7.54
   2   7  20  449.32   18.48
  -2  -7  20  450.05   20.26
  -2  -7  20  465.19   20.04
  -2  -7  20  497.53   19.87
   2   7  21   33.47    4.11
  -2   7 -21   31.47    4.24
  -2  -7  21   31.70    4.60
  -2  -7  21   44.11    4.97
   2   7  22   50.53    5.10
  -2  -7  22   42.59    5.30
  -2   7 -22   46.39    5.10
  -2  -7  22   49.68    5.37
   2   7  23    2.53    1.88
  -2  -7  23    3.94    2.63
  -2   7 -23    0.47    2.01
  -2  -7  23    2.87    2.03
   2   7  24  380.00   16.43
  -2   7 -24  378.61   17.17
  -2  -7  24  390.04   18.15
  -2  -7  24  390.19   17.15
   2   7  25   19.78    3.44
  -2  -7  25   21.05    3.99
  -2   7 -25   13.77    3.27
  -2  -7  25   16.08    3.14
   2   7  26   29.35    3.89
   2   7  26   27.90    3.45
  -2   7 -26   22.76    3.80
   2   7  27   14.22    2.81
   2   7  27   12.70    2.41
  -2   7 -28   92.80    6.96
  -2   7 -29    7.83    2.51
  -2   7 -30   29.52    3.77
   2  -8  29   16.79    3.29
   2   8 -29   20.14    3.14
   2   8 -28   42.05    4.57
   2  -8  28   46.48    5.27
   2  -8  27    8.57    2.96
   2   8 -27    7.95    2.49
   2  -8  26   28.10    4.54
   2   8 -26   15.05    3.18
   2   8 -25    2.76    1.90
   2  -8  25    1.74    2.46
   2   8 -24   14.52    3.28
   2  -8  24   11.22    3.17
   2   8 -23   24.44    3.77
   2  -8  23   21.90    4.17
   2   8 -22   24.20    3.88
   2  -8  22   23.39    4.46
   2  -8  21   53.64    6.03
   2   8 -21   57.51    5.60
   2  -8  20   96.55    7.99
   2   8 -20  104.03    7.45
   2  -8  20   97.80    6.52
   2  -8  19   32.96    4.08
   2  -8  19   22.60    3.25
   2  -8  19   38.37    4.79
   2   8 -19   32.03    4.03
   2  -8  19   31.88    3.79
   2  -8  18   10.36    2.38
   2  -8  18   10.26    2.58
   2  -8  18   14.86    3.32
   2   8 -18   12.30    2.78
   2  -8  18   10.25    2.30
   2  -8  17   35.03    3.98
   2   8 -17   36.12    4.12
   2  -8  17   40.25    4.69
  -2   8  17   30.98    3.98
   2  -8  17   45.01    3.97
   2  -8  16   53.64    4.66
   2   8 -16   61.67    5.23
   2  -8  16   53.63    4.27
  -2   8  16   46.98    4.67
   2  -8  15  295.21   12.95
  -2   8  15  319.03   13.68
   2  -8  15  299.32   12.41
   2  -8  14  114.19    6.67
   2  -8  14  109.96    6.24
  -2   8  14  121.38    7.16
   2  -8  13  241.43   10.61
   2  -8  13  239.12   10.07
  -2   8  13  245.49   10.84
   2   8 -13  252.34   11.38
   2  -8  12  149.69    7.70
   2  -8  12  164.52    7.48
  -2   8  12  151.58    7.80
   2   8 -12  166.92    8.62
  -2  -8 -12  167.35    6.50
   2   8 -11  121.76    6.98
  -2  -8 -11  117.53    5.21
   2   8 -10  170.32    8.61
  -2  -8 -10  175.61    6.91
   2   8  -9  151.62    8.03
  -2  -8  -9  167.22    6.64
   2   8  -8  126.16   10.26
   2   8  -8  118.15    6.68
  -2  -8  -8  123.32    5.43
   2   8  -7   45.32    6.02
   2   8  -7   41.93    3.79
  -2  -8  -7   46.55    2.95
   2   8  -6  862.30   28.07
  -2  -8  -6  878.54   26.32
  -2  -8  -5  125.52    9.75
   2   8  -5  136.37    6.98
  -2   8   5  135.93    6.42
  -2  -8  -5  130.53    5.80
  -2  -8  -4 1128.89   41.64
   2   8  -4 1157.70   36.58
  -2   8   4 1167.62   35.98
  -2  -8  -4 1212.29   35.23
  -2  -8  -3  117.65    8.99
   2   8  -3  120.77    6.33
  -2   8   3  110.51    5.82
  -2  -8  -3  123.57    5.50
  -2  -8  -2   10.62    2.75
  -2   8   2   14.09    2.03
   2   8  -2   16.70    2.32
   2   8  -1   74.49    4.92
  -2   8   1   75.71    4.57
  -2   8   1   70.19    4.33
   2   8  -1   79.85    4.79
  -2  -8   0    4.16    1.97
  -2   8   0    3.99    1.35
   2   8   0    3.50    1.51
   2   8   0    4.38    1.68
  -2   8   0    7.09    1.65
  -2  -8   1   84.43    6.92
  -2   8  -1   66.48    4.28
  -2   8  -1   73.16    4.64
   2   8   1   81.27    4.96
   2   8   1   69.45    4.44
  -2  -8   2   12.04    2.79
   2   8   2   14.16    2.00
  -2   8  -2   15.88    2.15
   2   8   2   12.28    2.09
  -2   8  -2   15.95    2.24
   2  -8  -3   95.29    3.74
  -2  -8   3  113.89    8.10
  -2   8  -3  127.94    6.30
   2   8   3  119.11    5.71
  -2   8  -3  116.22    5.78
   2   8   3  117.58    6.06
  -2  -8   3  120.06    5.20
  -2  -8   4 1155.33   39.56
   2  -8  -4 1103.79   33.48
   2   8   4 1166.60   35.27
  -2   8  -4 1182.25   35.07
  -2   8  -4 1188.90   35.62
   2   8   4 1141.46   34.71
  -2  -8   4 1213.85   34.10
  -2  -8   5  120.69    8.68
   2   8   5  127.26    6.56
  -2   8  -5  133.84    6.88
   2   8   5  125.14    6.22
  -2  -8   5  133.73    5.79
  -2  -8   6  781.11   30.97
  -2   8  -6  851.94   27.77
  -2  -8   6  870.51   26.12
  -2  -8   7   40.14    5.06
  -2   8  -7   38.07    3.57
  -2   8  -7   44.71    3.82
  -2  -8   7   49.34    3.08
  -2  -8   8  101.61    8.45
  -2   8  -8  112.89    7.01
  -2   8  -8  118.51    6.63
  -2  -8   8  131.03    5.58
  -2   8  -9  144.65    8.70
  -2   8  -9  168.32    8.22
  -2  -8   9  163.11    6.64
  -2   8 -10  160.33    8.36
  -2  -8  10  173.00    6.91
  -2   8 -11  123.11    7.07
  -2  -8  11  118.19    5.35
  -2   8 -12  163.52    8.53
  -2  -8  12  165.22    6.70
   2   8  13  270.26   11.36
   2   8  13  276.46   11.57
  -2   8 -13  263.80   11.98
  -2  -8  13  265.04    9.59
   2   8  14  137.23    7.38
   2   8  14  127.63    7.35
  -2   8 -14  128.98    7.72
  -2  -8  14  140.84    5.79
  -2  -8  14  145.26    8.41
   2   8  15  329.42   13.52
   2   8  15  324.24   13.69
  -2   8 -15  335.17   14.39
  -2  -8  15  350.41   15.04
   2   8  16   61.33    4.82
   2   8  16   57.69    4.87
  -2   8 -16   70.15    5.65
  -2  -8  16   65.65    5.65
   2   8  17   37.72    3.85
   2   8  17   35.04    3.83
  -2  -8  17   32.60    4.04
  -2   8 -17   39.40    4.42
  -2  -8  17   39.55    4.35
  -2  -8  17   36.52    4.45
   2   8  18   10.23    2.53
   2   8  18   10.90    2.41
  -2  -8  18   14.89    3.12
  -2  -8  18   11.99    2.78
  -2   8 -18   12.20    2.83
  -2  -8  18    7.40    2.61
   2   8  19   40.49    4.25
   2   8  19   26.40    3.46
  -2   8 -19   42.57    4.72
  -2  -8  19   33.66    4.42
  -2  -8  19   37.70    4.68
   2   8  20  100.59    6.88
  -2  -8  20  102.03    7.67
  -2   8 -20  100.65    7.53
  -2  -8  20   98.64    7.58
   2   8  21   54.12    5.07
  -2   8 -21   61.94    5.85
  -2  -8  21   56.83    5.90
  -2  -8  21   70.31    6.32
   2   8  22   18.77    3.21
  -2  -8  22   22.55    3.84
  -2   8 -22   23.05    3.92
  -2  -8  22   16.82    3.48
   2   8  23   21.89    3.40
  -2   8 -23   20.36    3.57
  -2  -8  23   15.44    3.29
  -2  -8  23   19.43    3.55
   2   8  24    8.58    2.42
  -2  -8  24    9.15    2.86
  -2   8 -24   10.17    3.17
  -2  -8  24   10.29    2.63
   2   8  25    0.38    1.83
  -2   8 -25    3.34    2.13
  -2  -8  25    1.77    1.67
  -2   8 -26   15.68    3.24
  -2   8 -27    9.20    2.81
  -2   8 -28   56.95    5.39
  -2   8 -29   22.14    3.46
   2   9 -28   60.15    5.16
   2  -9  28   42.77    4.84
   2  -9  27    0.48    1.85
   2   9 -27    2.82    1.97
   2  -9  26   41.18    5.05
   2   9 -26   45.92    4.98
   2  -9  25    8.54    2.70
   2   9 -25    3.19    2.31
   2  -9  24  147.00    9.73
   2   9 -24  118.23    8.49
   2  -9  23    5.05    2.68
   2   9 -23   10.05    2.76
   2  -9  22   -0.56    2.05
   2   9 -22    6.71    2.24
   2  -9  21    8.88    2.97
   2   9 -21    4.75    2.32
   2  -9  21    4.69    1.93
   2  -9  20  108.01    8.36
   2   9 -20  118.24    8.05
   2  -9  20   97.80    6.78
   2  -9  19   32.06    4.63
   2   9 -19   25.54    3.86
   2  -9  19   22.01    3.36
   2   9 -18   95.62    7.19
   2  -9  18   97.00    6.63
   2  -9  18   92.08    7.42
   2  -9  17   76.97    6.55
   2   9 -17   82.23    6.50
   2   9 -16  148.08    8.91
   2   9 -15    2.40    1.83
   2   9 -14   53.88    4.90
   2   9 -13   28.45    3.57
   2   9 -12  401.73   16.32
  -2  -9 -12  397.05   13.52
   2   9 -11   95.01    6.40
  -2  -9 -11   91.68    4.64
   2   9 -10   48.56    4.46
  -2  -9 -10   43.86    3.02
   2   9  -9  116.59    6.93
  -2  -9  -9   98.75    5.01
   2   9  -8 1352.79   42.64
  -2  -9  -8 1345.45   40.13
   2   9  -7   20.63    2.82
  -2  -9  -7   17.42    1.95
  -2  -9  -6    5.15    2.28
   2   9  -6   10.60    2.31
  -2  -9  -6    9.42    1.58
  -2  -9  -5  181.35   12.38
   2   9  -5  179.59    8.94
  -2   9   5  184.23    8.37
  -2  -9  -5  192.96    7.79
  -2  -9  -4  574.87   25.57
   2   9  -4  589.49   20.98
  -2   9   4  598.52   20.31
  -2  -9  -4  614.51   19.56
  -2  -9  -3  140.75   10.34
   2   9  -3  135.77    7.35
  -2   9   3  136.47    6.93
  -2  -9  -3  152.43    6.55
  -2  -9  -2  111.86    9.00
   2   9  -2  110.03    6.59
   2   9  -2  118.60    6.54
  -2   9   2  103.68    5.97
  -2  -9  -2  130.16    5.82
  -2  -9  -1  157.24   10.62
  -2   9   1  157.53    7.78
   2   9  -1  171.06    8.37
  -2   9   1  162.89    7.71
   2   9  -1  171.58    8.09
  -2  -9  -1  166.59    7.15
  -2  -9   0 1167.94   40.68
   2   9   0 1192.99   36.63
  -2   9   0 1163.09   36.03
   2   9   0 1083.93   35.72
  -2   9   0 1156.14   35.70
  -2  -9   1  152.84   10.26
  -2   9  -1  163.02    7.77
   2   9   1  176.08    8.03
   2   9   1  165.40    8.24
  -2   9  -1  163.08    8.04
  -2  -9   1  166.65    7.16
  -2  -9   2  100.08    8.11
  -2   9  -2  108.83    6.04
   2   9   2  109.61    6.37
  -2   9  -2  119.51    6.49
   2   9   2  109.60    6.02
  -2  -9   3  123.05    9.23
  -2   9  -3  142.49    7.16
  -2   9  -3  145.69    7.54
   2   9   3  149.25    7.49
   2   9   3  132.26    6.91
  -2  -9   3  147.93    6.46
  -2   9  -4  581.91   20.32
  -2   9  -4  580.34   20.78
   2   9   4  583.61   20.04
   2   9   4  600.50   20.61
  -2  -9   4  628.81   19.36
  -2   9  -5  184.80    8.91
  -2   9  -5  184.09    8.50
   2   9   5  185.65    8.24
  -2  -9   5  173.80    7.42
  -2  -9   6    8.24    2.58
  -2   9  -6    9.39    2.10
  -2   9  -6    8.18    1.94
  -2  -9   6   10.10    1.60
  -2   9  -7   21.19    3.04
  -2  -9   7   24.93    2.31
  -2   9  -8 1291.93   42.04
  -2  -9   8 1360.44   39.94
  -2   9  -9  107.26    6.70
  -2  -9   9  107.13    5.29
  -2   9 -10   50.65    4.65
  -2  -9  10   62.70    3.72
  -2   9 -11   90.56    6.28
  -2  -9  11   93.55    4.77
  -2   9 -12  390.58   16.19
  -2  -9  12  404.86   13.76
   2   9  13   13.34    2.33
   2   9  13   17.34    2.60
  -2   9 -13   16.22    2.96
  -2  -9  13   12.58    1.69
   2   9  14   47.71    4.11
   2   9  14   59.01    4.69
  -2  -9  14   54.24    5.16
  -2   9 -14   51.23    4.86
  -2  -9  14   50.48    3.22
   2   9  15    1.63    1.65
   2   9  15    2.75    1.49
  -2   9 -15    2.84    2.05
  -2  -9  15    2.62    2.00
   2   9  16  146.91    7.87
   2   9  16  128.22    7.68
  -2   9 -16  153.60    9.04
  -2  -9  16  141.96    9.12
   2   9  17   69.13    5.22
   2   9  17   71.88    5.47
  -2   9 -17   63.80    5.75
  -2  -9  17   76.55    6.45
   2   9  18   93.17    6.34
   2   9  18  105.47    6.85
  -2   9 -18  106.83    7.64
  -2  -9  18  103.09    7.75
   2   9  19   20.24    3.18
  -2   9 -19   32.70    4.37
  -2  -9  19   27.35    4.22
   2   9  20  106.91    7.19
  -2   9 -20  127.04    8.51
  -2  -9  20  126.39    8.79
   2   9  21    6.36    2.10
  -2   9 -21    6.35    2.78
  -2  -9  21    7.58    2.70
   2   9  22    5.20    2.05
  -2   9 -22    5.43    2.21
  -2  -9  22    1.50    1.89
   2   9  23    1.82    1.54
  -2   9 -23    1.48    2.25
  -2  -9  23    4.37    2.32
  -2   9 -24  117.30    8.46
  -2  -9  24  135.16    8.73
  -2   9 -25    6.15    2.44
  -2  -9  25    6.03    2.23
  -2   9 -26   48.81    5.21
  -2   9 -27    2.12    1.89
  -2   9 -28   55.32    5.11
   2  10 -27    5.67    2.15
   2  10 -26   46.27    4.83
   2 -10  25    1.41    1.71
   2  10 -25    0.44    2.02
   2  10 -24   29.68    4.14
   2 -10  24   36.58    4.63
   2  10 -23   21.51    3.60
   2 -10  23   24.07    4.10
   2 -10  22  116.17    8.63
   2  10 -22  110.80    8.15
   2 -10  21   37.32    4.94
   2  10 -21   25.91    4.27
   2 -10  21   33.85    3.95
   2 -10  20  113.65    8.42
   2  10 -20  127.56    8.61
   2 -10  20  104.16    7.31
   2  10 -19   11.55    3.01
   2 -10  19    8.17    2.78
   2 -10  19    9.82    2.44
   2  10 -18   50.11    5.35
   2 -10  18   45.24    4.65
   2 -10  18   46.62    5.32
   2 -10  17   36.02    4.60
   2  10 -17   42.09    4.82
   2 -10  16   27.83    4.04
   2  10 -16   38.38    4.44
   2  10 -15  106.27    7.48
   2  10 -14  233.35   11.95
   2  10 -13    8.40    2.69
   2  10 -12   41.76    4.45
  -2 -10 -12   38.83    2.98
   2  10 -11  174.68    9.69
  -2 -10 -11  172.27    7.39
   2  10 -10   71.11    5.76
  -2 -10 -10   73.35    4.26
   2  10  -9  151.53    8.81
  -2 -10  -9  165.92    7.20
   2  10  -8  106.78    6.96
  -2 -10  -8  102.80    5.36
   2  10  -7   99.93    6.67
  -2 -10  -7  104.07    5.38
   2  10  -6  225.43   11.07
  -2 -10  -6  250.96    9.72
   2  10  -5  156.36    8.45
  -2  10   5  153.50    7.76
  -2 -10  -5  157.99    7.15
   2  10  -4  792.51   27.70
  -2  10   4  805.92   26.97
  -2 -10  -4  850.33   26.16
   2  10  -3  101.49    6.44
  -2  10   3   87.06    5.54
   2  10  -3  103.44    6.36
  -2 -10  -3   84.94    4.96
   2  10  -2   60.73    4.94
   2  10  -2   59.86    4.65
  -2  10   2   52.85    4.23
  -2 -10  -2   59.61    3.87
  -2 -10  -1   12.77    3.43
   2  10  -1   10.70    2.08
  -2  10   1   16.84    2.36
   2  10  -1   14.73    2.66
  -2 -10  -1   14.35    2.04
  -2 -10   0    4.37    2.11
  -2  10   0    9.68    1.90
   2  10   0    7.24    1.84
   2  10   0    7.09    2.16
  -2  10   0    5.42    1.74
  -2 -10   0    4.24    1.40
  -2 -10   1   11.07    3.15
   2  10   1   13.24    2.31
  -2  10  -1   21.08    2.76
   2  10   1   17.77    2.85
  -2  10  -1   17.78    2.58
  -2 -10   1   19.53    2.22
  -2 -10   2   58.30    6.30
   2  10   2   50.76    4.44
  -2  10  -2   49.31    4.10
   2  10   2   53.89    4.23
  -2  10  -2   59.38    4.65
  -2  10  -3   79.20    5.35
   2  10   3   86.78    5.79
  -2  10  -3   88.50    5.93
   2  10   3   88.53    5.53
  -2 -10   3   87.88    4.89
   2  10   4  805.75   27.60
  -2  10  -4  843.47   28.14
   2  10   4  827.32   27.14
  -2  10  -4  798.04   27.30
  -2 -10   4  842.50   26.18
  -2  10  -5  147.74    7.83
  -2  10  -5  142.27    8.14
  -2 -10   5  158.27    7.01
  -2  10  -6  222.06   11.03
  -2  10  -6  242.03   10.82
  -2 -10   6  247.12    9.64
  -2  10  -7  102.61    6.37
  -2  10  -7  113.64    7.10
  -2 -10   7   98.13    5.35
  -2  10  -8   97.73    6.26
  -2  10  -8   87.69    6.39
  -2 -10   8  100.75    5.24
  -2  10  -9  147.47    8.70
  -2 -10   9  165.62    7.21
  -2  10 -10   71.19    5.66
  -2 -10  10   63.98    4.03
  -2  10 -11  173.13    9.66
  -2 -10  11  183.37    7.75
   2  10  12   39.85    3.68
   2  10  12   33.05    3.53
  -2  10 -12   47.95    4.77
  -2 -10  12   44.25    3.20
   2  10  13    6.11    1.85
   2  10  13   10.40    2.23
  -2  10 -13    9.29    2.51
  -2 -10  13    7.85    1.57
   2  10  14  244.36   10.70
   2  10  14  236.02   10.77
  -2  10 -14  237.13   12.11
  -2 -10  14  233.19   12.29
  -2 -10  14  232.82    9.15
   2  10  15  106.12    6.39
   2  10  15  106.41    6.55
  -2  10 -15   98.30    7.34
  -2 -10  15  106.67    7.86
  -2 -10  15  101.78    5.04
   2  10  16   33.92    3.64
   2  10  16   36.91    3.83
  -2  10 -16   34.51    4.36
  -2 -10  16   32.00    4.43
   2  10  17   44.69    4.18
   2  10  17   41.48    4.11
  -2  10 -17   33.98    4.62
  -2 -10  17   43.47    5.11
   2  10  18   41.45    4.21
   2  10  18   44.00    4.16
  -2  10 -18   51.25    5.33
  -2 -10  18   47.86    5.44
   2  10  19   12.84    2.47
  -2  10 -19    5.42    2.64
  -2 -10  19    7.21    2.67
   2  10  20  110.56    7.03
  -2  10 -20  125.94    8.74
  -2 -10  20  120.62    8.66
  -2  10 -21   31.16    4.64
  -2 -10  21   28.62    4.30
  -2  10 -22  112.31    8.21
  -2 -10  22  109.89    8.19
  -2  10 -23   26.65    4.13
  -2 -10  23   31.11    4.30
  -2  10 -24   39.83    4.92
  -2 -10  24   34.03    4.30
  -2  10 -25   -0.46    2.05
  -2 -10  25    1.65    1.84
  -2  10 -26   44.51    4.84
  -2  10 -27    8.36    2.46
   2  11 -26   18.18    3.06
   2  11 -25   14.48    3.15
   2  11 -24   57.08    5.49
   2  11 -23   13.94    3.22
   2  11 -22   38.47    4.87
   2  11 -21   43.18    5.26
   2  11 -20  184.94   10.73
   2 -11  20  167.32    9.48
   2  11 -19   45.21    5.18
   2 -11  19   37.46    4.58
   2 -11  19   42.74    4.66
   2 -11  18   23.20    3.78
   2  11 -18   25.71    4.26
   2 -11  18   27.26    3.71
   2  11 -17  131.74    8.88
   2 -11  17  133.62    8.76
   2  11 -16   78.39    6.60
   2 -11  16   70.62    6.11
   2 -11  15   16.92    3.13
   2  11 -15   26.20    4.08
   2  11 -14  149.48    9.39
   2  11 -13  463.87   19.12
  -2 -11 -13  441.81   15.39
   2  11 -12   11.27    3.04
  -2 -11 -12   15.56    2.05
   2  11 -11   50.73    5.21
  -2 -11 -11   52.41    3.66
   2  11 -10   86.19    6.88
  -2 -11 -10  100.52    5.35
   2  11  -9  300.69   13.90
  -2 -11  -9  292.33   11.39
   2  11  -8  143.50    8.85
  -2 -11  -8  162.70    7.42
   2  11  -7  113.44    7.50
  -2 -11  -7  110.31    5.86
   2  11  -6  115.68    7.53
  -2 -11  -6  119.71    6.19
   2  11  -5   62.12    5.47
   2  11  -5   67.58    5.52
  -2 -11  -5   64.46    4.29
  -2  11   4   22.97    2.96
   2  11  -4   23.84    3.43
   2  11  -4   36.37    4.01
  -2 -11  -4   34.85    3.12
  -2  11   3   37.62    3.78
   2  11  -3   33.73    4.14
   2  11  -3   34.98    3.98
  -2 -11  -3   46.53    3.54
   2  11  -2   11.00    2.36
  -2  11   2    9.04    2.08
   2  11  -2    9.03    2.73
  -2 -11  -2    9.41    1.79
   2  11  -1  161.34    9.00
   2  11  -1  155.21    8.53
  -2  11   1  161.55    8.52
  -2 -11  -1  166.97    7.66
   2  11   0  444.03   17.26
   2  11   0  454.27   17.89
  -2  11   0  446.89   17.08
  -2  11   0  437.83   17.22
  -2 -11   0  464.14   16.14
   2  11   1  163.03    8.95
  -2  11  -1  160.64    8.69
  -2  11  -1  173.50    8.63
   2  11   1  149.83    8.30
  -2 -11   1  163.13    7.60
  -2  11  -2   10.78    2.36
   2  11   2   13.26    2.26
   2  11   2    8.07    2.43
  -2  11  -2    5.32    1.79
  -2  11  -3   47.25    4.27
  -2  11  -3   43.56    4.33
   2  11   3   42.32    4.23
   2  11   3   40.66    3.83
  -2  11  -4   32.52    3.65
   2  11   4   31.73    3.41
  -2  11  -4   30.79    3.78
  -2 -11   4   32.83    3.00
  -2  11  -5   60.25    4.93
  -2  11  -5   63.75    5.46
  -2 -11   5   69.45    4.45
  -2  11  -6  109.51    6.85
  -2  11  -6  118.81    7.47
  -2 -11   6  107.79    5.86
  -2  11  -7   97.72    6.92
  -2  11  -7   88.29    6.24
  -2 -11   7  101.34    5.48
  -2  11  -8  167.42    8.99
  -2  11  -8  158.40    9.33
  -2 -11   8  174.54    7.80
  -2  11  -9  283.33   12.93
  -2  11  -9  286.37   13.67
  -2 -11   9  303.97   11.48
  -2  11 -10   89.47    6.76
  -2 -11  10   94.38    5.16
  -2  11 -11   56.06    5.03
  -2  11 -11   55.61    5.39
  -2 -11  11   53.77    3.83
   2  11  12    6.83    1.89
   2  11  12    8.46    1.90
  -2 -11  12    9.99    1.80
   2  11  13  434.78   16.31
   2  11  13  427.34   16.45
  -2  11 -13  435.09   18.63
  -2 -11  13  440.14   15.26
   2  11  14  135.65    7.33
   2  11  14  133.90    7.45
  -2  11 -14  138.82    9.09
  -2 -11  14  128.26    8.82
  -2 -11  14  140.17    6.43
   2  11  15   24.93    3.07
   2  11  15   25.70    3.15
  -2  11 -15   31.91    4.37
  -2 -11  15   29.98    4.41
  -2 -11  15   23.97    2.40
  -2  11 -16   87.25    7.18
  -2 -11  16   86.27    7.28
  -2  11 -17  145.11    9.38
  -2 -11  17  125.45    9.08
  -2  11 -18   23.80    4.10
  -2 -11  18   27.79    4.48
  -2  11 -19   41.81    4.95
  -2 -11  19   33.01    4.54
  -2  11 -20  160.07   10.15
  -2 -11  20  164.63   10.39
  -2  11 -21   32.34    4.55
  -2 -11  21   32.41    4.47
  -2  11 -22   53.61    5.65
  -2 -11  22   33.67    4.72
  -2  11 -23   13.95    3.19
  -2 -11  23    8.75    2.82
  -2  11 -24   47.82    5.10
  -2 -11  24   48.32    4.94
  -2  11 -25   17.72    3.38
  -2  11 -26   25.11    3.67
   2  12 -25    2.22    1.80
   2  12 -24   14.55    3.02
   2  12 -23   24.69    3.76
   2  12 -22  109.54    7.88
   2  12 -21    6.16    2.62
   2  12 -20  179.05   10.50
   2 -12  20  162.16    9.36
   2  12 -19   72.74    6.46
   2 -12  19   65.88    5.80
   2 -12  18   79.75    6.35
   2  12 -18   73.91    6.67
   2  12 -17   15.03    3.26
   2  12 -16   13.51    3.36
   2  12 -15    7.47    2.53
   2 -12  15    5.74    1.40
   2  12 -14   99.75    7.65
   2  12 -13   31.74    4.50
  -2 -12 -13   31.87    2.88
   2  12 -12  334.58   15.75
  -2 -12 -12  335.33   12.58
   2  12 -11  105.29    7.88
  -2 -12 -11  120.14    6.15
   2  12 -10  423.24   18.00
  -2 -12 -10  408.19   14.99
   2  12  -9   16.45    3.35
  -2 -12  -9   23.57    2.65
   2  12  -8   72.05    6.22
  -2 -12  -8   69.75    4.68
   2  12  -7    3.49    2.04
  -2 -12  -7    1.25    1.14
   2  12  -6    3.59    2.36
   2  12  -6    5.93    2.30
  -2 -12  -6    4.55    1.64
   2  12  -5    0.44    2.15
   2  12  -5    1.65    1.84
  -2 -12  -5    2.04    1.43
   2  12  -4  162.18    9.59
   2  12  -4  157.18    9.12
  -2  12   4  162.07    8.68
  -2 -12  -4  160.01    7.82
   2  12  -3   21.07    3.27
  -2  12   3   19.78    2.87
   2  12  -3   14.87    3.09
  -2 -12  -3   20.99    2.67
  -2  12   2   23.91    3.23
   2  12  -2   26.75    3.84
   2  12  -2   28.50    3.60
  -2 -12  -2   25.89    2.91
  -2  12   1    2.83    1.58
   2  12  -1    3.32    1.90
   2  12  -1   -0.41    1.92
  -2 -12  -1    2.56    1.30
  -2  12   0   72.20    5.72
   2  12   0   78.28    5.87
   2  12   0   82.92    6.45
  -2 -12   0   78.16    5.05
  -2  12  -1    2.99    1.67
   2  12   1    3.85    1.74
   2  12   1    1.98    1.89
  -2  12  -1    1.38    1.62
  -2 -12   1    2.03    1.33
   2  12   2   25.36    3.74
  -2  12  -2   30.73    3.85
   2  12   2   28.42    3.40
  -2  12  -2   24.34    3.30
   2  12   3   22.67    3.07
  -2  12  -3   28.74    3.68
  -2  12  -3   20.73    3.11
   2  12   3   25.59    3.56
  -2  12  -4  162.37    8.89
  -2  12  -4  167.02    9.46
  -2 -12   4  164.20    7.92
  -2  12  -5    1.82    1.63
  -2  12  -5    4.14    2.17
  -2 -12   5    4.01    1.45
  -2  12  -6    1.11    1.73
  -2  12  -6    2.55    1.80
  -2 -12   6    1.00    1.36
  -2  12  -7    2.63    1.80
  -2  12  -7   -0.44    2.12
  -2 -12   7    3.48    1.39
  -2  12  -8   71.88    5.68
  -2  12  -8   72.29    6.14
  -2 -12   8   74.78    4.81
  -2  12  -9   18.22    3.16
  -2  12  -9   20.98    3.62
  -2 -12   9   19.04    2.45
  -2  12 -10  405.15   17.11
  -2  12 -10  448.11   18.53
  -2 -12  10  413.63   15.23
  -2  12 -11   99.92    7.01
  -2  12 -11   91.21    7.32
  -2 -12  11  103.07    5.70
  -2  12 -12  335.64   14.74
  -2  12 -12  345.13   15.75
  -2 -12  12  317.61   12.40
  -2  12 -13   30.25    3.86
  -2  12 -13   25.16    4.07
  -2 -12  13   30.00    2.83
  -2  12 -14   95.77    6.90
  -2  12 -14   94.17    7.38
  -2 -12  14   92.56    5.16
  -2  12 -15    7.00    2.38
  -2  12 -15    7.09    2.52
  -2 -12  15    6.26    2.78
  -2 -12  15    4.13    1.25
  -2  12 -16    7.79    2.47
  -2  12 -16    8.69    2.95
  -2 -12  16    7.94    3.14
  -2  12 -17    9.73    2.51
  -2  12 -17    8.21    2.75
  -2 -12  17   10.61    3.20
  -2  12 -18   64.02    5.61
  -2  12 -18   77.98    6.85
  -2 -12  18   63.14    6.35
  -2  12 -19   67.46    5.75
  -2  12 -19   73.35    6.64
  -2 -12  19   80.56    7.05
  -2  12 -20  210.79   11.58
  -2 -12  20  174.27   10.85
  -2  12 -21    6.37    2.49
  -2 -12  21    9.82    2.80
  -2  12 -22  104.96    7.77
  -2 -12  22   97.77    7.42
  -2  12 -23   28.83    4.07
  -2 -12  23   20.63    3.20
  -2  12 -24   13.94    2.96
  -2 -12  24   13.65    2.69
  -2  12 -25    1.94    1.61
   2  13 -23  115.24    7.54
   2  13 -22   20.29    3.56
   2  13 -21  113.52    7.89
   2  13 -20   42.97    4.92
   2  13 -19  209.23   11.46
   2 -13  19  191.67   10.41
   2  13 -18   12.09    2.92
   2 -13  18   12.18    2.80
   2  13 -17   82.66    6.94
   2  13 -16   41.85    4.99
   2  13 -15   55.64    5.75
   2  13 -14   10.56    3.14
   2 -13  14    7.91    1.66
   2  13 -13  175.75   10.55
   2  13 -12   47.00    5.40
  -2 -13 -12   40.60    3.44
   2  13 -11  139.44    9.14
  -2 -13 -11  128.63    6.71
   2  13 -10   37.72    4.82
  -2 -13 -10   34.82    3.32
   2  13  -9  287.34   14.34
  -2 -13  -9  300.42   11.98
   2  13  -8  120.68    8.32
  -2 -13  -8  116.54    6.51
   2  13  -7  336.45   15.47
  -2 -13  -7  330.43   13.12
   2  13  -6  117.96    8.28
  -2 -13  -6  137.06    7.15
   2  13  -5  290.12   13.94
   2  13  -5  248.17   12.86
  -2 -13  -5  265.00   11.32
   2  13  -4    6.05    2.35
   2  13  -4    4.22    2.33
  -2 -13  -4    3.35    1.59
   2  13  -3  150.83    9.22
   2  13  -3  159.26    9.72
  -2  13   3  157.80    8.92
  -2 -13  -3  158.23    7.98
   2  13  -2   31.15    4.01
  -2  13   2   24.89    3.53
   2  13  -2   25.87    4.07
  -2 -13  -2   29.18    3.19
   2  13  -1  355.02   15.30
  -2  13   1  341.49   15.02
   2  13  -1  348.66   15.73
  -2 -13  -1  349.59   13.82
  -2  13   0   28.19    3.79
   2  13   0   26.41    3.61
   2  13   0   20.97    3.78
  -2 -13   0   31.30    3.25
   2  13   1  338.21   15.54
  -2  13  -1  348.76   15.34
   2  13   1  352.43   15.12
  -2 -13   1  361.31   13.96
  -2  13  -2   30.15    4.06
   2  13   2   33.80    4.34
   2  13   2   30.98    3.81
  -2  13  -3  145.41    8.61
  -2  13  -3  151.22    9.15
   2  13   3  169.98    9.09
  -2  13  -4    3.04    2.03
  -2  13  -4    4.62    2.12
  -2 -13   4    4.41    1.61
  -2  13  -5  273.10   13.41
  -2  13  -5  277.68   12.88
  -2 -13   5  272.17   11.48
  -2  13  -6  135.30    8.37
  -2  13  -6  140.76    8.93
  -2 -13   6  144.91    7.38
  -2  13  -7  313.15   14.33
  -2  13  -7  335.71   15.43
  -2 -13   7  331.77   13.06
  -2  13  -8  108.44    7.42
  -2  13  -8  119.23    8.29
  -2 -13   8  115.06    6.44
  -2  13  -9  316.75   14.95
  -2  13  -9  288.10   13.68
  -2 -13   9  309.09   12.30
  -2  13 -10   36.25    4.30
  -2  13 -10   32.93    4.62
  -2 -13  10   37.10    3.42
  -2  13 -11  127.15    8.16
  -2  13 -11  131.10    8.93
  -2 -13  11  135.92    6.89
  -2  13 -12   38.58    4.42
  -2  13 -12   37.31    4.73
  -2 -13  12   38.90    3.42
  -2  13 -13  190.45   10.26
  -2  13 -13  190.16   11.11
  -2 -13  13  182.05    8.24
  -2  13 -14    9.88    2.67
  -2  13 -14    4.60    2.50
  -2 -13  14    6.55    1.53
  -2  13 -15   55.72    5.34
  -2  13 -15   73.10    6.42
  -2 -13  15   60.13    3.92
  -2 -13  15   56.39    6.18
  -2  13 -16   33.51    4.11
  -2  13 -16   31.10    4.44
  -2 -13  16   30.38    4.58
  -2  13 -17   94.98    6.73
  -2  13 -17   90.01    7.30
  -2 -13  17   80.23    7.08
  -2  13 -18   14.93    3.09
  -2 -13  18   10.93    3.10
  -2  13 -19  203.60   11.44
  -2 -13  19  193.23   11.33
  -2  13 -20   28.82    4.39
  -2 -13  20   37.37    4.74
  -2  13 -21  114.87    7.99
  -2 -13  21  108.18    7.91
  -2  13 -22   21.52    3.56
  -2 -13  22   24.00    3.65
  -2  13 -23  104.68    7.29
  -2 -13  23  100.52    7.04
  -2  13 -24   28.47    3.76
   2  14 -22   67.37    5.52
   2  14 -22   72.11    5.62
   2  14 -21    9.89    2.71
   2  14 -21    7.72    2.36
   2  14 -20  152.12    9.16
   2  14 -20  152.83    9.16
   2  14 -19   31.20    4.22
   2  14 -19   30.67    4.07
   2 -14  19   26.64    3.67
   2  14 -18   44.18    5.19
   2  14 -18   50.79    5.24
   2 -14  18   48.66    5.02
   2  14 -17    0.48    2.09
   2  14 -17    2.78    2.17
   2 -14  17    1.68    1.83
   2  14 -16    4.94    2.50
   2  14 -16    6.65    2.66
   2  14 -15    1.01    2.35
   2  14 -15   -0.97    2.16
   2  14 -14   33.24    4.61
   2  14 -14   25.50    4.11
   2 -14  14   29.82    2.85
   2  14 -13   13.95    3.29
   2  14 -13   22.25    4.05
   2 -14  13   16.64    2.31
   2  14 -12  237.57   12.89
   2  14 -12  229.86   12.45
  -2 -14 -12  225.06    9.65
   2  14 -11   59.38    6.22
   2  14 -11   71.01    6.37
  -2 -14 -11   54.66    4.20
   2  14 -10   54.44    5.85
  -2 -14 -10   60.24    4.41
   2  14  -9   86.40    7.13
  -2 -14  -9   79.47    5.26
   2  14  -8   17.00    3.52
  -2 -14  -8   10.04    2.11
   2  14  -7   33.52    4.61
  -2 -14  -7   33.04    3.47
   2  14  -6  123.41    8.46
  -2 -14  -6  116.51    6.69
   2  14  -5   58.62    5.70
  -2 -14  -5   53.75    4.37
   2  14  -4  196.42   10.92
   2  14  -4  197.89   11.27
  -2 -14  -4  186.19    9.16
   2  14  -3   23.73    3.61
   2  14  -3   32.99    4.48
  -2 -14  -3   29.54    3.39
   2  14  -2  182.65   10.91
   2  14  -2  198.69   10.68
  -2  14   2  202.79   10.58
  -2 -14  -2  192.91    9.37
   2  14  -1    2.52    2.05
  -2  14   1    7.74    2.25
   2  14  -1    6.11    2.75
  -2 -14  -1    5.69    1.78
  -2  14   0   12.81    2.78
   2  14   0    6.14    2.20
   2  14   0   13.95    3.31
  -2 -14   0   14.06    2.47
  -2  14  -1    6.35    2.11
  -2 -14   1    3.28    1.78
  -2  14  -2  197.58   10.94
   2  14   2  218.49   11.01
  -2  14  -3   27.01    3.90
  -2  14  -4  215.43   10.93
  -2  14  -4  187.56   10.90
  -2 -14   4  210.97    9.70
  -2  14  -5   57.72    5.26
  -2  14  -5   55.57    5.59
  -2 -14   5   53.12    4.43
  -2  14  -6  107.33    7.40
  -2  14  -6  113.67    8.14
  -2 -14   6  119.57    6.72
  -2  14  -7   32.10    4.44
  -2  14  -7   30.31    3.88
  -2 -14   7   32.50    3.48
  -2  14  -8   17.51    3.53
  -2  14  -8    9.89    2.68
  -2 -14   8   13.19    2.28
  -2  14  -9   83.03    6.46
  -2  14  -9   78.33    6.82
  -2 -14   9   81.44    5.29
  -2  14 -10   53.31    5.17
  -2  14 -10   63.69    6.09
  -2 -14  10   52.52    4.16
  -2  14 -11   47.79    4.96
  -2  14 -11   63.14    6.14
  -2 -14  11   55.43    4.19
  -2  14 -12  244.75   12.02
  -2  14 -12  219.29   12.46
   2 -14 -12  259.49   10.43
  -2 -14  12  235.63   10.11
  -2  14 -13   14.50    2.90
  -2  14 -13   13.59    3.34
  -2 -14  13   11.63    1.99
  -2  14 -14   26.05    3.68
  -2  14 -14   32.06    4.56
  -2 -14  14   25.34    2.66
  -2  14 -15    0.38    1.63
  -2  14 -15   -0.99    2.32
  -2  14 -16    7.39    2.20
  -2  14 -16   11.73    3.09
  -2 -14  16    4.69    2.50
  -2  14 -17    0.96    1.92
  -2 -14  17    4.07    2.58
  -2  14 -18   43.69    5.25
  -2 -14  18   53.96    5.62
  -2  14 -19   33.14    4.35
  -2 -14  19   26.04    3.91
  -2  14 -20  162.28    9.50
  -2 -14  20  158.25    9.53
  -2  14 -21    6.44    2.52
  -2 -14  21   12.07    2.90
  -2  14 -22   83.37    6.19
   2  15 -20    1.74    1.66
   2  15 -20    0.36    1.57
   2  15 -19   33.33    4.06
   2  15 -19   49.52    4.84
   2  15 -18   22.23    3.55
   2  15 -18   22.87    3.49
   2 -15  18   21.88    3.18
   2  15 -17   13.42    3.06
   2  15 -17   10.33    2.60
   2 -15  17   15.67    3.02
   2  15 -16   -0.45    1.91
   2  15 -16    2.58    2.09
   2 -15  16    1.23    1.60
   2  15 -15   36.80    4.55
   2  15 -15   40.11    4.88
   2  15 -14    4.10    2.43
   2  15 -14    6.71    2.48
   2  15 -13    0.93    2.08
   2  15 -13    3.43    2.34
   2 -15  13    6.27    1.53
   2  15 -12   44.29    4.98
   2  15 -12   41.89    5.12
   2 -15  12   41.56    3.49
  -2 -15 -12   28.58    2.94
   2  15 -11   78.35    6.88
   2  15 -11   85.68    6.94
   2 -15  11   87.53    5.37
  -2 -15 -11   89.37    5.37
   2  15 -10    9.10    2.69
   2  15 -10    9.18    3.03
  -2 -15 -10    8.07    1.81
   2  15  -9  254.67   12.93
  -2 -15  -9  234.08   10.40
   2  15  -8   16.74    3.52
  -2 -15  -8   18.04    2.61
   2  15  -7   50.30    5.33
  -2 -15  -7   46.05    4.09
   2  15  -6    2.34    2.41
  -2 -15  -6    4.73    1.85
   2  15  -5  243.84   12.45
  -2 -15  -5  225.13   10.46
   2  15  -4    0.90    1.81
  -2 -15  -4    1.52    1.42
   2  15  -3  273.41   13.83
   2  15  -3  264.78   13.10
  -2 -15  -3  264.14   11.66
   2  15  -2   82.97    7.06
   2  15  -2   81.65    6.50
  -2 -15  -2   77.14    5.48
   2  15  -1  114.35    8.36
   2  15  -1  115.41    7.84
  -2  15   1  115.95    7.75
  -2 -15  -1  117.00    6.90
  -2  15   0   14.43    2.88
   2  15   0   13.51    2.75
  -2 -15   0    9.91    2.24
  -2  15  -1  106.58    7.47
  -2 -15   1  106.74    6.51
  -2  15  -2   94.37    6.98
  -2  15  -3  266.87   13.27
  -2  15  -4    3.63    2.07
  -2 -15   4    2.44    1.73
  -2  15  -5  247.76   12.60
  -2 -15   5  233.58   10.67
  -2  15  -6    4.70    2.51
  -2 -15   6    4.17    1.77
  -2  15  -7   38.53    4.79
  -2  15  -7   32.19    4.06
  -2 -15   7   32.48    3.45
  -2  15  -8   14.89    3.44
  -2  15  -8   18.60    3.21
  -2 -15   8   18.04    2.60
  -2  15  -9  246.12   11.98
  -2  15  -9  249.26   12.93
  -2 -15   9  246.56   10.70
  -2  15 -10    8.71    2.99
  -2  15 -10    9.09    2.54
  -2 -15  10   11.53    2.17
  -2  15 -11   77.69    6.15
  -2  15 -11   97.98    7.45
   2 -15 -11   85.02    5.34
  -2 -15  11   79.34    5.12
  -2 -15  12   43.61    5.26
  -2  15 -12   45.22    4.58
  -2  15 -12   45.57    5.20
   2 -15 -12   34.01    3.27
  -2 -15  12   33.72    3.25
  -2  15 -13    2.37    2.12
  -2  15 -13    8.85    2.44
  -2 -15  13    6.21    2.81
  -2 -15  13    7.39    1.69
  -2  15 -14    4.67    2.23
  -2  15 -14    5.67    1.99
  -2  15 -15   37.89    4.57
  -2  15 -16    3.10    2.24
  -2 -15  16    1.96    1.91
  -2  15 -17   12.40    2.97
  -2 -15  17   13.17    3.09
  -2  15 -18   19.63    3.45
  -2 -15  18   21.16    3.74
  -2  15 -19   43.77    4.60
  -2 -15  19   46.55    4.93
  -2  15 -20   -0.36    1.58
  -2 -15  20    1.18    1.53
   2  16 -17    0.35    1.52
   2  16 -17    1.11    1.76
   2 -16  17    1.38    1.50
   2  16 -16    3.68    1.96
   2  16 -16    4.30    2.05
   2 -16  16    2.22    1.95
   2  16 -15   32.36    4.07
   2  16 -15   31.57    4.01
   2  16 -14   44.43    4.86
   2  16 -14   39.65    4.43
   2  16 -13    4.96    2.39
   2  16 -13    9.28    2.70
   2  16 -12  309.71   14.64
   2  16 -12  293.97   14.12
   2 -16  12  322.08   12.04
   2  16 -11   23.40    3.78
   2  16 -11   25.58    3.95
  -2 -16 -11   23.48    2.63
   2 -16  11   22.96    2.71
   2  16 -10   31.20    4.26
   2  16 -10   24.59    4.06
  -2 -16 -10   27.05    2.94
   2 -16  10   27.81    3.03
   2  16  -9   32.81    4.34
   2  16  -9   38.28    4.85
  -2 -16  -9   32.24    3.29
   2 -16   9   37.36    3.52
   2  16  -8   26.63    3.96
  -2 -16  -8   28.56    3.16
   2 -16   8   26.26    3.11
   2  16  -7    7.99    2.60
  -2 -16  -7    8.72    2.06
   2  16  -6  164.19    9.64
  -2 -16  -6  152.85    7.92
   2  16  -5   12.29    2.79
  -2 -16  -5    9.15    2.21
   2  16  -4  361.13   16.00
  -2 -16  -4  359.38   14.33
   2  16  -3    8.62    2.57
  -2 -16  -3    8.50    2.17
   2  16  -2   44.39    4.86
  -2 -16  -2   43.47    4.14
   2  16  -1   11.46    2.70
  -2 -16  -1   14.47    2.65
  -2 -16   0    1.23    1.34
  -2  16  -1    9.32    2.78
  -2 -16   1    8.33    2.16
  -2  16  -2   53.68    5.26
  -2  16  -3    9.90    2.63
  -2  16  -4  356.87   15.68
  -2 -16   4  343.17   13.97
  -2  16  -5    9.70    2.96
  -2 -16   5   10.49    2.37
  -2  16  -6  157.82    9.54
  -2 -16   6  171.38    8.46
  -2  16  -7   10.75    3.00
  -2 -16   7    6.91    1.91
  -2  16  -8   22.44    3.65
   2 -16  -8   27.66    3.16
  -2 -16   8   25.45    2.94
  -2  16  -9   34.94    4.47
  -2 -16   9   36.82    3.48
   2 -16  -9   34.80    3.42
  -2  16 -10   30.38    4.14
   2 -16 -10   37.97    3.51
  -2 -16  10   30.64    3.17
  -2  16 -11   32.26    4.35
   2 -16 -11   29.21    2.94
  -2 -16  11   21.39    3.90
  -2 -16  11   18.58    2.53
  -2  16 -12  305.77   14.34
  -2 -16  12  294.71   11.62
  -2 -16  12  329.23   15.30
  -2  16 -13    7.64    2.46
  -2 -16  13    9.68    2.95
  -2  16 -14   38.38    4.55
  -2  16 -15   29.08    3.90
  -2  16 -16    5.72    2.20
  -2 -16  16    3.96    2.27
  -2  16 -17    1.09    1.69
  -2 -16  17    1.67    1.72
  -2  16 -18    2.72    1.82
  -2 -16  18    0.39    1.47
   2  17 -15    4.37    1.72
   2  17 -15    3.69    1.85
   2  17 -14   15.61    2.79
   2  17 -14   14.44    2.68
   2 -17  14   12.26    2.61
   2  17 -13    7.91    2.25
   2  17 -13    4.47    1.99
   2  17 -12   70.17    5.74
   2  17 -12   72.34    5.67
   2  17 -11   17.70    3.05
   2  17 -11   10.04    2.60
   2 -17  11   15.44    2.08
   2  17 -10   39.67    4.55
   2  17 -10   35.13    4.12
   2 -17  10   38.01    3.33
  -2 -17 -10   32.22    3.02
   2  17  -9  111.80    7.41
   2  17  -9  105.82    7.52
   2 -17   9  118.48    6.23
  -2 -17  -9  114.71    6.13
   2  17  -8  115.73    7.85
   2  17  -8  118.32    7.56
   2 -17   8  107.19    6.10
  -2 -17  -8  108.84    6.08
   2  17  -7   58.73    5.38
   2 -17   7   69.36    4.78
  -2 -17  -7   67.62    4.69
   2  17  -6    5.17    2.33
  -2 -17  -6    9.38    2.10
   2 -17   6   10.43    2.20
   2 -17   5   29.12    3.27
  -2 -17  -5   25.04    3.04
  -2 -17  -4  152.18    7.99
   2 -17   4  154.09    7.95
   2  17  -3  275.35   12.72
  -2 -17  -3  248.34   11.06
  -2 -17  -2   30.36    3.40
  -2 -17  -1   76.63    5.30
  -2 -17   0   80.49    5.46
  -2 -17   1   61.25    4.72
   2 -17  -2   28.16    3.18
  -2  17  -3  259.61   12.70
   2 -17  -3  280.68   11.61
  -2  17  -4  165.24    9.38
   2 -17  -4  164.37    8.15
  -2 -17   4  162.11    8.21
  -2  17  -5   32.03    4.11
   2 -17  -5   31.70    3.30
  -2 -17   5   31.73    3.38
  -2  17  -6    6.01    2.29
   2 -17  -6   10.85    2.20
  -2 -17   6    7.20    1.94
  -2  17  -7   66.20    5.72
   2 -17  -7   72.56    4.91
  -2 -17   7   69.88    4.86
  -2  17  -8  100.53    7.18
  -2 -17   8  111.67    6.26
   2 -17  -8  120.99    6.39
  -2 -17   9  123.54    8.44
  -2  17  -9  116.19    7.67
   2 -17  -9  121.79    6.43
  -2 -17   9  118.01    6.36
  -2  17 -10   37.90    4.30
   2 -17 -10   37.84    3.33
  -2 -17  10   33.38    3.15
  -2 -17  10   28.18    4.11
  -2  17 -11   18.86    3.18
  -2 -17  11   18.35    2.26
  -2 -17  11   16.82    3.35
   2 -17 -11   17.61    2.26
  -2  17 -12   66.54    5.54
  -2 -17  12   66.97    6.06
  -2  17 -13   10.33    2.51
  -2 -17  13    2.60    1.89
  -2  17 -14   11.94    2.58
  -2 -17  14   16.18    3.18
  -2  17 -15    4.21    1.87
   2  18 -11    2.65    1.49
   2  18 -10    7.04    2.10
   2  18  -9   11.71    2.38
  -2 -18  -9   15.05    2.00
   2 -18   9   16.05    2.10
   2  18  -8    1.95    1.56
  -2 -18  -8    0.43    1.15
   2 -18   8    4.60    1.45
   2  18  -7    4.01    1.87
   2 -18   7    4.60    1.45
  -2 -18  -7    2.69    1.24
   2  18  -6   10.61    2.39
   2 -18   6    8.11    1.77
  -2 -18  -6    9.80    1.92
  -2 -18  -5   19.76    2.51
   2 -18   5   16.65    2.30
   2 -18   4   58.51    4.26
  -2 -18  -4   51.53    4.06
   2 -18   3   10.61    2.06
  -2 -18  -3    9.12    2.02
  -2 -18  -2  236.80   10.19
   2 -18   1   12.99    2.19
  -2 -18  -1   11.46    2.07
   2 -18   0   80.96    5.12
  -2 -18   0   75.74    5.06
  -2 -18   1   13.13    2.19
   2 -18  -1   10.40    2.06
   2 -18  -2  229.88    9.90
   2 -18  -3   12.77    2.17
  -2 -18   4   46.42    3.92
   2 -18  -4   49.82    3.89
   2 -18  -5   19.02    2.50
  -2 -18   5   27.08    3.00
  -2  18  -6    8.62    2.27
  -2 -18   6    5.39    2.50
  -2 -18   6    8.52    1.87
   2 -18  -6   10.96    2.05
  -2  18  -7    1.02    1.44
  -2 -18   7    3.05    1.37
   2 -18  -7    2.77    1.23
  -2 -18   7    3.33    2.03
  -2  18  -8    5.31    1.94
  -2 -18   8    3.11    1.34
  -2 -18   8   -0.41    1.72
   2 -18  -8    3.98    1.35
  -2  18  -9   23.96    3.18
  -2 -18   9   17.81    2.24
   2 -18  -9   18.82    2.27
  -2 -18   9   21.71    3.43
  -2  18 -10   10.38    2.29
  -2 -18  10   11.29    2.68
  -2  18 -11    4.56    1.81
  -2 -18  11    3.92    1.95
  -2 -19  -4   57.58    3.95
   2 -19   4   63.18    4.07
  -2 -19  -3   18.50    2.32
   2 -19   3   17.39    2.21
  -2 -19  -2   32.89    3.02
   2 -19   1   28.53    2.80
  -2 -19  -1   33.05    2.96
   2 -19   0    5.97    1.54
  -2 -19   0    7.44    1.73
   2 -19  -1   35.07    3.05
  -2 -19   1   30.28    2.90
   2 -19  -2   31.06    2.90
  -2 -19   3   16.84    2.23
   2 -19  -3   18.80    2.30
   2 -19  -4   71.73    4.34
  -2 -19   4   59.70    4.10
  -3   0   0    0.44    1.25
  -3   0  -1    3.84    1.48
  -3   0   1    5.31    1.57
  -3   0   2   90.70    5.08
   3   0  -2   80.76    5.11
  -3   0   3   93.05    5.29
   3   0  -3   89.39    5.57
  -3   0   4  431.98   15.28
   3   0  -4  392.51   15.44
  -3   0   5    1.30    1.34
   3   0  -5    0.30    1.22
  -3   0   6  930.45   28.69
  -3   0   6  994.35   31.16
   3   0  -6  994.24   31.72
  -3   0   6  929.67   28.81
  -3   0   7  136.61    6.13
   3   0  -7  137.41    8.00
  -3   0   7  145.39    7.81
  -3   0   8  282.53   10.62
  -3   0   8  288.04   12.80
   3   0  -8  272.22   12.88
   3   0   9   20.62    2.16
  -3   0   9   19.35    2.14
   3   0   9   18.55    2.13
  -3   0   9   24.19    3.36
   3   0  -9   19.86    3.20
  -3   0   9   20.59    1.96
  -3   0   9   22.58    2.49
  -3   0   9   21.67    2.57
  -3   0   9   23.07    2.47
   3   0  10 2369.47   68.37
  -3   0  10 2351.98   72.65
   3   0 -10 2384.97   73.35
  -3   0  10 2369.87   68.36
   3   0  10 2352.43   68.55
  -3   0  10 2359.71   69.16
  -3   0  10 2315.04   67.80
  -3   0  10 2386.68   69.67
  -3   0  10 2397.93   68.91
   3   0 -11    1.04    1.52
   3   0  11    0.20    1.08
   3   0  11   -0.42    1.20
  -3   0  11    1.43    1.39
  -3   0  11   -0.26    1.48
  -3   0  11    0.67    0.93
  -3   0  11    0.20    1.12
  -3   0  11    1.98    1.60
  -3   0  11   -0.23    1.17
   3   0  12  111.02    5.66
  -3   0  12   91.98    5.33
   3   0 -12   88.16    7.62
   3   0  12  100.10    5.59
  -3   0  12  109.72    5.31
  -3   0  12  102.13    6.22
  -3   0  12  102.38    6.44
  -3   0  12   97.25    5.65
   3   0  13  120.86    6.32
   3   0 -13  122.60    9.42
   3   0  13  119.28    6.46
  -3   0  13  125.91    6.41
  -3   0  13  105.97    6.77
  -3   0  13  121.85    5.97
  -3   0  13  115.82    7.18
  -3   0  13  125.84    6.62
   3   0  14 1674.30   51.12
  -3   0 -14 1618.06   56.23
  -3   0  14 1700.14   51.32
   3   0 -14 1607.11   57.40
   3   0  14 1713.90   51.59
  -3   0  14 1680.79   52.85
  -3   0  14 1790.58   50.76
  -3   0  14 1692.75   53.02
  -3   0  14 1698.59   51.62
   3   0  15   32.14    3.26
   3   0  15   28.61    3.19
  -3   0  15   29.00    3.81
  -3   0  15   30.15    2.97
  -3   0  15   23.09    2.94
  -3   0  15   26.20    3.69
  -3   0  15   32.17    3.36
  -3   0  16  169.38    8.60
   3   0  16  185.75    8.85
   3   0  16  194.39    9.19
  -3   0  16  153.52    9.50
  -3   0  16  176.96    8.23
  -3   0  16  167.32    9.86
  -3   0  16  175.12    8.93
   3   0  17    6.13    2.05
  -3   0  17    4.47    1.74
  -3   0  17    3.68    2.01
  -3   0  17    5.39    1.60
   3   0  17    8.34    2.48
  -3   0  17    6.90    2.54
  -3   0  17    5.80    1.94
   3   0  18  749.48   26.51
  -3   0  18  750.28   26.18
  -3   0  18  715.73   28.25
  -3   0  18  737.17   25.37
  -3   0  18  751.71   28.32
   3   0  18  744.19   27.46
  -3   0  18  812.89   26.80
   3   0  19   14.11    2.92
  -3   0  19   22.20    3.97
  -3   0  19   13.20    2.69
  -3   0  19   14.64    2.65
  -3   0  19   16.30    3.47
   3   0  19   19.93    3.58
  -3   0  19   21.26    3.21
   3   0  20   13.83    2.87
  -3   0  20   10.94    2.70
  -3   0  20   10.29    2.39
  -3   0  20    8.72    3.27
  -3   0  20    6.14    2.78
   3   0  20    5.61    2.55
  -3   0  20   14.28    2.88
  -3   0  21   13.69    3.49
  -3   0  21    8.80    2.39
  -3   0  21   10.33    2.68
   3   0  21    7.56    2.78
  -3   0  21    9.43    3.26
   3   0  21    7.10    2.83
  -3   0  21    9.47    2.49
  -3   0  22   13.89    3.10
  -3   0  22   14.49    3.97
  -3   0  22   13.31    2.74
   3   0  22   15.95    3.62
   3   0  22   15.64    3.88
  -3   0  22   10.15    2.60
  -3   0  23    4.84    2.94
   3   0  23    4.41    2.57
   3   0  23    6.70    3.03
  -3   0  23    4.72    2.01
   3   0  24   15.81    3.67
  -3   0  24   11.43    4.19
   3   0  24   15.70    3.61
   3   0  25    3.89    2.45
  -3   0  25    4.38    2.57
   3   0  26  842.87   33.15
  -3   0  26  848.89   34.17
   3   0  27    1.31    2.39
  -3   0  27    1.45    2.65
   3   0  28   -1.29    2.51
   3   0  29   44.64    5.80
   3   0  30  230.73   13.22
   3   0  31    4.26    2.38
   3   0  31    7.31    2.26
   3   0  31    8.31    2.72
   3   0  32    7.10    2.53
   3   0  32    4.47    2.03
   3   0  32    7.53    2.19
   3  -1  32    5.75    2.34
   3  -1  31   21.49    3.96
   3  -1  30   67.43    6.96
   3  -1  29   27.44    4.72
   3  -1  29   22.24    4.08
   3  -1  29   25.72    3.65
   3  -1  28   55.66    5.85
   3  -1  28   58.26    6.72
   3  -1  28   62.38    5.57
   3  -1  27  170.19   10.59
   3  -1  27  155.44   11.17
   3  -1  27  162.56    9.57
   3  -1  26   88.46    7.42
   3  -1  26   86.03    8.32
   3  -1  26   99.90    7.19
   3  -1  25   45.09    6.09
   3  -1  25   34.37    4.40
   3  -1  25   33.26    4.85
   3  -1  24   39.55    5.67
   3  -1  24   38.25    4.38
   3  -1  24   29.49    4.37
   3  -1  23   65.42    6.20
  -3   1  23   57.45    5.54
  -3   1  23   53.77    5.00
   3  -1  23   65.04    6.93
  -3   1  22   21.38    3.22
  -3   1  22   21.35    3.42
   3  -1  22   19.80    3.65
   3  -1  22   11.09    3.26
   3  -1  21   12.54    3.07
  -3   1  21    9.81    2.30
  -3   1  21   12.36    2.79
   3  -1  21    9.91    3.14
  -3   1  21   12.98    2.78
   3  -1  20   49.37    5.02
  -3   1  20   48.54    4.70
  -3   1  20   52.54    4.51
   3  -1  20   43.84    5.26
  -3   1  20   55.24    4.95
  -3   1  19    9.88    2.30
  -3   1  19   12.51    2.32
   3  -1  19    7.52    2.54
   3  -1  19   15.24    3.23
  -3   1  19   11.61    2.55
   3  -1  18  134.55    8.26
  -3   1  18  155.81    8.25
  -3   1  18  157.39    7.77
   3  -1  18  146.18    9.07
  -3   1  18  154.91    9.77
  -3   1  18  139.87    8.16
   3  -1  17   20.51    3.25
  -3   1  17   17.51    2.51
  -3   1  17   15.90    2.66
  -3   1  17   17.48    3.27
  -3   1  17   21.22    2.96
  -3   1  16   58.55    4.52
   3  -1  16   54.26    4.67
  -3   1  16   65.38    4.32
  -3   1  16   59.61    5.50
  -3   1  16   50.22    4.46
   3  -1  15    1.47    1.46
   3  -1  15    2.46    1.43
  -3   1  15    2.87    1.48
  -3   1  15    1.97    1.17
  -3   1  15    0.80    1.94
  -3   1  15    2.99    1.57
   3  -1  14  198.24    9.07
   3  -1  14  197.25    9.21
  -3   1  14  217.95    9.13
  -3   1  14  208.21    8.53
  -3   1  14  187.02   10.15
  -3   1  14  189.90    9.12
  -3   1  13  239.71   10.00
   3   1 -13  237.48   14.13
   3  -1  13  247.76   10.23
   3  -1  13  250.05   10.39
  -3   1  13  250.85    9.61
  -3   1  13  247.02   11.42
  -3   1  13  243.04   10.44
  -3   1  12   26.88    2.64
   3  -1  12   25.28    2.63
   3   1 -12   23.19    4.07
   3  -1  12   24.26    2.71
  -3   1  12   28.49    2.45
  -3   1  12   23.43    3.12
  -3   1  12   25.41    2.79
   3   1 -11  308.96   15.66
   3  -1  11  328.26   11.84
   3  -1  11  325.48   11.97
  -3   1  11  321.08   11.61
  -3   1  11  306.79   11.09
  -3   1  11  323.24   12.97
  -3   1  11  299.10   11.98
  -3   1  10   22.28    2.00
   3  -1  10   20.74    2.23
   3  -1  10   24.55    2.44
  -3   1  10   18.86    2.07
   3   1 -10   23.61    3.78
  -3   1  10   24.70    2.56
  -3   1   9  822.42   24.77
   3  -1   9  776.33   25.23
  -3   1   9  796.68   28.59
   3  -1   9  810.23   25.51
   3   1  -9  873.10   30.26
  -3   1   9  860.49   25.28
  -3   1   9  827.42   25.99
   3  -1   8    2.48    1.12
   3  -1   8    4.70    1.24
  -3   1   8    1.67    1.34
   3   1  -8    3.82    1.98
   3  -1   7   97.53    4.47
  -3   1   7   93.18    5.93
   3  -1   7   90.44    4.44
   3   1  -7   95.23    6.67
  -3   1   6  143.09    7.48
   3   1  -6  161.70    8.73
  -3   1   6  151.21    6.47
  -3   1   5  150.31    7.32
   3   1  -5  153.55    8.40
   3   1  -4  100.57    6.43
  -3   1   4  103.35    5.50
   3   1  -3  884.42   28.77
  -3   1   3  847.37   26.83
   3   1  -2   27.35    3.20
  -3   1   2   30.30    2.56
  -3   1   1  221.53    8.76
  -3  -1  -1  240.00   10.25
  -3   1   0   95.87    4.85
  -3  -1   0   93.60    5.78
  -3   1  -1  246.25    9.36
  -3  -1   1  230.05   10.22
   3  -1  -2   29.78    2.74
  -3  -1   2   34.49    3.35
  -3  -1   3  843.35   27.68
   3  -1  -3  850.49   26.98
  -3  -1   4  108.19    6.29
   3  -1  -4  100.87    5.76
   3  -1  -5  156.85    7.83
  -3  -1   5  163.45    8.27
  -3  -1   6  160.26    6.64
   3  -1  -6  157.18    8.17
  -3  -1   6  175.66    8.74
  -3  -1   6  159.22    6.69
  -3  -1   7   87.23    4.55
   3  -1  -7   91.98    6.08
  -3  -1   7   89.17    4.58
  -3  -1   8    5.60    1.89
   3  -1  -8    4.41    1.83
  -3  -1   8    3.23    1.38
  -3  -1   8    4.62    1.35
  -3  -1   9  842.83   29.03
   3  -1  -9  809.27   28.78
  -3  -1   9  820.40   25.88
  -3  -1   9  782.07   26.00
   3   1  10   24.07    2.40
   3   1  10   20.22    2.30
   3  -1 -10   22.12    3.35
  -3  -1  10   23.08    2.52
  -3  -1  10   24.37    3.60
  -3  -1  10   19.28    2.56
  -3  -1  10   23.48    2.25
  -3  -1  10   18.93    2.51
  -3  -1  10   25.16    2.59
   3   1  11  322.46   11.79
   3  -1 -11  309.64   15.18
   3   1  11  335.19   12.01
  -3  -1  11  321.56   11.93
  -3  -1  11  290.82   14.80
  -3  -1  11  315.73   12.56
  -3  -1  11  300.00   11.32
  -3  -1  11  311.88   12.72
  -3  -1  11  281.92   11.81
   3  -1 -12   22.51    3.83
   3   1  12   25.36    2.67
  -3  -1  12   19.80    2.48
   3   1  12   24.60    2.62
  -3   1 -12   20.65    3.50
  -3  -1  12   26.17    4.23
  -3  -1  12   23.98    2.88
  -3  -1  12   23.10    2.44
  -3  -1  12   29.19    3.31
  -3  -1  12   19.54    2.49
  -3  -1  13  224.67   13.55
  -3  -1  13  244.91   10.35
  -3   1 -13  226.84   12.78
   3  -1 -13  218.05   13.38
   3   1  13  256.39   10.29
   3   1  13  233.13   10.19
  -3  -1  13  262.83   10.08
  -3  -1  13  235.43   10.91
  -3  -1  13  235.94   11.16
  -3  -1  13  253.67   10.61
   3   1  14  202.81    9.21
   3  -1 -14  208.96   13.16
  -3   1 -14  196.81   12.10
  -3  -1  14  219.81    9.64
   3   1  14  216.35    9.67
  -3  -1  14  210.94   10.46
  -3  -1  14  206.12    9.00
  -3  -1  14  200.94   10.36
  -3  -1  14  214.99    9.71
   3   1  15    2.75    1.63
   3   1  15    2.93    1.69
  -3  -1  15    2.71    1.27
  -3  -1  15    3.19    1.44
  -3  -1  15    1.17    1.74
   3   1  15    4.56    1.71
  -3  -1  15    1.59    1.73
  -3  -1  15    0.92    1.40
   3   1  16   55.31    4.49
  -3  -1  16   55.47    4.62
   3   1  16   52.93    4.53
  -3  -1  16   59.22    5.45
  -3  -1  16   60.61    4.40
  -3  -1  16   51.82    5.19
   3   1  16   62.48    5.12
  -3  -1  16   49.05    4.45
   3   1  17   12.65    2.70
   3   1  17   20.07    2.95
  -3  -1  17   12.46    3.12
  -3  -1  17   19.31    2.69
  -3  -1  17   16.39    2.67
   3   1  17   15.50    3.01
  -3  -1  17   23.49    3.70
  -3  -1  17   14.96    2.71
  -3  -1  18  160.34    8.61
  -3  -1  18  151.10    9.77
  -3  -1  18  138.16    7.61
  -3  -1  18  128.06    9.01
   3   1  18  138.98    8.79
  -3  -1  18  161.39    8.69
  -3  -1  19    7.62    2.86
  -3  -1  19    3.90    1.88
  -3  -1  19    5.73    2.17
   3   1  19    7.04    2.75
  -3  -1  19    7.40    2.63
  -3  -1  19    2.72    1.94
  -3  -1  20   46.21    4.75
  -3  -1  20   51.23    5.86
  -3  -1  20   54.88    4.72
   3   1  20   59.17    5.83
  -3  -1  20   53.34    6.02
  -3  -1  20   57.81    5.21
  -3  -1  21    8.03    2.23
  -3  -1  21    4.36    2.72
  -3  -1  21    5.57    2.33
  -3  -1  21    5.93    2.84
   3   1  21    9.73    3.21
  -3  -1  21    5.07    2.26
  -3  -1  22   25.01    4.57
  -3  -1  22   21.77    4.20
   3   1  22   17.77    3.96
  -3  -1  22   23.84    3.58
  -3  -1  23   65.54    7.24
   3   1  23   64.92    6.81
  -3  -1  23   65.48    5.82
  -3  -1  24   34.20    5.67
   3   1  24   33.07    5.06
  -3  -1  24   35.58    4.40
  -3  -1  25   41.51    6.22
   3   1  25   33.99    5.32
  -3  -1  25   33.16    4.20
   3   1  26  101.27    8.77
  -3  -1  26  105.48    9.57
   3   1  27  175.21   10.76
   3   1  27  166.21   11.52
  -3  -1  27  164.11   12.02
   3   1  27  167.13    9.76
   3   1  28   50.67    5.69
   3   1  28   59.72    6.67
   3   1  28   69.63    5.78
   3   1  29   27.88    4.83
   3   1  29   30.91    3.97
   3   1  29   31.62    4.33
   3   1  30   60.94    5.83
   3   1  30   64.00    6.55
   3   1  30   63.60    5.41
   3   1  31   10.84    3.12
   3   1  31   18.40    3.35
   3   1  31   13.98    2.73
   3   1  32    2.92    1.85
   3   1  32    4.28    1.82
   3  -2  32    3.30    1.92
   3  -2  32    2.18    1.61
   3  -2  31    9.84    2.66
   3  -2  31    9.35    2.33
   3  -2  30  118.87    7.46
   3  -2  30  103.19    7.69
   3  -2  29   28.16    4.36
   3  -2  29   30.66    3.98
   3  -2  28    5.83    2.43
   3  -2  28    2.50    2.18
   3  -2  27    9.41    2.84
  -3   2  27    8.54    3.41
   3  -2  27   15.99    3.56
   3  -2  26  211.17   11.40
  -3   2  26  216.74   13.99
   3  -2  26  233.04   12.70
  -3   2  25  147.72   11.18
   3  -2  25  149.74    9.08
   3  -2  25  146.96    9.79
  -3   2  24   36.78    5.90
   3  -2  24   34.68    4.65
   3  -2  24   44.31    4.79
  -3   2  23   29.49    5.20
   3  -2  23   42.07    5.06
  -3   2  23   26.60    3.92
   3  -2  23   29.83    4.07
  -3   2  23   31.88    3.80
  -3   2  22  284.67   15.85
  -3   2  22  289.40   12.70
   3  -2  22  312.67   14.62
  -3   2  22  276.70   13.23
   3  -2  21   21.24    3.74
  -3   2  21   16.79    3.91
  -3   2  21   20.27    3.26
  -3   2  21   15.59    2.73
  -3   2  20  148.23    7.77
  -3   2  20  136.14    9.83
   3  -2  20  136.66    8.69
  -3   2  20  138.54    8.12
  -3   2  19   45.10    4.03
  -3   2  19   50.08    5.66
  -3   2  19   53.89    4.62
   3  -2  19   59.29    5.22
  -3   2  18 1407.19   47.86
  -3   2  18 1418.22   44.25
   3  -2  18 1511.80   46.28
  -3   2  18 1440.37   45.08
  -3   2  17  324.31   12.78
  -3   2  17  335.66   15.57
  -3   2  17  339.32   13.52
   3  -2  17  339.46   14.19
  -3   2  17  335.56   14.02
  -3   2  16   18.40    2.58
  -3   2  16   16.12    3.28
  -3   2  16   21.10    2.47
   3  -2  16   21.17    3.03
  -3   2  16   26.44    3.23
  -3   2  15   85.53    6.38
  -3   2  15   86.05    4.90
   3  -2  15   81.57    5.52
  -3   2  15   84.74    5.24
  -3   2  15   82.68    5.56
  -3   2  14 1313.57   37.68
  -3   2  14 1187.35   39.89
   3  -2  14 1225.25   38.80
  -3   2  14 1246.76   38.15
  -3   2  14 1196.90   38.83
  -3   2  13  123.97    5.70
  -3   2  13  121.89    7.13
   3  -2  13  118.35    6.41
  -3   2  13  119.66    5.97
   3   2 -13   98.05    8.78
  -3   2  13  116.01    6.48
  -3   2  12  148.58    7.91
  -3   2  12  157.48    6.59
   3  -2  12  166.00    7.38
  -3   2  12  156.81    6.95
   3   2 -12  149.90   10.70
   3  -2  12  145.56    7.25
  -3   2  12  152.06    7.46
  -3   2  11  109.90    6.39
  -3   2  11  121.83    5.30
   3  -2  11  116.59    5.81
  -3   2  11  117.51    5.54
   3   2 -11  114.80    8.84
   3  -2  11  125.31    6.10
  -3   2  11  114.16    6.15
  -3   2  10  436.68   13.89
  -3   2  10  407.19   15.32
  -3   2  10  434.01   14.24
   3  -2  10  426.38   14.61
   3   2 -10  406.83   18.81
   3  -2  10  419.73   14.76
  -3   2  10  430.00   15.21
  -3   2   9  624.86   20.55
   3  -2   9  623.15   19.78
   3  -2   9  622.77   19.92
   3   2  -9  636.85   24.72
  -3   2   9  599.77   20.36
  -3   2   8  218.81    8.86
   3  -2   8  221.73    8.33
   3   2  -8  234.38   12.09
   3  -2   8  225.43    8.48
  -3   2   8  217.88    8.92
  -3   2   7   63.22    3.85
   3  -2   7   72.25    3.63
  -3   2   7   67.16    4.86
   3  -2   7   72.10    3.70
   3   2  -7   66.32    5.78
  -3   2   6 1257.97   37.30
  -3   2   6 1235.04   38.80
   3   2  -6 1299.99   41.60
  -3   2   5  392.28   14.28
   3   2  -5  411.13   16.67
  -3   2   5  398.94   13.56
  -3   2   4  372.86   13.21
   3   2  -4  384.83   15.78
   3   2  -3 1323.30   42.89
  -3   2   3 1361.56   39.85
  -3   2   2  986.31   29.35
   3   2  -2  972.93   32.47
  -3   2   1   56.58    3.08
  -3   2   0   41.39    2.53
  -3   2  -1   61.96    3.39
   3  -2  -2  976.27   29.64
   3  -2  -3 1347.67   40.27
   3  -2  -4  387.45   13.85
   3  -2  -5  417.90   14.54
  -3  -2   5  372.91   13.00
  -3  -2   6 1273.25   37.24
   3  -2  -6 1323.81   39.33
  -3  -2   6 1200.53   37.29
  -3  -2   7   71.50    4.07
   3  -2  -7   71.18    5.16
  -3  -2   7   68.52    4.03
   3  -2  -8  223.76   10.66
  -3  -2   8  214.60    8.81
  -3  -2   8  229.38    9.10
  -3  -2   8  215.75    8.82
   3  -2  -9  621.01   23.31
  -3  -2   9  630.84   21.05
  -3  -2   9  638.16   20.90
  -3   2 -10  435.91   17.44
   3  -2 -10  436.50   18.08
  -3  -2  10  414.51   15.32
  -3  -2  10  420.17   15.59
  -3   2 -11  131.91    8.17
   3  -2 -11  112.16    8.12
  -3  -2  11  124.09    6.68
  -3  -2  11  105.23    6.37
  -3  -2  11  120.39    6.28
  -3   2 -12  160.83    9.72
   3  -2 -12  158.89   10.24
  -3  -2  12  150.45    7.51
  -3  -2  12  148.43    7.11
  -3  -2  12  147.01    7.88
  -3  -2  12  172.32    8.49
  -3  -2  12  164.49    7.82
  -3   2 -13  120.57    8.61
   3  -2 -13  108.11    8.84
  -3  -2  13  124.22    6.75
  -3  -2  13  127.16    7.35
  -3  -2  13  136.45    6.60
  -3  -2  13  110.01    7.01
   3   2  13  121.17    6.65
  -3  -2  13  128.99    6.86
   3  -2 -14 1178.54   43.63
  -3   2 -14 1222.99   42.75
  -3  -2  14 1240.01   38.62
  -3  -2  14 1161.39   39.38
  -3  -2  14 1196.80   37.79
  -3  -2  14 1298.77   40.12
   3   2  14 1236.51   38.76
  -3  -2  14 1240.86   38.72
  -3  -2  15   83.34    5.60
  -3  -2  15   66.31    5.70
  -3  -2  15   85.41    5.26
  -3  -2  15   70.59    5.88
   3   2  15   81.23    5.69
  -3  -2  15   82.37    5.64
  -3  -2  16   19.67    3.46
  -3  -2  16   23.79    2.87
  -3  -2  16   16.09    2.86
  -3  -2  16   21.44    3.59
   3   2  16   22.14    3.15
  -3  -2  16   19.53    2.88
  -3  -2  17  326.45   14.27
  -3  -2  17  311.73   15.52
  -3  -2  17  339.64   13.84
   3   2  17  355.46   15.12
  -3  -2  17  370.49   16.08
  -3  -2  17  350.39   14.60
  -3  -2  18 1372.66   45.19
  -3  -2  18 1368.53   47.14
  -3  -2  18 1430.61   44.49
   3   2  18 1427.51   46.17
  -3  -2  18 1424.10   47.19
  -3  -2  18 1463.85   45.45
  -3  -2  19   56.94    5.14
  -3  -2  19   54.08    5.93
  -3  -2  19   44.81    4.32
   3   2  19   45.17    5.09
  -3  -2  19   44.60    5.32
  -3  -2  19   48.90    4.78
  -3  -2  20  127.65    9.46
   3   2  20  120.62    8.64
  -3  -2  20  141.06    9.76
  -3  -2  20  131.61    8.26
   3   2  21   18.63    3.60
  -3  -2  21   24.27    4.44
   3   2  21   12.81    3.48
  -3  -2  21   19.66    4.17
  -3  -2  21   19.15    3.27
   3   2  22  302.13   14.25
  -3  -2  22  267.62   15.55
  -3  -2  22  257.76   14.97
   3   2  22  312.38   15.46
  -3  -2  22  274.36   13.54
  -3  -2  23   29.61    5.20
   3   2  23   25.31    4.17
   3   2  23   31.92    4.84
  -3  -2  23   23.30    4.65
  -3  -2  23   24.04    3.74
   3   2  24   43.18    5.21
  -3  -2  24   26.97    5.18
   3   2  24   40.55    5.61
  -3  -2  24   37.53    4.52
   3   2  25  140.00    9.38
  -3  -2  25  131.45   10.64
   3   2  25  144.25   10.43
  -3  -2  25  146.16    9.01
   3   2  26  207.64   11.80
  -3  -2  26  188.08   13.08
   3   2  26  212.43   12.99
  -3  -2  26  213.69   11.11
   3   2  27   10.11    3.54
   3   2  27    8.12    3.10
   3   2  27   12.15    2.81
  -3  -2  27    5.70    3.48
   3   2  28    4.90    2.74
   3   2  28    2.85    1.94
   3   2  28    0.98    1.98
   3   2  29   23.89    4.22
   3   2  29   25.74    3.98
   3   2  29   23.21    3.44
   3   2  30  112.82    7.79
   3   2  30  109.30    8.50
   3   2  30  117.43    7.33
   3   2  31    7.12    2.35
   3   2  31    7.91    2.21
   3   2  32    1.05    1.49
   3   2  32    1.47    1.48
   3  -3  32   13.01    2.99
   3  -3  31   12.00    3.23
   3  -3  31   11.93    2.75
   3  -3  31    8.45    2.37
   3  -3  30   54.49    5.39
   3  -3  30   58.20    6.33
   3  -3  30   67.05    5.48
   3  -3  29   46.23    5.17
   3  -3  29   40.74    5.55
   3  -3  29   54.10    5.03
   3  -3  28    7.64    3.23
   3  -3  28   12.29    3.29
   3  -3  28   11.91    2.79
   3  -3  27   20.88    4.40
   3  -3  27   25.43    4.16
   3  -3  27   21.60    3.55
   3  -3  26  162.38   10.04
   3  -3  26  146.84   10.92
   3  -3  26  138.11    8.73
  -3   3  26  144.61   11.01
   3  -3  25   98.28    7.63
   3  -3  25   74.05    7.75
   3  -3  25   86.83    6.64
  -3   3  25   76.28    7.98
   3  -3  24    0.64    2.79
   3  -3  24    1.53    2.22
   3  -3  24    0.42    2.13
  -3   3  24    2.09    2.96
  -3   3  23  100.38    6.91
   3  -3  23  102.82    7.85
   3  -3  23  111.05    8.83
   3  -3  23  102.32    7.20
  -3   3  23   93.52    8.57
  -3   3  23   84.20    6.02
   3  -3  22   36.87    4.72
  -3   3  22   39.41    4.28
   3  -3  22   42.15    5.56
   3  -3  22   36.42    4.20
  -3   3  22   45.10    4.16
  -3   3  22   35.13    5.34
  -3   3  21   78.07    5.81
   3  -3  21   80.77    6.73
   3  -3  21   67.92    5.87
  -3   3  21   76.19    5.34
  -3   3  21   63.17    6.88
   3  -3  20    7.86    3.28
   3  -3  20   15.97    3.22
  -3   3  20   12.78    3.17
  -3   3  20   12.05    2.62
  -3   3  20   12.49    2.32
  -3   3  19   68.56    5.18
   3  -3  19   79.58    6.19
   3  -3  19   65.88    6.16
  -3   3  19   64.55    4.69
  -3   3  19   72.92    6.93
  -3   3  18   85.46    7.09
  -3   3  18   85.19    5.31
   3  -3  18   91.82    6.46
  -3   3  18   84.47    5.67
  -3   3  17    1.64    1.19
  -3   3  17    2.24    1.42
   3  -3  17    2.12    1.65
  -3   3  17    4.22    2.24
  -3   3  16  194.31   10.69
  -3   3  16  204.02    8.57
  -3   3  16  191.91    8.93
   3  -3  16  196.39    9.74
  -3   3  15  220.25   11.29
  -3   3  15  227.64    9.19
  -3   3  15  240.47    9.82
   3  -3  15  227.60   10.42
  -3   3  14  382.07   13.07
  -3   3  14  352.12   15.18
  -3   3  14  364.98   13.45
   3  -3  14  364.95   14.28
  -3   3  13  222.33    8.38
  -3   3  13  204.26   10.10
  -3   3  13  209.15    8.69
   3  -3  13  209.76    9.39
  -3   3  12   49.34    3.11
  -3   3  12   45.20    3.98
   3  -3  12   47.13    3.77
  -3   3  12   52.30    3.43
   3   3 -12   59.07    6.65
  -3   3  11  891.03   28.97
  -3   3  11  894.81   26.78
   3  -3  11  869.51   27.93
  -3   3  11  919.86   27.30
   3   3 -11  817.14   33.34
  -3   3  10    1.91    1.04
   3  -3  10    1.12    1.10
   3   3 -10    1.75    2.13
  -3   3   9  179.53    7.80
   3  -3   9  166.25    7.05
   3  -3   9  168.61    6.94
   3   3  -9  158.32   10.42
  -3   3   8   43.06    3.27
   3   3  -8   44.11    5.12
   3  -3   8   47.34    2.94
   3  -3   8   44.98    2.97
  -3   3   7   41.37    2.97
   3  -3   7   36.36    2.46
   3   3  -7   42.90    4.86
   3  -3   7   39.59    2.57
  -3   3   6   12.30    1.59
   3   3  -6   10.96    2.80
   3   3  -5  234.31   11.99
   3   3  -4  242.10   12.03
   3   3  -3 1538.07   49.14
  -3  -3  -2   22.98    3.33
   3   3  -2   24.94    3.46
  -3   3   2   21.57    1.57
  -3  -3  -1  112.67    7.28
  -3   3   1  110.83    4.01
  -3   3   0   25.70    1.31
  -3  -3   0   23.05    3.23
  -3   3  -1  119.09    4.14
  -3  -3   1  103.40    6.90
  -3   3  -2   27.47    1.85
   3  -3  -2   27.97    1.93
  -3  -3   2   24.45    3.20
   3  -3  -3 1541.16   44.51
  -3  -3   3 1477.92   47.63
   3  -3  -4  212.14    8.56
  -3  -3   4  208.32    8.04
  -3  -3   5  229.08   10.99
  -3   3  -5  240.59    8.88
   3  -3  -5  221.63    9.07
  -3  -3   5  211.72    7.26
  -3  -3   5  213.80    8.35
  -3  -3   6    8.00    1.37
  -3   3  -6    7.67    1.59
  -3  -3   6    7.37    2.05
   3  -3  -6    7.17    1.61
  -3  -3   6    8.00    0.97
  -3  -3   6    8.72    1.59
  -3  -3   7   49.45    3.27
  -3  -3   7   52.09    4.91
  -3   3  -7   49.18    3.82
   3  -3  -7   39.84    3.72
  -3  -3   7   45.98    3.26
  -3  -3   7   43.43    2.26
  -3   3  -8   53.96    4.18
  -3  -3   8   41.93    4.60
   3  -3  -8   44.34    4.11
  -3  -3   8   39.96    3.20
  -3  -3   8   40.63    3.24
  -3  -3   8   49.17    2.34
  -3  -3   8   48.12    3.45
   3  -3  -9  167.01    9.09
  -3   3  -9  169.00    8.73
  -3  -3   9  171.14   10.04
  -3  -3   9  155.59    7.42
  -3  -3   9  164.84    7.52
  -3  -3   9  160.97    5.71
  -3   3 -10    1.49    1.41
  -3  -3  10   -0.50    1.39
   3  -3 -10    0.43    1.38
  -3  -3  10    1.22    1.11
  -3  -3  10    0.25    1.22
  -3  -3  10    0.63    0.50
   3  -3 -11  866.75   30.95
  -3   3 -11  908.42   30.29
  -3  -3  11  884.73   32.02
  -3  -3  11  846.04   27.84
  -3  -3  11  879.15   28.03
   3   3  11  850.38   26.93
  -3  -3  11  821.36   27.36
  -3  -3  11  827.07   24.68
  -3  -3  12   58.91    6.47
  -3   3 -12   58.35    5.45
   3  -3 -12   47.60    5.49
  -3  -3  12   56.63    4.53
   3   3  12   57.67    4.11
  -3  -3  12   52.51    4.42
  -3  -3  12   53.08    2.52
  -3  -3  12   54.72    4.28
   3   3  13  206.40    9.23
  -3   3 -13  202.08   11.63
   3   3  13  219.03    9.51
   3  -3 -13  223.08   12.90
  -3  -3  13  204.59   10.06
  -3  -3  13  196.70    9.94
   3   3  13  208.46    9.44
  -3  -3  13  199.34    9.54
   3  -3 -14  377.52   19.02
   3   3  14  383.68   14.63
  -3   3 -14  360.59   17.69
   3   3  14  390.53   14.84
  -3  -3  14  391.89   15.94
  -3  -3  14  376.86   15.68
   3   3  14  379.76   14.96
  -3  -3  14  375.23   15.03
   3   3  15  227.14   10.27
   3   3  15  217.38   10.30
  -3  -3  15  233.19   11.51
   3   3  15  234.05   10.80
  -3  -3  15  227.97   11.39
  -3  -3  15  226.89   10.69
   3   3  16  188.11    9.25
   3   3  16  191.92    9.44
  -3  -3  16  172.95   10.15
   3   3  16  186.24    9.68
  -3  -3  16  173.71   10.09
  -3  -3  16  200.41    9.80
   3   3  17    1.32    1.47
   3   3  17    3.16    1.94
  -3  -3  17    4.27    1.91
  -3  -3  17    1.85    1.80
   3   3  17    2.75    1.76
  -3  -3  17    3.35    2.02
   3   3  18   92.45    6.31
   3   3  18   85.20    6.26
  -3  -3  18   91.51    7.46
   3   3  18   86.55    6.63
  -3  -3  18   87.49    7.14
  -3  -3  18   89.79    6.52
   3   3  19   63.30    5.38
   3   3  19   48.79    5.02
  -3  -3  19   60.80    6.30
   3   3  19   59.77    5.67
  -3  -3  19   67.44    6.41
  -3  -3  19   75.59    5.90
   3   3  20   14.39    3.06
  -3  -3  20   14.15    3.74
  -3  -3  20   16.91    3.66
   3   3  20   14.28    3.35
  -3  -3  20   13.46    2.89
   3   3  21   91.75    6.94
  -3  -3  21   71.57    7.37
   3   3  21   78.63    6.95
  -3  -3  21   82.60    7.46
  -3  -3  21   80.98    6.58
   3   3  22   40.52    4.92
  -3  -3  22   43.47    5.84
   3   3  22   37.63    5.14
  -3  -3  22   36.64    5.42
  -3  -3  22   37.88    4.58
   3   3  23  105.53    7.77
  -3  -3  23   96.62    8.85
   3   3  23  105.39    8.47
  -3  -3  23   95.76    8.58
  -3  -3  23   92.67    7.22
  -3  -3  24    2.11    2.83
   3   3  24    1.49    2.37
   3   3  24    0.60    2.10
  -3  -3  24    2.80    1.98
   3   3  25   88.19    7.33
  -3  -3  25   84.73    8.37
   3   3  25   93.15    8.13
  -3  -3  25   80.19    6.66
   3   3  26  146.80    9.58
  -3  -3  26  141.38   11.06
   3   3  26  141.14   10.23
  -3  -3  26  149.04    9.04
   3   3  27   29.54    4.84
   3   3  27   29.64    4.35
   3   3  27   30.23    4.04
   3   3  28   10.47    3.32
   3   3  28   10.01    2.84
   3   3  28   13.02    2.76
   3   3  29   45.06    5.01
   3   3  29   46.07    5.68
   3   3  29   53.27    4.87
   3   3  30   67.89    5.82
   3   3  30   50.00    4.70
   3   3  31   15.01    2.79
   3   3  31   13.73    2.57
   3   4 -31   23.03    3.10
   3  -4  31   21.13    3.81
   3  -4  30   87.97    6.66
   3   4 -30   73.63    5.62
   3  -4  30   90.23    7.70
   3  -4  30   85.48    6.15
   3  -4  29   85.10    6.92
   3  -4  29   97.30    8.19
   3  -4  29   93.33    6.62
   3  -4  28   11.82    3.64
   3  -4  28   10.87    2.52
   3  -4  28    4.79    2.43
   3  -4  27   35.32    5.40
   3  -4  27   36.33    4.78
   3  -4  27   35.85    4.24
   3  -4  26  175.50   10.63
   3  -4  26  185.28   12.05
   3  -4  26  165.87    9.68
  -3   4  26  159.29   11.55
   3  -4  25   87.06    7.22
   3  -4  25   82.86    7.93
   3  -4  25   85.99    6.62
  -3   4  25   69.96    7.60
   3  -4  24    7.06    3.20
  -3   4  24   14.94    3.70
   3  -4  24   13.21    3.15
   3  -4  24   12.64    2.65
   3  -4  23   15.59    4.05
  -3   4  23   20.63    4.37
  -3   4  23   15.37    2.80
   3  -4  23   17.89    3.68
  -3   4  23   13.71    2.51
   3  -4  23   20.14    3.43
  -3   4  22  143.80    8.00
   3  -4  22  135.02    9.00
   3  -4  22  132.49    9.82
  -3   4  22  117.46    7.00
   3  -4  22  140.19    8.39
  -3   4  22  142.43   10.34
   3  -4  21  350.20   15.62
  -3   4  21  324.73   13.84
   3  -4  21  340.55   16.71
   3  -4  21  350.53   14.76
  -3   4  21  333.41   16.98
  -3   4  21  313.86   13.16
  -3   4  20  196.95    9.75
   3  -4  20  217.66   11.30
   3  -4  20  199.70   11.90
  -3   4  20  209.82   12.45
   3  -4  20  213.26   10.46
  -3   4  20  199.56    9.27
   3  -4  19  117.35    7.60
  -3   4  19  101.38    6.31
   3  -4  19   95.55    7.62
   3  -4  19  106.71    6.72
  -3   4  19   97.40    5.78
  -3   4  19  104.48    8.22
   3  -4  18  432.35   16.89
  -3   4  18  425.60   15.76
  -3   4  18  439.68   19.27
  -3   4  18  440.50   16.44
   3  -4  18  485.90   18.24
  -3   4  17  573.57   22.98
  -3   4  17  578.69   19.57
  -3   4  17  575.81   20.15
   3  -4  17  602.06   21.73
  -3   4  16   12.58    2.86
   3  -4  16   14.45    2.63
  -3   4  16   14.06    2.11
  -3   4  16   15.61    1.96
  -3   4  15  530.88   17.51
  -3   4  15  505.08   20.26
  -3   4  15  540.83   18.12
   3  -4  15  511.43   19.07
  -3   4  14  553.96   17.59
  -3   4  14  523.68   20.24
   3  -4  14  521.57   19.04
  -3   4  14  530.55   17.99
  -3   4  13  177.86    9.15
  -3   4  13  183.99    7.12
  -3   4  13  166.11    7.30
   3  -4  13  167.56    8.09
   3  -4  12   16.87    2.31
  -3   4  12   16.02    1.71
  -3   4  12   17.41    2.46
  -3   4  12   18.70    1.98
  -3   4  11  355.80   13.95
  -3   4  11  365.11   11.85
   3  -4  11  348.27   13.02
  -3   4  11  363.92   12.21
  -3   4  10  565.99   19.18
   3  -4  10  545.64   18.16
  -3  -4 -10  546.45   16.59
  -3   4   9  138.81    6.85
   3  -4   9  144.13    6.31
  -3  -4  -9  146.80    5.29
  -3   4   8  423.80   14.40
   3  -4   8  386.05   13.43
  -3  -4  -8  408.26   12.59
  -3   4   7   76.02    4.31
   3  -4   7   75.46    3.82
  -3  -4  -7   82.88    3.46
  -3   4   6    6.03    1.27
   3   4  -6    5.16    1.05
  -3  -4  -6    4.43    0.85
  -3  -4  -5   58.97    2.80
  -3  -4  -4  122.43    4.69
  -3  -4  -3 1578.65   45.09
  -3  -4  -2   38.37    4.48
  -3  -4  -2   39.14    2.19
  -3  -4  -1  220.37   11.18
  -3  -4  -1  201.24    7.01
  -3  -4   0   59.20    5.37
  -3  -4   0   61.88    2.90
  -3  -4   1  211.38   10.85
  -3  -4   2   32.55    3.94
   3  -4  -3 1627.89   43.75
  -3   4  -3 1460.74   42.95
  -3  -4   3 1593.77   48.71
  -3  -4   3 1512.41   43.51
  -3  -4   4  124.89    7.75
  -3   4  -4  113.54    4.66
   3  -4  -4  116.05    5.12
  -3  -4   4  112.27    4.46
  -3   4  -5   62.06    3.44
  -3  -4   5   61.94    5.40
   3  -4  -5   58.61    3.66
  -3   4  -5   48.87    2.96
  -3  -4   5   59.65    2.81
  -3  -4   6    4.47    1.23
  -3   4  -6    3.86    1.16
  -3  -4   6    6.85    2.21
   3  -4  -6    2.28    0.98
  -3  -4   6    5.10    1.30
  -3  -4   6    4.02    0.85
  -3  -4   7   94.43    4.73
  -3   4  -7   81.20    4.85
  -3  -4   7   86.03    6.70
   3  -4  -7   84.58    5.37
  -3  -4   7   79.92    4.60
  -3  -4   7   79.69    3.52
   3  -4  -8  414.93   16.08
  -3   4  -8  406.27   15.16
  -3  -4   8  424.49   17.99
  -3  -4   8  406.51   14.37
  -3  -4   8  394.57   14.07
  -3  -4   8  400.55   14.43
  -3  -4   8  403.45   12.65
  -3   4  -9  150.91    8.16
  -3  -4   9  154.57    9.93
   3  -4  -9  178.27    9.27
  -3  -4   9  173.09    7.71
  -3  -4   9  163.04    7.45
   3   4   9  164.18    6.88
  -3  -4   9  149.78    7.35
  -3  -4   9  162.22    5.85
   3  -4 -10  533.17   21.97
  -3  -4  10  588.25   23.80
  -3   4 -10  605.87   21.53
  -3  -4  10  602.71   20.13
  -3  -4  10  593.71   19.92
   3   4  10  562.66   18.95
  -3  -4  10  570.11   17.42
  -3  -4  11  377.10   17.79
  -3   4 -11  359.01   15.56
   3  -4 -11  381.86   16.71
  -3  -4  11  347.66   14.09
   3   4  11  361.56   13.30
  -3  -4  11  369.62   14.16
  -3  -4  11  359.77   11.48
  -3   4 -12   13.17    2.56
   3  -4 -12   19.33    3.59
  -3  -4  12   18.65    2.60
   3   4  12   19.98    2.44
  -3  -4  12   22.90    3.00
  -3  -4  12   21.84    2.79
  -3  -4  12   19.35    1.46
   3   4  13  181.48    8.62
   3  -4 -13  210.29   12.39
  -3   4 -13  155.72   10.19
   3   4  13  176.12    8.61
  -3  -4  13  191.71    9.59
   3   4  13  184.19    8.65
  -3  -4  13  188.29    9.40
  -3  -4  13  189.15    9.09
   3   4  14  541.58   19.19
  -3   4 -14  504.89   22.31
   3  -4 -14  517.86   23.76
   3   4  14  550.18   19.49
  -3  -4  14  508.14   20.20
   3   4  14  524.92   19.36
  -3  -4  14  569.33   20.59
  -3  -4  14  562.02   19.93
   3   4  15  514.13   19.40
   3   4  15  536.42   19.80
  -3  -4  15  544.86   21.11
   3   4  15  570.13   20.16
  -3  -4  15  520.95   20.62
  -3  -4  15  567.50   20.41
   3   4  16    9.10    2.27
   3   4  16   14.54    2.59
  -3  -4  16    9.86    2.81
   3   4  16   15.68    2.77
  -3  -4  16    7.26    2.37
  -3  -4  16   12.90    2.80
   3   4  17  587.25   21.86
   3   4  17  606.34   22.30
  -3  -4  17  589.11   23.76
   3   4  17  600.58   22.60
  -3  -4  17  642.65   23.86
  -3  -4  17  621.63   22.78
   3   4  18  438.11   17.48
   3   4  18  455.56   17.88
  -3  -4  18  431.14   19.29
   3   4  18  424.15   17.99
  -3  -4  18  443.51   19.11
  -3  -4  18  452.73   18.20
   3   4  19  103.01    6.89
   3   4  19   92.23    6.88
  -3  -4  19  101.48    8.15
   3   4  19   89.94    7.07
  -3  -4  19   88.42    7.53
  -3  -4  19   92.24    6.96
   3   4  20  212.96   11.27
   3   4  20  225.20   11.28
  -3  -4  20  219.84   12.96
   3   4  20  200.58   11.50
  -3  -4  20  226.22   12.79
  -3  -4  20  214.64   11.46
   3   4  21  332.24   15.19
  -3  -4  21  321.79   16.96
   3   4  21  325.87   15.79
  -3  -4  21  328.11   16.66
  -3  -4  21  333.68   15.37
   3   4  22  160.01    9.66
  -3  -4  22  146.60   10.78
   3   4  22  153.32   10.08
  -3  -4  22  147.89   10.48
  -3  -4  22  141.40    9.26
   3   4  23   21.08    3.80
  -3  -4  23   20.37    4.37
   3   4  23   16.29    3.58
  -3  -4  23   14.48    3.72
  -3  -4  23   22.19    3.82
   3   4  24    9.78    3.03
  -3  -4  24   11.78    3.77
   3   4  24    9.83    3.15
  -3  -4  24   15.35    3.38
   3   4  25   77.82    6.65
  -3  -4  25   59.89    7.02
   3   4  25   80.51    7.32
  -3  -4  25   76.11    6.37
   3   4  26  150.29    9.61
  -3  -4  26  136.99   10.67
   3   4  26  154.08   10.61
  -3  -4  26  170.89    9.72
   3   4  27   31.60    4.62
   3   4  27   33.87    4.04
   3   4  27   33.76    4.46
   3   4  28    4.84    2.83
   3   4  28    5.47    2.52
   3   4  28    4.90    2.15
   3   4  29   91.79    6.96
   3   4  29   89.62    6.35
   3   4  30   83.29    6.41
  -3   4 -30   94.00    6.45
   3   4  30   86.77    5.99
  -3   4 -31   21.92    3.10
   3   4  31   19.70    2.78
   3   4  31   20.55    3.11
   3  -5  31   48.99    5.29
   3   5 -30   14.25    2.66
   3  -5  30   17.43    3.51
   3  -5  29  101.05    7.41
   3   5 -29   88.75    6.50
   3  -5  29  121.57    9.00
   3  -5  29  111.00    7.12
   3  -5  28    7.84    3.12
   3   5 -28    9.71    2.32
   3  -5  28    9.23    2.78
   3  -5  28    9.79    2.60
   3  -5  27   23.83    4.42
   3  -5  27   24.51    3.69
   3  -5  27   25.61    4.16
   3  -5  26   19.90    4.16
   3  -5  26   16.88    3.61
   3  -5  26   10.44    2.76
   3  -5  25   67.83    6.35
   3  -5  25   72.36    7.35
  -3   5  25   60.64    6.85
   3  -5  25   67.75    5.94
   3  -5  24   45.57    5.19
   3  -5  24   38.39    5.45
   3  -5  24   37.59    4.51
  -3   5  24   25.53    4.75
   3  -5  23   38.42    4.98
   3  -5  23   41.88    5.74
  -3   5  23   31.54    5.20
   3  -5  23   37.67    4.34
   3  -5  22   16.31    3.75
  -3   5  22   14.43    3.89
   3  -5  22   19.05    3.20
   3  -5  22   18.18    3.36
   3  -5  21  119.88    8.18
   3  -5  21  132.31    9.46
   3  -5  21  112.91    7.40
  -3   5  21  107.19    8.78
   3  -5  20   13.51    3.44
  -3   5  20   17.22    3.74
   3  -5  20   18.76    3.35
   3  -5  20   19.83    3.12
  -3   5  19  167.51   10.74
   3  -5  19  166.77    8.93
   3  -5  19  187.42    9.96
   3  -5  18   31.44    3.46
  -3   5  18   39.47    4.77
   3  -5  18   35.36    3.99
  -3   5  17   50.30    5.29
   3  -5  17   36.88    3.71
   3  -5  17   42.80    4.34
  -3   5  16   64.63    5.65
   3  -5  16   54.45    4.21
   3  -5  16   54.69    4.59
  -3   5  15   46.97    4.71
   3  -5  15   42.44    3.59
   3  -5  15   47.79    4.06
  -3   5  14   10.25    2.32
   3  -5  14    5.80    1.72
   3  -5  14    8.68    1.66
  -3   5  13   92.03    6.16
   3  -5  13   84.94    5.27
  -3   5  12   38.96    3.76
   3  -5  12   36.94    3.22
  -3   5  11 1143.21   36.10
   3  -5  11 1120.60   34.87
  -3  -5 -11 1145.56   33.08
  -3   5  10   45.07    3.68
   3   5 -10   36.34    5.49
   3  -5  10   44.41    3.18
  -3  -5 -10   41.34    2.34
  -3   5   9  194.12    8.57
   3  -5   9  186.79    7.77
  -3  -5  -9  198.20    6.95
   3  -5   8  313.93   10.98
   3   5  -8  320.93   16.63
  -3   5   8  313.14   11.74
   3   5  -8  309.58   11.28
  -3  -5  -8  311.43   10.23
   3  -5   7  113.69    5.03
   3   5  -7  117.05    8.98
  -3   5   7  115.35    5.56
   3   5  -7  110.94    5.32
  -3  -5  -7  115.85    4.65
   3   5  -6  282.66   14.80
  -3   5   6  275.55   10.04
   3   5  -6  276.69    9.98
  -3  -5  -6  270.08    9.17
   3   5  -5   84.34    7.36
   3   5  -5   82.63    4.33
  -3  -5  -5   94.64    3.98
   3   5  -4   99.41    7.80
   3   5  -4   94.00    4.64
  -3  -5  -4  106.45    4.33
  -3  -5  -3  167.54   10.14
   3   5  -3  149.91    6.24
  -3   5   3  152.85    6.01
  -3  -5  -3  155.61    5.85
  -3  -5  -2 1860.72   59.98
   3   5  -2 1960.96   54.32
  -3   5   2 1829.78   53.97
  -3  -5  -2 1869.07   53.69
  -3  -5  -1  206.27   11.23
  -3   5   1  184.25    7.17
  -3  -5  -1  201.75    7.03
  -3   5   0   17.97    1.72
  -3  -5   0   18.73    1.59
  -3  -5   1  198.24   10.85
  -3   5  -1  192.53    7.34
  -3  -5   2 1899.77   59.65
  -3   5  -2 1822.30   54.63
   3   5   2 1956.39   54.42
   3   5   2 1902.54   54.88
  -3  -5   3  165.44    9.69
   3   5   3  173.34    6.80
  -3   5  -3  165.76    6.68
   3   5   3  163.94    6.32
  -3  -5   3  162.98    6.16
  -3  -5   4   88.46    6.81
   3  -5  -4  100.27    4.15
  -3   5  -4   86.23    3.49
   3   5   4   98.38    4.63
  -3   5  -4  102.68    4.72
  -3  -5   4  101.68    4.18
  -3  -5   5   94.83    7.08
  -3   5  -5   81.21    3.99
   3  -5  -5   85.45    4.38
  -3   5  -5   85.14    4.33
   3   5   5   93.57    4.44
  -3  -5   5   82.84    3.80
  -3   5  -6  262.95   10.02
  -3  -5   6  259.72   13.29
   3  -5  -6  283.05   10.73
  -3  -5   6  288.68   10.15
  -3   5  -6  263.52    9.83
  -3  -5   6  263.58    9.10
  -3  -5   7  117.35    8.33
  -3   5  -7  125.11    6.19
   3  -5  -7  122.10    6.63
  -3  -5   7  124.27    5.94
  -3   5  -7  131.85    5.80
  -3  -5   7  118.86    4.90
  -3  -5   8  306.60   15.19
  -3   5  -8  305.65   12.31
   3  -5  -8  309.16   13.08
  -3  -5   8  292.49   11.84
  -3   5  -8  313.77   11.33
  -3  -5   8  302.18   10.23
   3  -5  -9  195.75    9.90
  -3  -5   9  189.90   11.45
  -3   5  -9  188.61    9.06
  -3  -5   9  214.88    8.79
   3   5   9  186.99    7.55
  -3  -5   9  176.16    7.98
  -3  -5   9  183.17    6.77
  -3  -5   9  178.40    8.39
  -3  -5  10   55.15    6.02
   3  -5 -10   52.76    4.95
  -3   5 -10   44.06    4.21
  -3  -5  10   44.37    3.81
   3   5  10   42.32    3.18
  -3  -5  10   49.45    3.82
  -3  -5  10   50.75    2.67
  -3   5 -11 1133.19   38.25
   3  -5 -11 1193.83   39.93
  -3  -5  11 1179.78   36.97
   3   5  11 1148.67   35.52
  -3  -5  11 1149.16   36.43
  -3  -5  11 1161.85   33.78
  -3   5 -12   35.76    4.26
   3  -5 -12   34.66    4.61
  -3  -5  12   36.32    3.68
   3   5  12   33.34    3.08
  -3  -5  12   32.97    3.48
  -3  -5  12   35.90    2.19
  -3   5 -13   98.16    7.65
   3  -5 -13  114.36    8.85
  -3  -5  13  104.24    6.76
   3   5  13  107.32    6.05
  -3  -5  13  106.29    6.60
  -3  -5  13  110.94    6.64
  -3  -5  13   95.01    4.18
   3   5  14    6.73    1.89
   3   5  14    7.55    1.93
  -3   5 -14    7.82    2.56
   3  -5 -14    3.36    1.86
  -3  -5  14    6.92    1.99
  -3  -5  14    5.01    1.85
   3   5  14    5.82    1.68
  -3  -5  14    6.48    2.03
   3   5  15   30.17    3.43
   3   5  15   33.56    3.68
  -3  -5  15   38.79    4.41
   3   5  15   37.07    3.71
  -3  -5  15   31.89    3.94
  -3  -5  15   36.07    4.11
   3   5  16   49.10    4.43
   3   5  16   57.84    4.87
  -3  -5  16   58.86    5.61
   3   5  16   54.57    4.69
  -3  -5  16   50.55    5.08
  -3  -5  16   45.20    4.59
   3   5  17   44.74    4.29
   3   5  17   44.01    4.39
  -3  -5  17   43.86    5.14
   3   5  17   50.15    4.74
  -3  -5  17   40.38    4.80
  -3  -5  17   46.82    4.66
   3   5  18   32.66    3.83
   3   5  18   36.05    4.13
  -3  -5  18   36.40    4.90
  -3  -5  18   28.19    4.22
   3   5  18   27.60    3.72
  -3  -5  18   35.84    4.26
   3   5  19  161.26    9.12
   3   5  19  169.61    9.56
  -3  -5  19  168.41   10.83
   3   5  19  161.65    9.61
  -3  -5  19  158.18   10.14
  -3  -5  19  169.25    9.88
   3   5  20   17.58    3.36
   3   5  20   19.96    3.43
  -3  -5  20   26.31    4.35
   3   5  20   17.91    3.42
  -3  -5  20   19.10    3.91
  -3  -5  20   19.22    3.49
   3   5  21  124.47    8.28
  -3  -5  21  146.29   10.30
   3   5  21  106.00    8.16
  -3  -5  21  125.09    9.25
  -3  -5  21  134.41    8.79
   3   5  22   17.47    3.54
  -3  -5  22   11.72    3.49
   3   5  22    9.86    3.06
  -3  -5  22   11.24    3.23
  -3  -5  22   18.22    3.41
   3   5  23   50.90    5.41
  -3  -5  23   50.12    6.41
  -3  -5  23   38.79    5.53
   3   5  23   38.44    5.07
  -3  -5  23   59.48    5.76
  -3  -5  24   27.71    5.12
   3   5  24   25.30    4.03
   3   5  24   33.11    4.62
  -3  -5  24   35.26    4.53
   3   5  25   57.25    5.74
  -3  -5  25   69.32    7.31
   3   5  25   66.32    6.56
  -3  -5  25   68.35    6.18
   3   5  26   18.27    3.34
   3   5  26   11.73    3.14
  -3  -5  26    9.89    2.79
   3   5  27   19.90    3.51
  -3   5 -28    8.28    2.43
   3   5  28    8.15    2.72
   3   5  28   10.64    2.55
   3   5  29   97.33    6.87
  -3   5 -29   95.42    6.82
   3   5  29   96.54    6.39
  -3   5 -30   12.85    2.73
   3   5  30   14.01    2.74
   3   5  30   20.23    2.88
   3  -6  30    5.42    2.36
   3   6 -30    3.85    1.85
   3   6 -29  185.40    9.85
   3  -6  29  227.43   12.40
   3  -6  28   33.39    4.91
   3   6 -28   32.25    3.97
   3  -6  27   54.45    5.60
   3   6 -27   55.91    5.29
   3  -6  27   45.34    5.93
   3  -6  27   45.18    4.73
   3  -6  26   45.49    5.09
   3   6 -26   39.19    4.54
   3  -6  26   43.71    5.69
   3  -6  26   38.63    4.52
   3  -6  25   69.76    6.27
   3  -6  25   62.80    6.79
   3   6 -25   65.81    5.86
   3  -6  25   67.63    5.74
   3  -6  24    1.27    2.76
   3   6 -24    1.76    1.92
  -3   6  24    4.30    2.68
   3  -6  24    1.64    1.92
   3  -6  24    0.98    2.23
   3  -6  23   24.96    4.54
   3  -6  23   19.77    3.56
   3  -6  23   24.23    3.48
  -3   6  23   14.12    3.63
   3  -6  22   38.28    5.49
  -3   6  22   21.07    4.27
   3  -6  22   33.36    3.97
   3  -6  22   30.53    4.30
   3  -6  21  530.72   20.54
   3  -6  21  503.83   21.87
   3  -6  21  505.62   19.31
   3  -6  20   49.16    5.02
   3  -6  20   50.66    5.83
   3  -6  20   58.43    4.94
  -3   6  20   52.03    5.87
   3  -6  19   41.14    4.52
  -3   6  19   30.25    4.26
   3  -6  19   39.89    4.00
   3  -6  18   77.41    5.90
   3  -6  18   67.99    5.19
  -3   6  18   71.56    6.38
   3  -6  17  243.99   11.46
  -3   6  17  244.64   12.57
   3  -6  17  238.01   10.71
   3  -6  16   26.55    3.38
  -3   6  16   28.60    3.86
   3  -6  16   32.25    3.27
   3  -6  15  299.57   12.52
  -3   6  15  285.08   13.49
   3  -6  15  297.71   11.82
  -3   6  14    8.12    2.23
   3  -6  14    6.09    1.72
   3  -6  14   10.29    1.95
   3  -6  13  840.32   27.03
  -3   6  13  841.91   28.33
   3  -6  13  803.36   26.16
   3  -6  12  326.34   12.31
  -3   6  12  315.52   13.20
   3  -6  12  298.52   11.56
   3   6 -12  337.62   12.67
   3  -6  11  357.89   13.35
  -3   6  11  361.57   14.29
   3  -6  11  373.99   12.93
   3   6 -11  372.42   13.76
  -3  -6 -11  367.93   11.95
   3  -6  10   -0.16    0.87
  -3   6  10    0.51    1.31
   3  -6  10    0.58    1.02
   3   6 -10    3.11    1.28
  -3  -6 -10    1.12    0.67
   3   6  -9 1390.11   50.18
   3  -6   9 1376.85   41.90
  -3   6   9 1397.52   42.86
   3  -6   9 1413.23   41.47
   3   6  -9 1467.84   42.77
  -3  -6  -9 1419.43   40.98
   3   6  -8  285.66   15.72
   3  -6   8  256.16    9.54
   3  -6   8  248.10    9.11
  -3   6   8  243.54   10.02
   3   6  -8  258.71   10.13
  -3  -6  -8  271.14    9.04
   3   6  -7  488.93   22.90
   3  -6   7  518.26   16.52
   3  -6   7  515.49   16.09
  -3   6   7  498.71   16.98
   3   6  -7  492.34   17.13
  -3  -6  -7  517.82   16.05
   3   6  -6  488.34   22.18
  -3   6   6  485.50   16.09
   3   6  -6  504.77   16.62
  -3  -6  -6  483.40   15.46
   3   6  -5  615.16   26.16
   3   6  -5  624.20   20.65
  -3  -6  -5  660.47   19.78
  -3  -6  -4    6.47    2.56
  -3   6   4    3.90    1.15
   3   6  -4    2.98    1.18
  -3  -6  -4    3.91    0.95
  -3  -6  -3  828.37   31.20
   3   6  -3  811.74   25.35
  -3   6   3  813.68   24.97
  -3  -6  -3  815.19   24.55
  -3  -6  -2   41.77    5.14
   3   6  -2   38.19    2.83
  -3   6   2   40.31    2.76
  -3  -6  -2   39.90    2.53
  -3  -6  -1 1352.61   44.88
   3   6  -1 1283.49   38.79
  -3   6   1 1269.60   38.60
  -3  -6  -1 1349.08   38.24
  -3  -6   0  161.80   10.15
   3   6   0  162.92    6.70
  -3   6   0  159.57    6.43
  -3   6   0  156.35    6.69
  -3  -6   0  166.47    6.34
  -3  -6   1 1374.61   44.31
   3   6   1 1333.98   38.97
  -3   6  -1 1268.88   38.57
  -3   6  -1 1316.31   38.12
   3   6   1 1253.58   38.31
  -3  -6   2   43.72    4.81
  -3   6  -2   35.72    2.74
  -3   6  -2   40.28    2.61
   3   6   2   35.46    2.56
  -3  -6   3  787.08   30.01
  -3   6  -3  816.05   25.04
  -3   6  -3  846.62   25.73
   3   6   3  831.32   25.14
   3   6   3  798.60   25.55
  -3  -6   3  830.50   24.78
  -3  -6   4    5.93    2.16
   3   6   4    7.31    1.30
  -3   6  -4    5.23    1.15
   3   6   4    4.30    1.25
  -3   6  -4    3.40    1.17
  -3  -6   4    4.09    0.98
   3  -6  -5  653.48   19.33
  -3  -6   5  656.08   24.95
  -3   6  -5  651.77   20.32
   3   6   5  687.68   20.29
  -3  -6   5  668.46   19.34
  -3  -6   6  461.28   20.55
   3  -6  -6  521.13   16.71
  -3   6  -6  469.55   15.97
  -3  -6   6  517.69   16.46
  -3   6  -6  469.64   16.51
  -3  -6   6  488.20   15.54
  -3  -6   7  546.77   22.27
   3  -6  -7  505.17   18.08
  -3   6  -7  514.45   17.54
  -3  -6   7  503.71   17.34
  -3   6  -7  523.30   17.46
  -3  -6   7  520.72   16.30
  -3  -6   8  289.84   14.66
   3  -6  -8  288.80   11.81
  -3   6  -8  254.35   10.81
  -3  -6   8  250.56   10.40
  -3   6  -8  255.19   10.24
  -3  -6   8  264.44    9.22
  -3  -6   9 1399.21   49.56
  -3   6  -9 1388.23   45.28
  -3  -6   9 1487.70   44.64
  -3   6  -9 1457.17   44.11
  -3  -6   9 1468.96   42.56
   3  -6 -10    1.67    1.35
  -3   6 -10    1.40    1.03
  -3  -6  10    0.27    1.14
  -3   6 -10    1.13    1.21
  -3  -6  10    1.12    1.28
  -3  -6  10    1.20    0.76
   3  -6 -11  388.07   17.04
  -3   6 -11  369.77   15.80
  -3  -6  11  382.53   14.79
   3   6  11  355.62   13.27
  -3  -6  11  377.49   14.22
  -3   6 -11  369.77   13.88
  -3  -6  11  367.99   12.16
  -3   6 -12  294.27   14.52
  -3  -6  12  348.00   13.94
   3   6  12  304.39   12.27
  -3  -6  12  343.37   13.42
  -3  -6  12  335.53   10.98
  -3   6 -13  808.31   30.53
  -3  -6  13  889.68   29.09
   3   6  13  826.87   27.13
  -3  -6  13  810.79   28.00
  -3  -6  13  826.38   28.37
  -3  -6  13  835.55   24.96
   3   6  14    7.86    2.10
   3   6  14    8.58    2.05
  -3  -6  14   10.60    2.55
   3   6  14    7.97    1.85
  -3  -6  14   10.49    2.27
  -3  -6  14   10.17    2.54
   3   6  15  318.78   13.29
   3   6  15  301.57   13.28
  -3  -6  15  312.87   14.36
   3   6  15  301.52   12.90
  -3  -6  15  306.95   13.76
  -3  -6  15  332.51   14.22
   3   6  16   23.10    3.20
   3   6  16   27.39    3.48
  -3  -6  16   28.56    4.02
  -3  -6  16   20.54    3.25
   3   6  16   25.19    3.29
  -3  -6  16   29.42    3.84
   3   6  17  270.25   12.05
   3   6  17  260.44   12.16
  -3  -6  17  253.91   13.29
   3   6  17  230.07   11.58
  -3  -6  17  256.55   12.73
  -3  -6  17  277.81   13.05
   3   6  18   66.70    5.38
   3   6  18   64.52    5.51
  -3  -6  18   70.41    6.41
   3   6  18   57.17    5.28
  -3  -6  18   60.73    5.76
  -3  -6  18   65.70    5.94
   3   6  19   42.01    4.53
   3   6  19   49.96    4.70
  -3  -6  19   46.20    5.45
   3   6  19   35.96    4.34
  -3  -6  19   38.91    4.88
  -3  -6  19   42.19    4.94
   3   6  20   56.32    5.18
   3   6  20   58.80    5.47
  -3  -6  20   55.64    6.19
   3   6  20   61.67    5.74
  -3  -6  20   59.86    6.12
  -3  -6  20   49.34    5.36
   3   6  21  468.27   19.39
  -3  -6  21  473.43   21.49
   3   6  21  452.06   19.48
  -3  -6  21  483.01   20.78
  -3  -6  21  497.86   20.43
   3   6  22   37.57    4.60
  -3  -6  22   36.85    5.50
  -3  -6  22   24.75    4.22
   3   6  22   28.53    4.33
  -3  -6  22   32.31    4.46
   3   6  23   16.10    3.17
  -3  -6  23   14.86    3.86
   3   6  23   20.73    3.72
  -3  -6  23   17.15    3.47
   3   6  24    3.23    2.16
  -3  -6  24    0.65    2.52
  -3  -6  24    0.50    1.87
   3   6  25   52.05    5.37
  -3   6 -25   68.44    6.06
  -3  -6  25   61.65    5.95
   3   6  26   34.14    4.41
  -3   6 -26   40.26    4.73
  -3  -6  26   32.83    4.38
   3   6  27   39.32    4.65
  -3   6 -27   46.55    4.97
   3   6  27   45.88    4.45
   3   6  28   33.65    4.15
  -3   6 -28   31.46    4.09
   3   6  28   29.80    3.63
   3   6  29  201.93   10.38
  -3   6 -29  226.70   11.00
   3   6  29  207.63    9.83
  -3   6 -30    3.81    1.91
   3   7 -29   70.70    5.44
   3  -7  29   71.69    6.51
   3  -7  28   21.02    3.86
   3   7 -28   17.65    3.08
   3   7 -27   46.80    4.78
   3  -7  27   47.52    5.75
   3  -7  26  164.95   11.20
   3   7 -26  179.18   10.06
   3  -7  25   28.25    4.81
   3   7 -25   29.01    4.16
   3  -7  25   26.86    3.75
   3  -7  25   29.24    4.24
   3  -7  24   22.32    4.49
   3   7 -24   22.36    3.69
   3  -7  24   29.10    3.89
   3  -7  24   28.59    4.09
   3  -7  23   13.58    3.62
   3   7 -23   13.42    2.81
   3  -7  23    9.31    2.77
   3  -7  23    9.48    2.30
   3  -7  22   39.67    4.74
   3   7 -22   45.11    4.78
   3  -7  22   40.56    5.51
  -3   7  22   30.41    4.71
   3  -7  22   37.78    4.15
   3  -7  21    8.80    3.19
   3   7 -21   11.20    2.76
   3  -7  21   14.12    2.84
   3  -7  21   10.58    2.98
  -3   7  21    2.76    2.09
   3  -7  20    0.56    2.11
   3   7 -20    2.08    1.77
  -3   7  20    3.74    2.49
   3  -7  20    3.18    1.58
   3  -7  20    5.47    2.21
   3  -7  19   83.69    6.26
   3   7 -19   86.81    6.41
   3  -7  19   92.93    7.55
   3  -7  19   74.44    5.53
  -3   7  19   67.90    6.42
   3  -7  18   50.19    4.73
   3   7 -18   54.69    4.89
   3  -7  18   51.13    4.31
  -3   7  18   58.61    5.67
   3  -7  17  272.98   12.43
   3   7 -17  312.53   13.12
  -3   7  17  288.33   13.84
   3  -7  17  262.51   11.65
   3  -7  16   77.01    5.61
   3   7 -16   87.49    6.01
   3  -7  16   87.25    5.43
  -3   7  16   81.06    6.47
   3  -7  15   74.32    5.27
   3  -7  15   72.27    4.86
  -3   7  15   84.71    6.20
   3   7 -15   77.09    5.54
   3  -7  14   20.31    2.71
  -3   7  14   28.02    3.51
   3  -7  14   18.30    2.43
   3   7 -14   26.30    3.19
   3  -7  13    4.37    1.51
  -3   7  13    5.70    1.88
   3  -7  13    5.99    1.61
   3   7 -13    7.66    1.97
   3  -7  12   55.94    4.05
  -3   7  12   56.86    4.63
   3  -7  12   56.66    3.78
   3   7 -12   71.02    4.84
  -3  -7 -12   59.72    3.21
   3  -7  11  198.75    8.60
  -3   7  11  200.51    9.34
   3  -7  11  187.52    8.02
   3   7 -11  201.32    9.18
  -3  -7 -11  206.05    7.52
   3  -7  10    4.06    1.17
   3  -7  10    5.26    1.45
  -3   7  10    3.76    1.32
   3   7 -10    3.35    1.38
  -3  -7 -10    7.09    1.13
   3  -7   9   90.87    4.93
  -3   7   9   97.03    5.42
   3  -7   9   91.22    4.64
   3   7  -9  105.31    5.77
  -3  -7  -9   97.62    4.51
   3  -7   8    8.31    1.46
   3  -7   8    6.70    1.25
  -3   7   8    7.71    1.51
   3   7  -8    7.87    1.80
  -3  -7  -8    8.62    1.22
   3   7  -7  151.86   11.27
  -3   7   7  130.00    6.14
   3   7  -7  131.58    6.68
  -3  -7  -7  139.86    5.75
   3   7  -6   36.99    5.49
  -3  -7  -6   32.71    5.12
  -3   7   6   28.39    2.40
   3   7  -6   33.93    3.01
  -3  -7  -6   38.00    2.54
  -3  -7  -5  370.78   19.15
   3   7  -5  377.79   14.02
  -3  -7  -5  399.45   13.03
  -3  -7  -4   36.54    5.09
   3   7  -4   33.49    2.96
  -3   7   4   32.58    2.65
  -3  -7  -4   35.31    2.50
  -3  -7  -3  223.04   13.28
   3   7  -3  220.42    9.11
  -3   7   3  212.04    8.63
  -3  -7  -3  230.69    8.36
  -3  -7  -2   24.87    4.22
   3   7  -2   21.85    2.33
  -3   7   2   19.25    2.10
  -3  -7  -2   23.35    2.00
  -3  -7  -1  361.19   17.72
   3   7  -1  366.19   13.16
  -3   7   1  366.54   12.98
  -3  -7  -1  370.40   12.43
  -3  -7   0   77.47    7.11
   3   7   0   79.20    4.84
  -3   7   0   81.65    4.35
  -3   7   0   81.03    4.51
   3   7   0   82.05    4.56
  -3  -7   0   81.94    4.11
  -3  -7   1  363.98   17.40
   3   7   1  382.44   13.59
  -3   7  -1  349.49   12.63
  -3   7  -1  378.87   13.23
   3   7   1  365.52   13.00
  -3  -7   2   23.97    3.96
   3   7   2   22.68    2.49
  -3   7  -2   26.40    2.34
  -3   7  -2   21.66    2.37
   3   7   2   26.02    2.41
  -3  -7   3  195.46   12.07
  -3   7  -3  231.77    8.86
   3   7   3  230.83    9.33
  -3   7  -3  228.74    9.28
   3   7   3  229.01    8.83
  -3  -7   3  224.82    8.41
  -3   7  -4   31.84    2.64
   3   7   4   39.22    3.13
  -3   7  -4   31.05    2.91
   3   7   4   32.34    2.63
  -3  -7   4   35.79    2.51
  -3  -7   5  367.38   17.64
  -3   7  -5  381.67   13.86
  -3   7  -5  358.84   13.05
   3   7   5  371.16   13.52
  -3  -7   5  394.01   12.77
   3  -7  -6   30.09    2.32
  -3  -7   6   27.46    4.33
  -3   7  -6   33.08    3.05
  -3  -7   6   33.42    2.43
  -3   7  -7  124.34    5.97
  -3  -7   7  130.18    9.53
  -3   7  -7  134.60    6.77
  -3  -7   7  140.19    5.79
  -3  -7   8   11.04    3.00
  -3   7  -8    8.06    1.60
  -3  -7   8    7.04    1.52
  -3   7  -8   11.36    2.07
  -3  -7   8    9.88    1.35
  -3   7  -9   89.35    5.82
  -3  -7   9   96.26    5.52
  -3   7  -9   98.36    5.67
  -3  -7   9   98.81    4.59
  -3   7 -10    4.54    1.57
  -3  -7  10    4.47    1.59
  -3   7 -10    6.00    1.75
  -3  -7  10    6.74    1.12
  -3  -7  11  200.48    9.50
  -3  -7  11  200.66    9.91
  -3   7 -11  207.75    9.43
  -3  -7  11  203.79    7.70
  -3  -7  12   53.25    4.58
  -3   7 -12   65.76    4.74
  -3  -7  12   60.30    3.31
  -3  -7  13    8.47    2.24
  -3   7 -13   12.40    2.20
  -3  -7  13    8.21    1.25
   3   7  14   16.64    2.72
   3   7  14   19.48    2.93
  -3  -7  14   19.58    3.16
  -3   7 -14   21.99    3.00
  -3  -7  14   20.60    1.81
  -3  -7  14   22.60    3.31
   3   7  15   85.22    5.84
   3   7  15   83.73    5.94
  -3  -7  15   74.50    6.07
  -3   7 -15   73.94    5.59
  -3  -7  15   84.43    6.09
  -3  -7  15   85.38    6.46
   3   7  16   90.06    6.12
   3   7  16   80.22    5.96
  -3  -7  16   74.55    6.34
  -3   7 -16   86.98    6.16
  -3  -7  16   73.68    5.93
  -3  -7  16   89.31    6.72
   3   7  17  300.24   13.06
   3   7  17  275.53   13.02
  -3  -7  17  285.64   14.19
  -3   7 -17  306.41   13.37
  -3  -7  17  287.59   13.57
   3   7  17  277.42   12.58
  -3  -7  17  302.98   14.17
   3   7  18   56.24    4.99
   3   7  18   53.69    5.12
  -3  -7  18   56.76    5.90
  -3  -7  18   51.65    5.27
   3   7  18   49.50    4.69
  -3  -7  18   66.71    6.03
   3   7  19   74.37    5.84
   3   7  19   80.14    6.26
  -3  -7  19   74.26    6.95
  -3   7 -19   83.23    6.35
  -3  -7  19   80.98    6.66
   3   7  19   67.97    5.68
  -3  -7  19   84.40    6.98
   3   7  20    3.41    2.04
   3   7  20    0.40    1.77
  -3  -7  20    1.14    2.29
  -3   7 -20    6.02    2.26
  -3  -7  20    0.99    1.67
  -3  -7  20    1.52    2.15
   3   7  21   13.09    2.90
  -3  -7  21   11.20    3.41
  -3  -7  21    9.71    2.79
  -3   7 -21   13.36    2.86
  -3  -7  21    8.72    2.75
   3   7  22   53.87    5.25
  -3  -7  22   44.59    5.77
  -3   7 -22   44.81    4.89
  -3  -7  22   43.42    5.27
   3   7  23    5.77    2.22
  -3   7 -23   13.44    2.79
  -3  -7  23   12.28    3.12
   3   7  24   26.85    3.87
  -3   7 -24   21.38    3.74
  -3  -7  24   26.89    4.11
   3   7  25   34.39    4.28
  -3   7 -25   35.32    4.51
  -3  -7  25   26.64    4.03
   3   7  26  162.30    9.48
  -3   7 -26  176.38   10.13
  -3  -7  26  166.70    9.82
   3   7  27   44.12    4.63
  -3   7 -27   56.65    5.28
   3   7  27   51.89    4.54
  -3   7 -28   21.93    3.42
   3   7  28   23.55    3.00
   3   7  28   19.20    3.08
  -3   7 -29   79.91    6.03
   3  -8  28   24.93    3.94
   3   8 -28   16.93    3.05
   3  -8  27   23.21    4.09
   3   8 -27   21.25    3.40
   3   8 -26   23.49    3.54
   3  -8  26   17.87    3.89
   3  -8  25   60.53    6.42
   3   8 -25   57.99    5.62
   3  -8  24   17.86    4.04
   3   8 -24   13.10    3.11
   3  -8  23   11.40    3.52
   3   8 -23   11.88    3.04
   3  -8  22   62.51    6.66
   3   8 -22   76.21    6.34
   3  -8  21  152.17    9.30
   3   8 -21  183.60   10.24
   3  -8  21  172.40   11.11
   3  -8  21  171.54    9.12
   3  -8  20   10.14    3.20
   3   8 -20    5.70    2.42
   3  -8  20    7.71    2.44
   3  -8  20    7.59    2.21
  -3   8  20    5.39    2.49
   3  -8  19   58.80    5.30
  -3   8  19   67.78    6.05
   3  -8  19   65.71    5.08
   3   8 -19   59.86    5.55
   3  -8  19   71.93    6.70
  -3   8  18    8.61    2.38
   3  -8  18    4.04    1.72
   3  -8  18    4.76    2.11
   3   8 -18    4.50    2.04
   3  -8  18    4.98    1.72
   3  -8  17  329.72   14.09
   3   8 -17  337.58   14.80
   3  -8  17  338.42   13.55
  -3   8  17  342.85   15.22
   3  -8  16  193.82    9.47
   3   8 -16  190.66    9.95
   3  -8  16  177.85    8.67
  -3   8  16  198.03   10.40
   3  -8  15  301.73   12.92
   3   8 -15  348.71   14.18
   3  -8  15  318.51   12.51
  -3   8  15  304.41   13.81
   3   8 -14    8.32    2.22
  -3   8  14    5.58    1.93
   3  -8  14    5.91    1.82
   3  -8  14    4.30    1.46
   3  -8  13  380.70   14.42
   3  -8  13  360.74   13.74
  -3   8  13  380.59   15.20
   3   8 -13  405.58   15.60
   3  -8  12   17.92    2.38
  -3   8  12   19.88    2.61
   3  -8  12   18.12    2.25
   3   8 -12   18.27    2.73
  -3  -8 -12   17.38    1.80
   3  -8  11  231.75   10.09
   3  -8  11  240.97    9.75
  -3   8  11  249.03   10.68
   3   8 -11  268.78   11.44
  -3  -8 -11  269.20    9.41
   3  -8  10   75.60    4.55
   3  -8  10   65.12    4.04
   3   8 -10   73.71    5.14
  -3  -8 -10   73.42    3.90
   3   8  -9  668.07   23.17
  -3  -8  -9  678.11   21.20
   3   8  -8  178.77    8.68
  -3  -8  -8  184.59    7.34
   3   8  -7  620.36   21.21
  -3  -8  -7  605.95   19.49
   3   8  -6   12.57    2.23
  -3  -8  -6   16.17    1.78
  -3  -8  -5  501.36   23.72
   3   8  -5  482.09   17.57
  -3  -8  -5  507.36   16.41
  -3  -8  -4   93.99    8.76
   3   8  -4   99.73    5.70
  -3   8   4   91.38    5.12
  -3  -8  -4  106.05    4.99
  -3  -8  -3  512.11   23.46
   3   8  -3  488.86   17.71
  -3   8   3  500.92   17.29
  -3  -8  -3  529.82   16.81
  -3  -8  -2    7.31    2.68
  -3   8   2    8.28    1.67
   3   8  -2    6.20    1.54
  -3  -8  -2   12.15    1.65
  -3  -8  -1   49.52    6.09
   3   8  -1   57.96    4.06
  -3   8   1   64.68    4.14
  -3  -8  -1   56.84    3.53
  -3  -8   0   23.11    4.17
   3   8   0   22.93    2.73
  -3   8   0   22.66    2.55
   3   8   0   20.16    2.37
  -3  -8   0   23.43    2.20
  -3  -8   1   52.39    6.05
   3   8   1   65.75    4.15
  -3   8  -1   58.17    3.82
  -3   8  -1   69.67    4.39
   3   8   1   62.94    4.40
  -3  -8   1   56.51    3.54
  -3  -8   2    7.83    2.63
   3   8   2    7.54    1.60
   3   8   2    9.09    1.99
  -3   8  -2   11.13    1.80
  -3   8  -2   10.58    1.93
  -3  -8   3  513.08   22.31
  -3   8  -3  493.30   17.14
   3   8   3  492.60   17.75
  -3   8  -3  512.59   17.90
   3   8   3  516.63   17.31
  -3  -8   3  516.39   16.75
  -3  -8   4  102.53    8.49
  -3   8  -4  100.86    5.39
   3   8   4  106.75    5.89
  -3   8  -4   96.58    5.81
   3   8   4  118.22    5.72
  -3  -8   4  106.61    5.13
  -3  -8   5  474.70   22.18
  -3   8  -5  533.72   17.67
  -3   8  -5  501.58   18.26
   3   8   5  531.59   18.15
  -3  -8   5  518.64   16.99
  -3   8  -6   12.54    1.95
  -3   8  -6   12.52    2.13
  -3  -8   6   18.30    1.94
  -3   8  -7  600.61   20.15
  -3   8  -7  607.75   21.00
  -3  -8   7  600.38   19.32
  -3   8  -8  186.73    8.86
  -3  -8   8  185.15    7.51
  -3   8  -9  673.75   23.48
  -3  -8   9  689.38   21.60
  -3   8 -10   69.51    5.06
  -3  -8  10   68.90    3.90
  -3  -8  11  266.03   12.21
  -3   8 -11  262.69   11.66
  -3  -8  11  259.36    9.65
  -3   8 -12   25.14    3.27
  -3  -8  12   18.12    1.95
  -3   8 -13  422.91   16.13
  -3  -8  13  382.58   13.26
   3   8  14    5.53    2.04
   3   8  14    4.79    2.01
  -3   8 -14    9.26    2.33
  -3  -8  14    5.09    1.15
   3   8  15  325.03   13.78
   3   8  15  309.98   13.84
  -3   8 -15  337.69   14.36
  -3  -8  15  334.63   15.14
   3   8  16  203.25   10.17
   3   8  16  210.80   10.54
  -3  -8  16  196.81   10.69
  -3   8 -16  199.96   10.49
  -3  -8  16  225.10   11.73
   3   8  17  344.74   14.95
   3   8  17  334.48   14.52
  -3  -8  17  332.85   15.47
  -3   8 -17  338.39   15.11
   3   8  18    8.97    2.39
   3   8  18    5.99    2.21
  -3  -8  18    7.16    2.19
  -3   8 -18    7.19    2.22
  -3  -8  18    2.98    2.17
   3   8  19   79.68    5.97
   3   8  19   64.09    5.71
  -3  -8  19   59.73    5.96
  -3   8 -19   70.66    6.10
  -3  -8  19   83.69    6.99
   3   8  20    8.40    2.56
   3   8  20    6.64    2.10
  -3  -8  20    7.85    2.75
  -3   8 -20    6.34    2.34
  -3  -8  20   12.03    3.31
   3   8  21  173.32    9.76
  -3  -8  21  158.01   10.37
  -3   8 -21  174.38   10.19
  -3  -8  21  166.32   10.48
   3   8  22   61.14    5.61
  -3   8 -22   61.32    5.90
  -3  -8  22   62.68    6.23
   3   8  23   13.91    2.96
  -3   8 -23   12.30    3.08
  -3  -8  23   17.40    3.68
   3   8  24   17.29    3.17
  -3   8 -24   15.48    3.36
  -3  -8  24   20.74    3.70
   3   8  25   60.14    5.30
  -3   8 -25   49.95    5.25
  -3  -8  25   60.30    5.75
   3   8  26   23.44    3.41
  -3   8 -26   18.48    3.23
  -3  -8  26   20.20    3.40
  -3   8 -27   31.22    4.06
  -3   8 -28   19.22    3.24
  -3   8 -29  105.09    6.87
   3  -9  27   15.00    3.15
   3   9 -27    9.37    2.57
   3   9 -26   54.82    5.26
   3  -9  26   59.65    6.09
   3  -9  25  108.04    8.43
   3   9 -25  120.93    7.98
   3  -9  24   18.93    4.01
   3   9 -24   17.12    3.41
   3  -9  23   26.18    4.36
   3   9 -23   28.17    4.07
   3  -9  22    9.17    3.16
   3   9 -22    5.14    2.37
   3  -9  21   33.66    4.91
   3   9 -21   37.23    4.48
   3  -9  20    8.93    3.13
   3   9 -20    6.44    2.42
   3   9 -19   67.12    6.07
   3  -9  19   80.18    7.01
   3  -9  19   69.89    5.38
   3  -9  18  240.58   11.36
   3   9 -18  254.11   12.50
   3  -9  18  238.81   13.05
   3   9 -17  175.02    9.95
   3   9 -16   19.00    3.36
   3   9 -15  282.79   13.16
   3   9 -14   42.55    4.34
   3   9 -13   17.61    2.89
   3   9 -12  175.76    9.48
  -3  -9 -12  181.71    7.40
   3   9 -11    1.76    1.65
  -3  -9 -11    1.89    0.99
   3   9 -10   23.61    3.16
  -3  -9 -10   23.76    2.27
   3   9  -9  314.55   13.29
  -3  -9  -9  304.34   11.22
   3   9  -8   24.77    3.18
  -3  -9  -8   25.47    2.41
   3   9  -7  369.09   14.84
  -3  -9  -7  375.04   13.20
   3   9  -6   36.36    3.56
  -3  -9  -6   37.41    2.91
   3   9  -5  281.02   11.83
  -3  -9  -5  274.95   10.44
   3   9  -4   39.23    3.59
  -3   9   4   38.06    3.19
  -3  -9  -4   32.90    2.78
   3   9  -3  488.57   17.94
  -3   9   3  503.68   17.53
  -3  -9  -3  501.77   16.82
   3   9  -2  221.81   10.19
   3   9  -2  209.97    9.57
  -3   9   2  213.61    9.33
  -3  -9  -2  222.98    8.80
   3   9  -1   43.17    4.06
   3   9  -1   44.25    3.71
  -3   9   1   47.77    3.77
  -3  -9  -1   50.49    3.43
  -3   9   0    1.53    1.16
   3   9   0    1.25    1.17
   3   9   0    0.29    1.49
  -3  -9   0   -0.19    1.06
  -3   9  -1   50.95    3.83
   3   9   1   50.50    4.27
  -3   9  -1   57.17    4.27
   3   9   1   60.49    4.21
  -3  -9   1   56.51    3.70
  -3   9  -2  203.23    8.93
   3   9   2  205.28    9.61
  -3   9  -2  206.63    9.43
   3   9   2  225.78    9.32
   3   9   3  511.82   18.48
  -3   9  -3  496.85   17.72
  -3   9  -3  526.42   18.56
   3   9   3  524.77   17.87
  -3  -9   3  499.78   17.07
  -3   9  -4   36.49    3.23
  -3   9  -4   33.50    3.40
   3   9   4   39.43    3.56
   3   9   4   35.04    3.22
  -3  -9   4   40.35    3.04
  -3   9  -5  268.56   10.97
  -3   9  -5  269.56   11.68
  -3  -9   5  276.09   10.38
  -3   9  -6   31.10    3.06
  -3   9  -6   37.39    3.67
  -3  -9   6   30.85    2.73
  -3   9  -7  352.75   13.93
  -3   9  -7  373.78   14.95
  -3  -9   7  391.30   13.37
  -3   9  -8   20.63    2.63
  -3   9  -8   19.21    2.84
  -3  -9   8   20.21    2.17
  -3   9  -9  319.97   13.72
  -3  -9   9  333.34   12.00
  -3   9 -10   24.94    3.26
  -3  -9  10   21.70    2.29
  -3   9 -11    1.07    1.60
  -3  -9  11    1.65    0.98
  -3  -9  12  173.24    9.99
  -3   9 -12  192.98    9.89
  -3  -9  12  190.63    7.76
  -3   9 -13   21.07    3.26
  -3  -9  13   20.86    2.14
   3   9  14   45.62    4.29
   3   9  14   36.68    4.00
  -3   9 -14   35.72    4.03
  -3  -9  14   43.00    2.98
   3   9  15  254.73   11.95
   3   9  15  264.91   12.30
  -3   9 -15  277.90   12.99
  -3  -9  15  286.36   13.91
   3   9  16   16.60    3.11
   3   9  16   17.38    2.97
  -3   9 -16   17.90    3.28
  -3  -9  16   21.54    3.96
   3   9  17  167.43    9.04
   3   9  17  163.41    9.19
  -3   9 -17  159.13    9.64
  -3  -9  17  161.20   10.18
   3   9  18  248.98   11.97
   3   9  18  267.58   12.50
  -3   9 -18  255.23   12.98
  -3  -9  18  264.57   13.75
   3   9  19   64.99    5.48
   3   9  19   70.11    5.85
  -3   9 -19   68.41    6.24
   3   9  20    6.81    2.25
   3   9  20    5.28    2.10
  -3   9 -20    4.75    2.12
  -3  -9  20    4.81    2.50
   3   9  21   34.86    4.20
  -3   9 -21   36.53    4.66
  -3  -9  21   45.29    5.39
   3   9  22    4.80    2.21
  -3   9 -22    4.35    2.49
  -3  -9  22    6.80    2.50
   3   9  23   18.32    3.26
  -3   9 -23   16.75    3.59
  -3  -9  23   22.78    3.92
   3   9  24   16.45    2.95
  -3   9 -24   14.52    3.09
  -3  -9  24   17.38    3.42
  -3   9 -25  126.83    8.45
  -3  -9  25  124.00    8.32
  -3   9 -26   55.54    5.42
  -3  -9  26   56.87    5.27
  -3   9 -27   15.47    3.14
  -3   9 -28   40.47    4.27
   3 -10  26   33.66    4.28
   3  10 -26   36.60    4.15
   3  10 -25   42.57    4.71
   3 -10  25   45.84    5.21
   3 -10  24    0.50    1.76
   3  10 -24   -0.44    2.14
   3 -10  23   20.88    3.74
   3  10 -23   18.27    3.46
   3 -10  22   25.67    4.31
   3  10 -22   22.03    3.74
   3 -10  21   35.08    4.83
   3  10 -21   36.00    4.51
   3 -10  20    6.46    2.73
   3  10 -20    6.64    2.58
   3  10 -19  105.00    7.64
   3 -10  19  107.21    8.07
   3 -10  19   91.11    6.44
   3 -10  18    8.18    2.70
   3  10 -18   12.54    2.69
   3  10 -17  524.15   21.14
   3  10 -16  165.77    9.78
   3  10 -15  225.15   11.68
   3  10 -14  160.28    9.42
   3  10 -13    5.82    2.37
  -3 -10 -13    8.37    1.55
   3  10 -12   49.06    4.74
  -3 -10 -12   40.66    3.12
   3  10 -11  233.25   11.31
  -3 -10 -11  206.94    8.67
   3  10 -10  423.23   16.76
  -3 -10 -10  385.50   14.00
   3  10  -9   56.77    5.04
  -3 -10  -9   51.58    3.61
   3  10  -8    7.60    2.42
  -3 -10  -8    6.54    1.54
   3  10  -7  185.99    9.75
  -3 -10  -7  204.95    8.49
   3  10  -6  110.38    7.04
  -3 -10  -6  126.56    6.15
   3  10  -5  298.95   12.91
  -3 -10  -5  299.73   11.42
  -3  10   4  147.94    7.55
  -3 -10  -4  143.26    6.93
   3  10  -3  272.37   12.60
   3  10  -3  287.94   12.29
  -3  10   3  285.08   11.76
  -3 -10  -3  292.69   11.15
   3  10  -2  412.82   16.48
   3  10  -2  421.25   15.93
  -3  10   2  410.05   15.47
  -3 -10  -2  397.77   14.54
   3  10  -1   14.62    2.32
  -3  10   1   13.16    2.19
   3  10  -1    9.21    2.42
  -3 -10  -1    9.52    1.86
  -3  10   0    3.19    1.41
   3  10   0    1.13    1.41
   3  10   0    2.35    1.70
  -3 -10   0    2.11    1.37
  -3  10  -1    9.26    1.99
   3  10   1    8.55    1.86
   3  10   1    8.88    2.23
  -3 -10   1    9.72    1.80
   3  10   2  405.63   15.90
  -3  10  -2  399.10   15.04
  -3  10  -2  402.66   15.69
   3  10   2  396.38   15.11
  -3  10  -3  273.17   11.32
   3  10   3  262.97   11.88
  -3  10  -3  273.96   12.00
   3  10   3  286.38   11.56
  -3  10  -4  153.91    7.73
   3  10   4  151.62    8.17
  -3  10  -4  156.72    8.40
   3  10   4  161.37    7.91
  -3 -10   4  154.62    7.15
  -3  10  -5  289.94   12.09
  -3  10  -5  279.56   12.70
  -3 -10   5  320.19   11.61
  -3  10  -6  120.40    6.72
  -3  10  -6  114.75    7.21
  -3 -10   6  133.26    6.34
  -3  10  -7  169.90    8.50
  -3  10  -7  173.20    9.30
  -3 -10   7  187.13    7.98
  -3  10  -8    6.38    1.77
  -3  10  -8    6.25    2.12
  -3 -10   8    5.49    1.51
  -3  10  -9   49.02    4.26
  -3  10  -9   53.01    4.86
  -3 -10   9   61.79    4.01
  -3  10 -10  414.86   16.08
  -3  10 -10  406.60   17.05
  -3 -10  10  429.29   14.90
  -3  10 -11  219.51   10.24
  -3  10 -11  242.72   11.60
  -3 -10  11  210.12    8.93
  -3 -10  12   37.35    4.66
  -3  10 -12   50.02    4.95
  -3 -10  12   41.52    3.20
   3  10  13    4.99    1.86
   3  10  13    1.75    1.60
  -3  10 -13    3.83    2.38
  -3 -10  13    2.73    1.19
   3  10  14  150.61    8.26
   3  10  14  144.75    8.30
  -3  10 -14  150.51    9.16
  -3 -10  14  151.50    6.72
   3  10  15  224.99   10.71
   3  10  15  225.62   10.94
  -3  10 -15  226.40   11.78
  -3 -10  15  214.21    8.61
   3  10  16  153.66    8.77
   3  10  16  167.66    8.84
  -3  10 -16  143.42    9.30
  -3 -10  16  166.63   10.39
   3  10  17  555.55   20.62
   3  10  17  517.05   20.59
  -3  10 -17  553.77   22.10
  -3 -10  17  588.05   23.29
   3  10  18   11.92    2.54
   3  10  18   12.20    2.52
  -3  10 -18   14.88    3.09
  -3 -10  18   12.90    3.20
   3  10  19   88.74    6.29
   3  10  19   84.10    6.34
  -3  10 -19   87.17    7.12
  -3 -10  19   97.72    7.95
   3  10  20    5.74    2.11
  -3  10 -20    5.89    2.83
  -3 -10  20    3.25    2.53
   3  10  21   32.54    3.92
  -3  10 -21   39.69    4.88
  -3 -10  21   41.07    5.14
  -3  10 -22   26.71    4.02
  -3 -10  22   22.76    3.99
  -3  10 -23   18.97    3.59
  -3 -10  23   19.76    3.61
  -3  10 -24    0.46    2.04
  -3 -10  24    0.46    1.86
  -3  10 -25   41.64    4.73
  -3 -10  25   47.72    4.98
  -3  10 -26   41.17    4.57
  -3  10 -27   72.86    5.72
   3  11 -25   15.56    2.96
   3  11 -24   12.74    2.94
   3 -11  23   29.17    4.10
   3  11 -23   37.55    4.55
   3 -11  22    1.43    1.92
   3  11 -22    1.37    2.08
   3 -11  21   67.91    6.34
   3  11 -21   79.24    6.64
   3 -11  20   16.48    3.40
   3  11 -20   19.05    3.71
   3  11 -19   58.97    5.67
   3 -11  19   53.56    5.53
   3 -11  19   48.13    4.66
   3 -11  18   55.88    5.13
   3  11 -18   62.28    5.92
   3  11 -17  228.73   12.19
   3 -11  17  232.98   12.35
   3  11 -16   29.71    4.19
   3  11 -15  136.76    8.86
   3  11 -14    8.24    2.41
   3  11 -13    8.09    2.48
  -3 -11 -13    3.80    1.24
   3  11 -12    4.41    2.36
  -3 -11 -12    7.08    1.54
   3  11 -11  107.38    7.51
  -3 -11 -11  105.50    5.62
   3  11 -10   44.19    4.81
  -3 -11 -10   46.69    3.53
   3  11  -9  222.49   11.46
  -3 -11  -9  228.46    9.51
   3  11  -8   20.84    3.42
  -3 -11  -8   26.18    2.76
   3  11  -7  143.97    8.37
  -3 -11  -7  127.41    6.60
   3  11  -6  192.88   10.01
  -3 -11  -6  183.95    8.38
   3  11  -5  142.11    8.73
   3  11  -5  146.20    8.28
  -3 -11  -5  138.19    6.97
   3  11  -4   25.26    3.33
  -3  11   4   20.78    2.81
   3  11  -4   23.68    3.53
  -3 -11  -4   23.73    2.72
   3  11  -3  193.77   10.23
   3  11  -3  168.02    9.14
  -3  11   3  186.04    9.03
  -3 -11  -3  183.44    8.33
   3  11  -2   33.29    3.63
   3  11  -2   31.66    4.06
  -3  11   2   36.19    3.60
  -3 -11  -2   30.24    3.04
   3  11  -1   70.61    5.67
  -3  11   1   61.52    4.88
   3  11  -1   60.74    4.94
  -3 -11  -1   69.00    4.57
  -3  11   0    1.94    1.26
   3  11   0    2.22    1.58
   3  11   0    0.38    1.60
  -3 -11   0    2.14    1.39
   3  11   1   65.99    5.40
  -3  11  -1   63.85    5.06
   3  11   1   66.10    4.92
  -3 -11   1   67.11    4.57
   3  11   2   35.34    3.96
  -3  11  -2   32.59    3.42
  -3  11  -2   34.42    3.76
   3  11   2   31.68    3.33
  -3  11  -3  184.86    8.93
   3  11   3  179.13    9.56
  -3  11  -3  187.82    9.63
   3  11   3  179.36    8.92
  -3  11  -4   20.85    2.93
  -3  11  -4   26.59    3.51
  -3 -11   4   28.79    2.84
  -3  11  -5  147.92    7.81
  -3  11  -5  145.63    8.38
  -3 -11   5  142.35    7.08
  -3  11  -6  180.96    8.91
  -3  11  -6  173.59    9.47
  -3 -11   6  170.67    8.01
  -3  11  -7  132.34    7.41
  -3  11  -7  135.83    8.21
  -3 -11   7  127.88    6.59
  -3  11  -8   24.65    3.16
  -3  11  -8   29.69    3.74
  -3 -11   8   23.91    2.68
  -3  11  -9  208.04   10.09
  -3  11  -9  205.40   10.99
  -3 -11   9  223.08    9.31
  -3  11 -10   40.11    4.02
  -3  11 -10   49.29    4.87
  -3 -11  10   38.08    3.26
  -3  11 -11   98.56    7.34
  -3  11 -11  107.97    6.78
  -3 -11  11  110.31    5.81
  -3  11 -12    1.72    1.60
  -3  11 -12    2.25    2.20
  -3 -11  12    3.88    2.54
  -3 -11  12    2.21    1.20
   3  11  13    2.34    1.60
   3  11  13    4.23    1.85
  -3  11 -13    2.79    1.76
  -3  11 -13    2.31    1.35
  -3 -11  13    2.01    2.19
  -3 -11  13    2.13    1.04
   3  11  14    9.12    2.22
   3  11  14    8.23    2.13
  -3  11 -14    8.09    2.21
  -3  11 -14    8.96    2.80
  -3 -11  14    8.55    1.63
   3  11  15  136.42    7.75
   3  11  15  142.11    8.06
  -3  11 -15  127.70    7.66
  -3  11 -15  128.68    8.72
  -3 -11  15  123.68    6.04
   3  11  16   29.30    3.48
   3  11  16   28.70    3.62
  -3  11 -16   23.70    3.28
  -3  11 -16   26.84    4.05
  -3 -11  16   27.46    4.54
   3  11  17  230.66   10.94
   3  11  17  231.92   11.23
  -3  11 -17  231.94   11.16
  -3  11 -17  248.72   12.85
  -3 -11  17  247.79   13.44
   3  11  18   67.44    5.43
  -3  11 -18   83.02    6.88
  -3 -11  18   79.85    7.15
   3  11  19   52.43    4.75
  -3  11 -19   51.26    5.42
  -3 -11  19   57.87    5.98
  -3  11 -20   10.88    3.06
  -3 -11  20   10.75    3.15
  -3  11 -21   79.33    6.73
  -3 -11  21   65.86    6.43
  -3  11 -22    4.74    2.61
  -3 -11  22    1.50    2.01
  -3  11 -23   38.28    4.54
  -3 -11  23   30.58    4.30
  -3  11 -24   10.79    2.77
  -3 -11  24   10.45    2.73
  -3  11 -25   12.44    2.76
  -3 -11  25   12.96    2.75
  -3  11 -26   20.10    3.21
   3  12 -24   20.58    3.19
   3  12 -23    2.39    1.90
   3  12 -22  108.18    7.56
   3  12 -21   66.21    5.99
   3  12 -20    3.68    2.45
   3  12 -19   54.02    5.41
   3  12 -18  344.24   15.89
   3 -12  18  342.15   14.84
   3  12 -17  118.84    8.31
   3  12 -16   16.31    3.46
   3  12 -15   87.00    6.93
   3  12 -14  281.60   13.93
   3  12 -13   40.96    4.82
  -3 -12 -13   32.37    2.97
   3  12 -12  124.77    8.49
  -3 -12 -12  128.30    6.45
   3  12 -11    2.30    2.00
  -3 -12 -11    5.62    1.63
   3  12 -10  153.49    9.39
  -3 -12 -10  158.18    7.55
   3  12  -9    3.54    2.16
  -3 -12  -9    3.23    1.45
   3  12  -8   18.59    3.43
  -3 -12  -8   18.75    2.42
   3  12  -7  430.14   18.56
   3  12  -7  407.81   17.51
  -3 -12  -7  431.16   15.72
   3  12  -6  437.76   18.54
   3  12  -6  428.75   17.77
  -3 -12  -6  428.00   15.87
   3  12  -5  203.61   11.14
   3  12  -5  196.61   10.39
  -3 -12  -5  185.06    8.83
   3  12  -4  153.59    9.57
   3  12  -4  175.58    9.45
  -3 -12  -4  163.29    7.98
   3  12  -3   26.52    3.56
  -3  12   3   22.50    3.03
   3  12  -3   23.78    3.85
  -3 -12  -3   24.02    2.87
   3  12  -2  424.80   17.09
  -3  12   2  444.28   16.97
   3  12  -2  418.76   17.89
  -3 -12  -2  416.50   15.79
   3  12  -1   30.01    3.60
  -3  12   1   30.40    3.53
   3  12  -1   24.15    3.84
  -3 -12  -1   26.38    2.99
  -3  12   0    5.67    1.90
   3  12   0    3.82    1.48
   3  12   0    3.32    2.06
  -3 -12   0    5.53    1.65
  -3  12  -1   20.49    3.04
   3  12   1   24.78    3.12
   3  12   1   24.74    3.62
  -3 -12   1   17.59    2.51
   3  12   2  436.23   17.42
  -3  12  -2  391.36   16.70
   3  12   2  419.75   16.50
  -3  12  -3   25.58    3.55
   3  12   3   29.75    3.46
   3  12   3   21.72    3.55
  -3  12  -4  167.96    8.65
  -3  12  -4  171.32    9.44
  -3 -12   4  153.02    7.80
  -3  12  -5  205.63   10.72
  -3  12  -5  183.41    9.57
  -3 -12   5  215.09    9.29
  -3  12  -6  429.36   17.89
  -3  12  -6  411.48   16.65
  -3 -12   6  448.55   16.03
  -3  12  -7  401.47   16.05
  -3  12  -7  391.38   17.03
  -3 -12   7  410.30   15.08
  -3  12  -8   17.55    2.98
  -3  12  -8   15.41    3.10
  -3 -12   8   17.66    2.49
  -3  12  -9    2.44    1.92
  -3  12  -9    3.60    2.28
  -3 -12   9    2.03    1.40
  -3  12 -10  144.10    8.41
  -3  12 -10  162.95    9.74
  -3 -12  10  169.81    7.83
  -3  12 -11    3.56    1.77
  -3  12 -11    4.22    2.38
  -3 -12  11    7.32    1.67
   3  12  12  115.82    7.13
   3  12  12  111.51    7.18
  -3 -12  12  130.50    9.12
  -3  12 -12  122.08    7.54
  -3  12 -12  146.53    9.17
  -3 -12  12  139.87    6.72
   3  12  13   28.52    3.44
   3  12  13   27.72    3.44
  -3  12 -13   32.64    3.82
  -3  12 -13   34.88    4.42
  -3 -12  13   31.59    4.60
  -3 -12  13   25.57    2.74
   3  12  14  267.66   12.02
   3  12  14  269.44   12.28
  -3  12 -14  287.84   14.17
  -3  12 -14  286.12   12.70
  -3 -12  14  285.66   10.93
   3  12  15   71.63    5.32
   3  12  15   66.88    5.33
  -3  12 -15   87.80    6.98
  -3  12 -15   78.06    5.79
  -3 -12  15   72.01    4.37
  -3  12 -16   18.14    2.90
  -3  12 -16   28.43    4.08
  -3  12 -17   98.29    7.64
  -3 -12  17  104.87    8.34
  -3  12 -18  347.26   16.53
  -3 -12  18  378.52   17.50
  -3  12 -19   69.54    6.34
  -3 -12  19   71.17    6.79
  -3  12 -20    4.31    2.47
  -3 -12  20    5.75    2.50
  -3  12 -21   91.93    7.25
  -3 -12  21   88.66    7.27
  -3  12 -22  100.43    7.40
  -3 -12  22   92.47    7.24
  -3  12 -23    1.26    1.87
  -3 -12  23    3.49    2.29
  -3  12 -24   26.04    3.64
  -3 -12  24   24.94    3.62
   3  13 -23   28.15    3.71
   3  13 -22   10.96    2.57
   3  13 -21   79.11    6.34
   3  13 -20   17.85    3.35
   3  13 -19  199.73   10.99
   3  13 -18   51.40    5.44
   3 -13  18   49.69    4.79
   3  13 -17  111.92    7.95
   3  13 -16    3.77    2.15
   3  13 -15  128.44    8.62
   3  13 -14   19.10    3.58
   3  13 -13   10.04    3.03
   3  13 -12   -0.48    2.12
  -3 -13 -12    0.47    1.07
   3  13 -11  119.44    8.22
  -3 -13 -11  108.90    6.06
   3  13 -10  125.65    9.18
   3  13 -10  135.38    8.88
  -3 -13 -10  144.03    7.20
   3  13  -9   68.04    6.53
   3  13  -9   57.54    5.60
  -3 -13  -9   59.11    4.39
   3  13  -8    6.79    2.46
   3  13  -8    6.69    2.84
  -3 -13  -8    8.17    1.94
   3  13  -7  177.02   10.78
   3  13  -7  181.63   10.17
  -3 -13  -7  164.10    8.25
   3  13  -6    0.87    1.94
   3  13  -6    0.50    2.18
  -3 -13  -6   -0.28    1.32
   3  13  -5    0.43    2.11
   3  13  -5    1.48    2.39
  -3 -13  -5    2.56    1.57
   3  13  -4    2.49    2.02
   3  13  -4    0.48    2.16
  -3 -13  -4    0.57    1.45
   3  13  -3  256.05   13.06
   3  13  -3  232.87   11.80
  -3 -13  -3  251.24   10.88
   3  13  -2  103.44    7.62
   3  13  -2  102.73    6.98
  -3  13   2  111.52    7.08
  -3 -13  -2  100.13    6.18
   3  13  -1  197.48   10.99
   3  13  -1  191.40   10.07
  -3  13   1  187.68    9.96
  -3 -13  -1  192.25    9.21
  -3  13   0    4.58    1.93
   3  13   0    6.35    1.75
   3  13   0   -0.45    2.09
  -3 -13   0    4.30    1.79
   3  13   1  198.10   10.84
  -3  13  -1  191.70   10.13
   3  13   1  192.66    9.91
  -3 -13   1  182.34    9.01
   3  13   2   99.02    7.27
  -3  13  -2  108.42    7.24
   3  13   2  103.04    6.87
  -3  13  -3  247.38   12.24
  -3  13  -4    1.27    1.75
  -3 -13   4    1.98    1.35
  -3  13  -5   -0.87    1.89
  -3  13  -5    1.06    1.58
  -3 -13   5    0.84    1.34
  -3  13  -6    0.44    1.78
  -3  13  -6    0.71    1.58
  -3 -13   6    0.28    1.28
  -3  13  -7  166.76    9.11
  -3  13  -7  165.72    9.96
  -3 -13   7  186.56    8.63
  -3  13  -8    9.30    2.27
  -3  13  -8    6.92    2.71
  -3 -13   8   10.13    2.15
  -3  13  -9   54.62    4.94
  -3  13  -9   64.42    5.90
  -3 -13   9   57.35    4.34
  -3  13 -10  131.60    7.84
  -3  13 -10  124.34    8.65
  -3 -13  10  130.74    6.88
  -3  13 -11   96.69    6.71
  -3 -13  11   96.12    7.91
  -3 -13  11  101.66    5.90
  -3  13 -12   -0.36    1.44
  -3  13 -12    0.49    2.24
  -3 -13  12   -1.07    2.32
  -3 -13  12    1.23    1.18
  -3  13 -13   10.68    2.46
  -3  13 -13    3.95    2.36
  -3 -13  13    5.41    2.74
  -3 -13  13    4.67    1.41
  -3  13 -14   12.25    2.55
  -3  13 -14   18.81    3.80
  -3 -13  14   20.38    2.44
  -3 -13  14   20.20    3.83
  -3  13 -15  111.16    8.06
  -3  13 -16    4.42    2.39
  -3  13 -17  128.00    8.70
  -3 -13  17  117.01    8.88
  -3  13 -18   49.87    5.41
  -3 -13  18   50.24    5.67
  -3  13 -19  189.84   10.82
  -3 -13  19  198.81   11.47
  -3  13 -20   24.04    3.82
  -3 -13  20   17.71    3.43
  -3  13 -21   75.45    6.25
  -3 -13  21   85.36    6.86
  -3  13 -22   16.72    3.15
  -3 -13  22   22.33    3.66
  -3  13 -23   25.40    3.52
  -3 -13  23   29.28    3.82
   3  14 -21    2.33    1.93
   3  14 -21    2.43    1.72
   3  14 -20    2.50    2.29
   3  14 -20   -1.49    2.12
   3  14 -19    7.92    2.54
   3  14 -19    6.31    2.28
   3  14 -18   63.56    6.00
   3  14 -18   57.85    5.46
   3  14 -17   38.55    4.47
   3 -14  17   28.91    3.80
   3  14 -16    6.17    2.58
   3  14 -15    4.05    2.24
   3  14 -14  294.98   14.16
   3  14 -13    9.71    2.64
   3  14 -12   26.08    4.02
  -3 -14 -12   19.30    2.43
   3  14 -11   20.99    3.69
   3  14 -11   28.02    4.59
  -3 -14 -11   21.78    2.69
   3  14 -10  323.99   15.87
   3  14 -10  318.31   15.04
  -3 -14 -10  316.20   12.65
   3  14  -9   26.83    4.02
   3  14  -9   24.84    4.18
  -3 -14  -9   25.80    2.93
   3  14  -8   11.93    2.95
   3  14  -8    5.79    2.87
  -3 -14  -8   15.29    2.38
   3  14  -7  108.83    8.35
   3  14  -7   99.63    7.41
  -3 -14  -7  110.28    6.44
   3  14  -6  352.77   16.85
   3  14  -6  375.28   16.26
  -3 -14  -6  352.73   14.22
   3  14  -5   25.32    3.84
   3  14  -5   28.15    4.51
  -3 -14  -5   22.83    2.99
   3  14  -4    7.26    2.61
   3  14  -4    8.07    3.08
  -3 -14  -4    9.09    2.24
   3  14  -3    3.33    1.99
   3  14  -3    7.42    2.81
  -3 -14  -3    3.35    1.76
   3  14  -2  207.84   11.41
   3  14  -2  187.08   10.21
  -3 -14  -2  186.80    9.24
   3  14  -1    5.98    2.16
  -3  14   1    2.77    1.97
   3  14  -1    3.34    2.42
  -3 -14  -1    0.61    1.74
  -3  14   0   -1.20    1.74
   3  14   0    3.93    1.67
   3  14   0    0.47    1.95
  -3 -14   0    1.22    1.66
  -3  14  -1    6.13    2.22
   3  14   1    5.47    2.02
  -3 -14   1    3.04    1.88
  -3  14  -2  193.82   10.50
  -3  14  -3    6.82    2.20
  -3  14  -4    7.85    2.48
  -3 -14   4    5.69    1.90
  -3  14  -5   19.63    3.49
  -3 -14   5   20.18    2.93
  -3  14  -6  361.48   16.42
  -3 -14   6  380.95   14.71
  -3  14  -7  105.48    7.65
  -3 -14   7   98.54    6.08
  -3  14  -8   13.13    3.19
  -3  14  -8   15.19    2.84
  -3 -14   8   13.95    2.29
  -3  14  -9   14.22    3.31
  -3  14  -9   20.08    3.14
  -3 -14  10  325.18   15.96
  -3  14 -10  325.30   14.01
  -3  14 -10  339.22   15.59
  -3 -14  10  327.83   13.04
  -3  14 -11   20.28    3.08
  -3  14 -11   26.95    4.24
  -3 -14  11   27.74    3.03
  -3 -14  11   19.74    3.94
  -3  14 -12   22.30    3.27
  -3  14 -12   26.98    4.02
  -3 -14  12   26.92    4.32
  -3 -14  12   27.66    2.95
  -3  14 -13   10.57    2.97
  -3 -14  13    9.73    3.12
  -3 -14  13    7.18    1.75
  -3  14 -14  314.66   14.83
  -3 -14  14  290.34   11.44
  -3 -14  14  317.71   15.52
  -3  14 -15    5.65    2.39
  -3  14 -16   11.09    3.00
  -3  14 -17   38.24    4.59
  -3  14 -18   72.14    6.26
  -3 -14  18   73.85    6.59
  -3  14 -19   17.88    3.29
  -3 -14  19   13.71    3.12
  -3  14 -20    1.18    1.84
  -3 -14  20    0.45    1.80
  -3  14 -21    1.47    1.64
  -3 -14  21    0.83    1.66
   3  15 -19    1.67    1.66
   3  15 -19    3.42    2.06
   3  15 -18   12.44    2.64
   3  15 -18   13.76    2.97
   3  15 -17  118.48    7.47
   3 -15  17   96.80    6.83
   3  15 -16   15.67    3.01
   3  15 -15   32.07    4.17
   3  15 -14   32.17    4.20
   3  15 -13   41.91    4.79
   3 -15  13   40.26    3.30
   3  15 -12   16.11    3.25
  -3 -15 -12   12.00    2.07
   3  15 -11   17.18    3.30
  -3 -15 -11   15.76    2.31
   3  15 -10   16.87    3.41
   3  15 -10   12.31    3.57
  -3 -15 -10   20.55    2.64
   3  15  -9  133.21    9.18
   3  15  -9  147.24    9.05
  -3 -15  -9  134.59    7.14
   3  15  -8   11.54    2.95
   3  15  -8   16.05    3.54
  -3 -15  -8    9.88    2.15
   3  15  -7  162.95   10.25
   3  15  -7  158.38    9.52
  -3 -15  -7  163.95    8.27
   3  15  -6   26.16    4.04
   3  15  -6   38.04    5.04
  -3 -15  -6   35.25    3.61
   3  15  -5  146.83    9.74
   3  15  -5  165.66    9.47
  -3 -15  -5  148.28    8.00
   3  15  -4    5.50    2.06
   3  15  -4    0.50    2.30
  -3 -15  -4    5.56    1.86
   3  15  -3   52.74    5.66
   3  15  -3   48.68    4.98
  -3 -15  -3   50.24    4.44
   3  15  -2   34.47    4.08
   3  15  -2   24.14    4.13
  -3 -15  -2   31.66    3.62
   3  15  -1  124.31    8.70
   3  15  -1  121.79    7.86
  -3 -15  -1  124.37    7.19
  -3  15   0    7.78    2.43
  -3 -15   0    5.34    2.01
  -3  15  -1  129.44    8.25
  -3 -15   1  126.65    7.30
  -3  15  -2   43.42    4.72
  -3  15  -3   49.64    5.09
  -3  15  -4    9.06    2.57
  -3 -15   4    9.51    2.17
  -3  15  -5  152.31    9.19
  -3 -15   5  143.98    7.77
  -3  15  -6   31.25    4.24
  -3 -15   6   37.66    3.74
  -3  15  -7  140.71    8.84
  -3 -15   7  131.66    7.32
  -3  15  -8   11.40    3.00
  -3 -15   8   10.87    2.14
  -3 -15   9  128.16    9.01
  -3  15  -9  119.63    8.30
  -3 -15   9  130.54    6.99
  -3  15 -10   11.46    2.95
  -3 -15  10   14.12    3.44
  -3 -15  10   15.16    2.32
  -3  15 -11   17.36    3.33
  -3 -15  11   17.95    2.48
  -3 -15  11   14.69    3.23
  -3  15 -12   16.75    3.47
  -3 -15  12   11.67    2.10
   3 -15 -12   16.29    2.37
  -3 -15  12   17.81    3.59
  -3  15 -13   44.63    4.96
  -3 -15  13   30.64    4.54
  -3 -15  13   39.90    3.32
  -3  15 -14   32.38    4.27
  -3 -15  14   33.81    4.64
  -3  15 -15   31.98    4.23
  -3 -15  15   32.59    4.51
  -3  15 -16   12.37    3.00
  -3  15 -17  124.96    7.93
  -3  15 -18   18.41    2.98
  -3 -15  18   10.69    2.70
  -3  15 -19    3.18    1.72
  -3 -15  19    0.84    1.68
   3  16 -17   48.64    4.69
   3  16 -16    5.58    2.08
   3  16 -16    7.27    2.39
   3 -16  16    4.98    1.75
   3  16 -15   -0.69    1.65
   3  16 -15   -0.40    1.84
   3  16 -14  147.17    8.42
   3  16 -13   43.29    4.54
   3  16 -12   30.67    3.99
   3 -16  12   34.37    3.05
   3  16 -11   91.67    6.71
  -3 -16 -11   82.55    4.99
   3 -16  11   87.53    5.19
   3  16 -10  186.23   10.05
   3 -16  10  186.96    8.51
  -3 -16 -10  178.04    8.26
   3  16  -9   70.69    6.34
   3  16  -9   68.40    5.83
  -3 -16  -9   74.06    4.87
   3  16  -8    4.45    2.09
   3  16  -8    4.81    2.30
  -3 -16  -8    3.47    1.48
   3  16  -7    9.76    2.67
   3  16  -7    9.68    3.07
  -3 -16  -7   10.60    2.09
   3  16  -6  354.90   16.16
   3  16  -6  350.39   15.25
  -3 -16  -6  336.68   13.73
   3  16  -5    6.48    2.38
   3  16  -5    6.79    3.03
  -3 -16  -5    7.68    1.98
   3  16  -4   18.52    3.27
   3  16  -4   18.42    3.72
  -3 -16  -4   15.89    2.57
   3  16  -3   18.85    3.77
  -3 -16  -3   14.01    2.51
   3  16  -2  228.58   11.36
  -3 -16  -2  213.02   10.16
  -3 -16  -1   22.26    2.98
  -3 -16   0    1.55    1.48
  -3 -16   1   17.00    2.70
  -3  16  -2  223.23   11.39
  -3  16  -3   17.49    3.16
  -3  16  -4   16.82    3.17
  -3 -16   4   13.29    2.51
  -3  16  -5    8.70    2.56
  -3 -16   5    9.80    2.10
  -3  16  -6  334.32   15.02
  -3 -16   6  337.77   13.56
  -3  16  -7    7.11    2.52
  -3 -16   7    8.48    2.00
  -3 -16   7    9.32    2.92
  -3  16  -8    2.93    1.91
  -3 -16   8    5.96    2.47
  -3 -16   8    3.01    1.44
  -3  16  -9   67.14    5.82
  -3 -16   9   63.35    6.19
  -3 -16   9   64.23    4.58
  -3  16 -10  197.30   10.54
  -3 -16  10  188.57    8.65
  -3 -16  10  176.66   10.83
   3 -16 -10  201.37    8.96
  -3  16 -11   96.00    6.91
   3 -16 -11   97.82    5.58
  -3 -16  11   83.36    7.24
  -3 -16  11   89.22    5.29
  -3  16 -12   35.76    4.32
  -3 -16  12   33.56    3.02
  -3 -16  12   31.32    4.49
  -3  16 -13   47.47    4.80
  -3 -16  13   43.20    5.06
  -3  16 -14  163.52    9.27
  -3 -16  14  184.01   10.45
  -3  16 -15    3.65    1.88
  -3 -16  15    1.35    1.97
  -3  16 -16    6.26    2.07
  -3  16 -17   34.42    3.84
   3  17 -14    6.57    2.14
   3  17 -13   81.12    5.64
   3  17 -12    2.53    1.60
   3  17 -11    3.28    1.78
   3 -17  11    4.86    1.36
   3  17 -10    6.40    2.02
  -3 -17 -10    2.33    1.21
   3 -17  10    3.74    1.42
   3  17  -9   87.22    6.12
   3 -17   9   84.84    5.14
  -3 -17  -9   84.23    5.04
   3  17  -8    3.87    1.91
   3  17  -8    3.41    2.03
  -3 -17  -8    5.77    1.61
   3 -17   8    3.72    1.53
   3  17  -7   62.30    5.72
   3  17  -7   48.22    4.72
   3 -17   7   55.33    4.18
  -3 -17  -7   51.26    4.07
   3  17  -6    8.32    2.32
   3  17  -6    8.78    2.71
  -3 -17  -6    5.77    1.69
   3  17  -5  115.78    7.32
  -3 -17  -5  112.47    6.39
  -3 -17  -4   17.09    2.56
  -3 -17  -3   38.83    3.69
  -3 -17  -2    8.58    2.06
  -3 -17  -1  117.18    6.73
  -3 -17   0    1.44    1.54
  -3 -17   1  104.60    6.33
  -3  17  -4   24.38    3.53
  -3 -17   4   18.85    2.70
  -3  17  -5  106.89    7.09
  -3 -17   5  118.53    8.00
  -3 -17   5  105.00    6.21
  -3  17  -6    6.68    2.24
  -3 -17   6    8.17    2.66
  -3 -17   6    7.24    1.95
  -3  17  -7   55.21    4.92
  -3 -17   7   47.27    3.91
   3 -17  -7   50.36    4.00
  -3 -17   7   43.46    5.01
  -3  17  -8    5.10    2.04
  -3 -17   8    7.99    1.88
  -3 -17   8    7.35    2.42
   3 -17  -8    5.58    1.72
  -3  17  -9   85.40    6.16
   3 -17  -9   83.73    5.12
  -3 -17   9   80.35    6.63
  -3 -17   9   75.93    4.87
  -3  17 -10    2.11    1.72
  -3 -17  10    3.17    2.12
   3 -17 -10    3.65    1.37
  -3 -17  10    1.34    1.02
  -3  17 -11    3.78    1.98
  -3 -17  11    0.89    1.68
  -3 -17  11    1.24    1.00
  -3  17 -12    0.67    1.49
  -3 -17  12    3.91    2.20
  -3  17 -13   85.25    5.94
  -3 -17  13   81.21    6.50
  -3 -17  14    5.26    2.13
   3  18  -9   36.88    3.66
  -3 -18  -8    1.63    1.05
   3 -18   8    1.25    1.15
   3 -18   7   36.56    3.15
  -3 -18  -7   30.83    2.93
   3 -18   6   89.89    5.18
  -3 -18  -6   80.10    4.99
   3 -18   5   54.52    3.97
  -3 -18  -5   50.12    3.88
  -3 -18  -4    2.40    1.36
   3 -18   4    0.96    1.36
   3 -18   3   19.86    2.55
  -3 -18  -3   30.73    3.07
  -3 -18  -2   81.78    5.12
   3 -18   1  127.50    6.53
  -3 -18  -1  112.28    6.32
   3 -18   0   23.77    2.75
  -3 -18   0   21.52    2.67
   3 -18  -1  129.39    6.46
  -3 -18   1  115.12    6.34
   3 -18  -2   65.80    4.47
  -3 -18   2   56.96    5.10
   3 -18  -3   23.03    2.73
  -3 -18   3   19.26    3.28
  -3 -18   4    2.71    1.44
   3 -18  -4    2.88    1.48
  -3 -18   4    0.39    1.55
   3 -18  -5   49.94    3.85
  -3 -18   5   43.53    4.67
  -3 -18   5   53.23    4.00
   3 -18  -6   86.97    5.07
  -3 -18   6   73.27    5.97
  -3 -18   6   80.72    4.99
  -3 -18   7   35.88    3.24
  -3 -18   7   32.99    4.09
   3 -18  -7   29.77    2.93
  -3  18  -8    0.30    1.93
  -3 -18   8   -0.21    1.12
   3 -18  -8    0.43    1.10
  -3 -18   8    1.98    1.73
  -3  18  -9   41.39    3.90
  -3 -18   9   37.79    4.31
  -3 -18  10   13.49    2.88
   3 -19   1  104.05    5.43
  -3 -19  -1  100.83    5.44
   3 -19   0   20.86    2.37
  -3 -19   0   19.02    2.31
   3 -19  -1  103.30    5.41
  -3 -19   1  101.82    5.47
   3 -19  -2    6.43    1.50
  -4   0   0  118.58    6.73
  -4   0   0  112.76    4.44
  -4   0   1   44.36    3.87
  -4   0  -1   44.47    4.04
  -4   0  -1   44.80    2.37
  -4   0   2  923.83   29.13
  -4   0  -2  899.00   29.50
  -4   0   2  849.79   25.71
  -4   0  -2  891.88   25.80
  -4   0   3  140.99    6.16
  -4   0   3  141.80    7.65
   4   0  -3  158.82    8.45
  -4   0  -3  149.52    5.45
  -4   0   3  146.82    6.27
  -4   0   3  146.39    5.41
  -4   0   4 1967.32   59.23
  -4   0   4 2023.72   61.72
   4   0  -4 2168.37   63.10
  -4   0  -4 2045.27   58.14
  -4   0   4 2061.68   58.13
  -4   0   4 2093.74   59.56
  -4   0   5    1.16    1.03
  -4   0  -5    0.45    0.59
  -4   0   5   -0.32    1.37
   4   0  -5    0.39    1.41
  -4   0   5    1.77    0.74
  -4   0   5    0.18    0.91
  -4   0   6  685.99   21.91
  -4   0   6  685.52   24.39
   4   0  -6  665.29   25.13
  -4   0  -6  708.56   20.58
  -4   0   6  668.48   22.10
  -4   0   6  681.59   20.50
  -4   0   7    0.19    1.13
  -4   0   7    1.01    0.56
  -4   0  -7    0.82    0.63
  -4   0   7    0.37    1.40
   4   0  -7    0.44    1.43
  -4   0   7    1.44    1.15
  -4   0   8  552.24   18.45
  -4   0   8  542.78   21.03
   4   0  -8  526.04   21.79
  -4   0  -8  552.42   16.60
  -4   0   8  548.58   16.59
  -4   0   8  512.38   18.36
  -4   0   9   13.85    2.09
  -4   0   9   12.75    2.76
   4   0  -9   10.25    2.89
  -4   0   9   12.56    1.28
  -4   0  -9   10.59    1.17
  -4   0   9   13.67    2.15
  -4   0  10  195.92    8.87
   4   0  10  202.98    8.34
  -4   0 -10  178.74    6.65
   4   0  10  185.71    8.24
   4   0 -10  182.94   11.47
  -4   0  10  203.31   11.33
  -4   0  10  199.88    6.88
  -4   0  11   30.30    3.23
  -4   0  11   33.74    2.09
   4   0  11   31.70    2.95
   4   0  11   27.21    2.89
  -4   0  11   24.82    3.94
   4   0 -11   24.63    4.30
  -4   0  12 1891.89   58.62
   4   0  12 1943.26   57.47
   4   0  12 1858.78   57.52
  -4   0  12 1900.87   62.95
  -4   0  12 1963.68   55.16
   4   0 -12 1894.10   63.83
  -4   0  12 2015.72   58.50
  -4   0  13   86.35    6.07
   4   0  13   85.33    5.40
   4   0 -13   79.06    8.08
   4   0  13   93.62    5.65
  -4   0  13  101.61    6.19
  -4   0  14   62.59    5.30
   4   0  14   63.51    4.63
   4   0  14   60.77    4.75
  -4   0  14   61.31    4.95
  -4   0  15   45.88    4.80
   4   0  15   52.21    4.29
   4   0  15   51.34    4.39
  -4   0  15   46.42    4.37
  -4   0  16  316.63   15.17
   4   0  16  332.73   13.84
   4   0  16  334.57   14.08
  -4   0  16  360.28   14.72
  -4   0  17   37.30    4.72
   4   0  17   40.10    4.03
   4   0  17   49.57    4.69
  -4   0  17   44.65    4.49
   4   0  18  145.37    8.69
  -4   0  18  150.23    9.86
   4   0  18  148.39    9.27
  -4   0  18  168.55    9.30
   4   0  19  134.01    8.26
  -4   0  19  118.68    9.14
   4   0  19  121.37    8.66
  -4   0  19  128.76    8.23
   4   0  20  638.36   24.36
  -4   0  20  637.15   26.50
   4   0  20  651.52   25.63
  -4   0  20  657.35   24.61
   4   0  21  105.78    7.69
  -4   0  21   92.67    8.42
   4   0  21   95.76    7.99
  -4   0  21  107.52    7.63
   4   0  22 1134.09   39.07
  -4   0  22 1078.43   41.37
   4   0  22 1129.86   40.57
  -4   0  22 1192.96   39.17
   4   0  23   90.48    7.43
  -4   0  23   95.77    8.82
   4   0  23  119.18    9.18
  -4   0  23   95.52    7.40
   4   0  24   25.21    4.82
  -4   0  24   28.08    5.23
   4   0  24   13.33    3.36
   4   0  25   -0.64    2.41
  -4   0  25   -0.73    3.01
   4   0  25    4.15    2.48
   4   0  26   15.41    3.94
   4   0  26   21.45    3.63
   4   0  26   19.71    4.01
  -4   0  26   18.19    4.40
   4   0  27    2.53    2.46
   4   0  27    3.57    2.54
   4   0  27    1.69    2.02
  -4   0  27   -1.43    2.95
   4   0  28   27.02    4.72
   4   0  28   23.65    4.04
   4   0  28   26.47    3.80
  -4   0  28   21.26    4.68
   4   0  29   48.08    5.27
   4   0  29   54.94    6.14
   4   0  29   44.01    4.66
   4   0  30   27.65    4.53
   4   0  30   27.28    4.00
   4   0  30   35.59    4.15
   4   0  31    6.85    2.53
   4  -1  31   10.45    2.93
   4  -1  31   15.57    2.96
   4  -1  31   13.05    2.55
   4  -1  30   26.37    4.44
   4  -1  30   22.34    3.67
   4  -1  30   28.26    3.70
   4  -1  29   50.99    5.42
   4  -1  29   56.08    6.26
   4  -1  29   45.37    4.80
   4  -1  28   26.62    4.87
   4  -1  28   24.30    3.64
   4  -1  28   26.45    4.19
   4  -1  27   14.05    3.80
   4  -1  27   14.72    3.41
   4  -1  27   12.16    2.79
   4  -1  26   33.06    5.28
   4  -1  26   32.04    4.67
   4  -1  26   32.46    4.21
   4  -1  25   29.16    5.08
   4  -1  25   32.06    4.74
   4  -1  25   28.65    3.88
   4  -1  24  158.85   10.12
   4  -1  24  157.35   11.12
   4  -1  23   68.78    6.51
   4  -1  23   87.80    7.90
   4  -1  22  129.91    8.78
   4  -1  22  121.46    9.33
   4  -1  21   37.24    4.72
   4  -1  21   28.15    4.74
   4  -1  20   81.07    6.61
   4  -1  20   77.38    7.00
  -4   1  20   93.78    6.96
   4  -1  19   10.26    2.72
   4  -1  19   14.63    3.19
  -4   1  19    5.08    2.15
   4  -1  18    8.85    2.55
  -4   1  18   10.10    2.56
   4  -1  17   58.05    4.95
  -4   1  17   49.59    4.71
   4  -1  16   47.74    4.47
   4  -1  16   60.11    4.74
  -4   1  16   56.41    4.91
   4  -1  15  590.39   20.93
   4  -1  15  569.49   21.03
  -4   1  15  614.68   21.74
   4  -1  14  322.02   12.82
   4  -1  14  332.15   13.18
  -4   1  14  302.22   13.21
   4  -1  13  107.07    6.09
   4  -1  13  108.35    6.30
  -4   1  13  116.99    6.71
   4  -1  12    9.02    1.87
   4  -1  12    8.13    1.99
   4   1 -12    4.81    2.60
  -4   1  12    6.61    1.89
   4   1 -11  315.70   16.31
   4  -1  11  286.44   11.18
   4  -1  11  276.65   11.27
  -4   1  11  304.77   14.90
  -4   1  11  291.76   11.98
   4  -1  10    2.92    1.34
   4  -1  10    4.14    1.34
  -4   1  10    4.53    0.93
  -4  -1 -10    4.47    0.78
  -4   1  10    4.63    1.86
   4   1 -10    2.97    2.01
   4  -1   9   24.73    2.41
  -4   1   9   23.10    1.74
   4  -1   9   18.76    2.20
  -4   1   9   24.78    3.41
   4   1  -9   27.19    4.13
  -4  -1  -9   22.35    1.64
  -4   1   8   11.52    1.25
   4  -1   8   10.86    1.64
  -4   1   8    9.49    2.44
   4  -1   8   13.68    1.81
   4   1  -8   10.88    2.87
  -4  -1  -8   10.69    1.14
  -4   1   8   10.99    2.00
   4   1  -7 1033.21   35.66
  -4   1   7 1008.16   29.47
  -4   1   7 1046.43   33.57
  -4  -1  -7 1003.21   29.29
  -4   1   7  967.04   31.16
  -4   1   6  236.87   10.98
   4   1  -6  249.24   12.66
  -4  -1  -6  255.41    8.27
  -4   1   6  235.68    8.30
  -4   1   6  249.32    9.75
  -4   1   5  385.09   14.63
   4   1  -5  369.15   16.26
  -4   1   5  361.15   13.07
  -4   1   5  375.02   11.82
  -4  -1  -5  363.80   11.65
  -4   1   4  597.88   20.26
   4   1  -4  584.21   22.20
  -4   1   4  573.47   17.53
  -4   1   4  553.78   18.69
  -4  -1  -4  585.42   17.44
  -4   1   3  502.12   17.52
   4   1  -3  492.90   19.43
  -4   1   3  490.79   16.24
  -4  -1  -3  494.93   15.07
  -4   1   3  487.07   15.15
  -4   1   2   89.25    5.20
  -4  -1  -2   91.99    6.40
  -4  -1  -2   89.44    3.66
  -4   1   2   79.30    3.62
  -4  -1  -1    8.88    2.12
  -4   1   1    8.73    1.68
  -4  -1  -1    9.41    1.06
  -4   1   0  131.21    6.59
  -4  -1   0  114.43    7.20
  -4  -1   0  126.23    4.74
  -4   1   0  121.43    4.79
  -4   1  -1    5.80    0.97
  -4  -1   1    4.70    1.67
  -4   1  -1    6.11    1.74
  -4   1  -2  100.70    5.96
  -4  -1   2  101.83    6.45
  -4   1  -2   97.87    4.10
  -4  -1   3  466.82   15.80
  -4  -1   3  446.47   18.10
   4  -1  -3  490.22   18.01
  -4   1  -3  500.66   15.02
  -4  -1   3  482.95   15.86
  -4  -1   3  491.17   14.86
  -4  -1   4  550.50   18.38
  -4  -1   4  605.28   21.41
   4  -1  -4  602.55   21.09
  -4   1  -4  593.53   17.52
  -4  -1   4  553.72   18.46
  -4  -1   4  565.98   17.30
  -4  -1   5  350.54   12.57
  -4  -1   5  368.65   15.33
   4  -1  -5  376.84   15.04
  -4  -1   5  351.93   12.71
  -4  -1   5  361.64   11.42
  -4   1  -5  362.30   11.57
  -4  -1   6  250.51    9.41
  -4   1  -6  234.51    8.23
   4  -1  -6  257.26   11.82
  -4  -1   6  234.91   11.62
  -4  -1   6  237.75    8.11
  -4  -1   6  254.86    9.66
  -4  -1   7 1029.28   31.44
  -4   1  -7 1031.31   29.87
  -4  -1   7 1013.12   34.65
   4  -1  -7  983.50   34.48
  -4  -1   7 1013.37   29.68
  -4  -1   7 1020.81   31.57
  -4  -1   8   10.54    1.78
  -4   1  -8   10.75    1.25
  -4  -1   8   11.25    2.51
   4  -1  -8    6.13    2.07
  -4  -1   8   11.33    1.20
  -4  -1   8   14.05    2.14
  -4  -1   9   21.33    2.51
  -4   1  -9   23.49    1.74
  -4  -1   9   17.71    3.33
   4  -1  -9   18.61    3.34
  -4  -1   9   23.35    1.65
  -4  -1   9   24.25    2.71
  -4  -1  10    3.57    1.49
  -4  -1  10    4.12    0.81
  -4  -1  10    4.54    2.14
   4  -1 -10   -0.52    1.35
  -4  -1  11  302.86   12.40
   4   1  11  275.22   11.47
  -4  -1  11  312.66   15.60
   4   1  11  286.65   11.68
   4  -1 -11  310.85   15.69
  -4  -1  11  308.49    9.83
  -4  -1  12   11.21    2.22
   4   1  12   10.21    2.00
   4   1  12   12.13    2.05
  -4  -1  12    6.51    0.97
  -4  -1  12    5.99    2.27
   4  -1 -12    8.10    2.79
  -4  -1  13  107.71    6.92
   4   1  13  119.81    6.51
   4   1  13  117.80    6.64
   4  -1 -13  118.85    9.62
  -4  -1  13  116.46    6.89
  -4  -1  14  295.05   13.64
   4   1  14  316.72   12.70
   4   1  14  307.52   12.86
  -4  -1  14  314.59   13.32
  -4  -1  15  615.96   22.82
   4   1  15  582.62   21.02
   4   1  15  581.88   21.19
  -4  -1  15  594.54   21.75
  -4  -1  16   60.30    5.75
   4   1  16   50.14    4.43
   4   1  16   58.29    4.94
  -4  -1  16   68.31    5.48
   4   1  17   65.47    5.14
   4   1  17   59.90    5.17
  -4  -1  17   48.66    5.39
   4   1  17   56.33    5.16
  -4  -1  17   60.52    5.29
   4   1  18    8.59    2.51
  -4  -1  18    6.82    2.86
   4   1  18    9.36    2.76
  -4  -1  18   10.01    2.65
   4   1  19    7.73    2.45
   4   1  19    5.81    2.37
  -4  -1  19   11.24    3.29
   4   1  19    7.73    2.50
  -4  -1  19    9.18    2.63
   4   1  20   86.92    6.81
  -4  -1  20   93.34    8.06
   4   1  20   89.79    7.34
  -4  -1  20   82.82    6.63
   4   1  21   43.36    4.94
  -4  -1  21   39.56    5.66
   4   1  21   46.06    5.53
  -4  -1  21   31.94    4.21
   4   1  22  106.76    8.07
  -4  -1  22  108.00    9.36
   4   1  22  135.01    9.66
  -4  -1  22  139.48    8.86
   4   1  23   78.08    6.90
  -4  -1  23   68.29    7.57
   4   1  23   67.94    6.88
  -4  -1  23   70.25    6.32
   4   1  24  148.46    9.99
  -4  -1  24  140.53   11.21
   4   1  24  162.57   11.00
  -4  -1  24  174.78   10.22
   4   1  25   31.43    5.09
  -4  -1  25   35.58    5.90
   4   1  26   38.34    5.50
  -4  -1  26   36.16    5.90
   4   1  27   21.74    4.44
  -4  -1  27   18.40    4.61
   4   1  28   27.09    4.60
  -4  -1  28   24.48    4.69
   4   1  29   58.08    6.28
   4   1  30   22.05    4.01
   4   1  31   19.78    3.52
   4   1  31   10.87    2.73
   4   1  31   13.89    2.64
   4  -2  31   23.85    3.87
   4  -2  31   26.90    3.38
   4  -2  31   22.87    3.45
   4  -2  30   18.09    3.91
   4  -2  30   11.35    2.89
   4  -2  30   15.85    2.92
   4  -2  29   40.92    4.72
   4  -2  29   35.78    5.22
   4  -2  29   37.86    4.26
   4  -2  28  225.09   12.37
   4  -2  28  227.76   13.54
   4  -2  28  251.06   12.01
  -4   2  28  236.04   14.32
   4  -2  27   41.57    5.74
   4  -2  27   28.05    4.26
   4  -2  27   25.68    3.80
  -4   2  27   44.02    6.30
  -4   2  26   95.13    8.81
   4  -2  26   92.54    6.90
   4  -2  26   86.44    7.33
   4  -2  25   93.98    6.91
  -4   2  25   90.57    8.74
   4  -2  25   86.36    7.36
   4  -2  24  112.26    7.59
  -4   2  24  108.38    9.48
   4  -2  24  102.36    8.00
  -4   2  23  225.94   14.38
   4  -2  23  253.58   13.09
  -4   2  22  304.31   16.69
   4  -2  22  314.93   15.05
  -4   2  21   83.55    8.09
   4  -2  21   98.71    7.39
  -4   2  20  173.10   11.45
   4  -2  20  189.25   10.44
  -4   2  19   55.93    6.17
   4  -2  19   61.97    5.54
  -4   2  18   92.19    7.72
   4  -2  18   98.45    6.86
  -4   2  17  224.12   12.56
   4  -2  17  262.13   11.85
  -4   2  17  251.72   11.94
  -4   2  16   33.95    4.25
   4  -2  16   37.69    3.96
  -4   2  16   34.74    3.98
  -4   2  15   18.31    3.39
   4  -2  15   20.31    2.91
  -4   2  15   22.84    3.12
  -4   2  14  314.03   13.69
   4  -2  14  289.23   12.31
   4  -2  14  307.38   12.28
  -4   2  14  281.44   12.65
  -4   2  13  344.85   14.45
   4  -2  13  347.16   13.49
   4  -2  13  330.44   13.12
  -4   2  13  348.16   14.02
  -4   2  12 2083.87   63.13
   4  -2  12 2131.05   61.87
   4  -2  12 2050.07   62.00
  -4   2  12 2114.17   62.79
  -4   2  11   77.42    5.22
   4  -2  11   73.00    4.54
   4   2 -11   77.50    7.79
   4  -2  11   74.96    4.70
  -4   2  11   85.81    5.38
  -4   2  10  298.99   11.67
   4  -2  10  282.11   10.65
   4  -2  10  265.03   10.63
  -4  -2 -10  269.24    9.10
  -4   2   9   14.08    2.10
   4  -2   9   10.40    1.70
   4  -2   9   10.32    1.80
   4   2  -9   12.66    3.34
  -4  -2  -9   10.75    1.15
  -4   2   8  618.38   20.01
   4  -2   8  558.27   18.92
  -4   2   8  606.37   22.20
   4  -2   8  597.92   19.23
   4   2  -8  630.86   24.95
  -4  -2  -8  593.84   17.93
  -4   2   7  104.59    5.64
   4  -2   7  123.86    5.37
  -4   2   7  116.47    4.84
   4   2  -7  110.30    8.37
  -4   2   7  119.83    7.03
   4  -2   7  116.83    5.35
  -4  -2  -7  116.81    4.58
  -4   2   7  118.68    6.09
  -4   2   6  292.62   10.76
   4  -2   6  255.80    9.84
  -4   2   6  306.79    9.81
  -4   2   6  304.09   12.20
   4  -2   6  278.37   10.07
   4   2  -6  294.82   14.53
  -4  -2  -6  288.72    9.42
  -4   2   6  298.55   11.14
  -4   2   5  323.26   11.36
  -4   2   5  329.86   12.52
  -4   2   5  296.44   10.34
   4   2  -5  341.92   15.44
  -4  -2  -5  317.87   10.15
  -4   2   5  301.21   11.58
  -4   2   4 1389.34   42.13
  -4   2   4 1437.32   41.29
  -4   2   4 1486.95   43.45
   4   2  -4 1538.15   47.54
  -4  -2  -4 1376.10   40.95
  -4   2   4 1499.57   42.75
  -4   2   3  224.30    8.46
  -4   2   3  235.78    9.22
  -4   2   3  221.33    7.78
   4   2  -3  228.32   11.75
  -4  -2  -3  212.78    7.48
  -4   2   2  589.31   18.73
  -4  -2  -2  619.97   23.41
  -4   2   2  626.68   20.16
  -4  -2  -2  635.01   18.54
  -4   2   1  133.38    6.24
  -4  -2  -1  146.47    8.65
  -4  -2  -1  138.88    5.16
  -4  -2   0  205.58   10.51
  -4   2   0  193.96    7.03
  -4   2   0  194.54    8.07
  -4  -2   0  197.64    6.84
  -4   2  -1  138.91    5.41
  -4  -2   1  134.11    8.17
  -4   2  -1  140.02    6.49
  -4   2  -2  632.90   19.54
  -4  -2   2  677.57   23.90
  -4   2  -2  653.83   21.32
  -4  -2   3  232.76    8.97
  -4  -2   3  233.35   11.59
  -4   2  -3  246.55    8.41
   4  -2  -3  236.50   10.26
  -4  -2   3  246.45    8.15
  -4  -2   3  249.52    9.13
  -4  -2   4 1432.22   41.58
  -4   2  -4 1404.14   40.67
  -4  -2   4 1473.76   45.52
   4  -2  -4 1393.67   43.41
  -4  -2   4 1398.78   40.37
  -4  -2   4 1376.23   41.65
  -4  -2   5  339.58   11.69
  -4   2  -5  311.46   10.65
  -4  -2   5  346.79   14.86
   4  -2  -5  323.36   13.32
  -4  -2   5  312.25   10.42
  -4  -2   5  345.96   11.93
  -4  -2   6  287.21   10.58
  -4   2  -6  273.73    9.50
  -4  -2   6  301.35   13.69
   4  -2  -6  301.80   12.63
  -4  -2   6  280.66    9.26
  -4  -2   6  275.81   10.74
  -4  -2   7  123.24    5.99
  -4  -2   7  120.98    8.05
   4  -2  -7  116.88    7.45
  -4  -2   7  119.78    6.06
  -4  -2   7  122.04    4.74
  -4  -2   8  624.00   20.21
  -4  -2   8  608.24   23.64
   4  -2  -8  620.34   22.88
  -4  -2   8  596.38   18.17
  -4  -2   8  577.16   20.16
  -4  -2   9    9.15    1.77
  -4  -2   9    8.48    2.53
   4  -2  -9    8.55    2.53
  -4  -2   9   10.14    1.92
  -4  -2   9    7.24    1.00
  -4  -2  10  273.85   11.45
   4  -2 -10  278.29   14.11
  -4  -2  10  289.76   14.74
  -4  -2  10  284.03   11.56
  -4  -2  10  284.49    9.37
  -4  -2  11   85.50    5.48
  -4   2 -11   66.75    5.96
   4  -2 -11   77.92    7.06
  -4  -2  11   86.99    7.49
  -4  -2  11   74.95    3.42
  -4  -2  12 1983.16   61.22
   4   2  12 2081.86   60.45
  -4  -2  12 2144.83   66.95
   4   2  12 1970.26   60.42
  -4   2 -12 1965.12   63.71
   4  -2 -12 2060.29   66.10
  -4  -2  12 2036.05   57.68
  -4  -2  13  351.53   14.64
   4   2  13  346.15   13.61
  -4   2 -13  329.92   16.35
   4   2  13  338.62   13.69
   4  -2 -13  365.99   18.23
  -4  -2  13  346.81   14.16
  -4  -2  14  279.18   13.09
   4   2  14  307.93   12.42
   4   2  14  288.00   12.47
  -4  -2  14  299.93   12.91
   4   2  15   21.45    2.92
   4   2  15   23.16    3.19
  -4  -2  15   21.55    3.45
   4   2  15   18.24    2.83
  -4  -2  15   16.93    2.99
   4   2  16   37.61    3.96
   4   2  16   37.98    4.06
  -4  -2  16   38.84    4.54
   4   2  16   36.10    4.00
  -4  -2  16   34.81    4.02
   4   2  17  254.18   11.69
   4   2  17  245.32   11.81
  -4  -2  17  250.27   13.15
   4   2  17  250.08   12.23
  -4  -2  17  253.77   12.21
   4   2  18   92.79    6.68
   4   2  18   93.86    6.83
  -4  -2  18   99.21    7.98
   4   2  18  103.65    7.39
  -4  -2  18  109.79    7.43
  -4  -2  19   73.58    7.00
   4   2  19   66.45    6.09
  -4  -2  19   72.53    6.15
  -4  -2  20  193.25   12.27
   4   2  20  221.17   11.96
  -4  -2  20  185.69   10.80
  -4  -2  21  104.02    8.96
   4   2  21  102.16    8.04
  -4  -2  21  108.45    7.90
  -4  -2  22  301.65   16.57
   4   2  22  292.96   15.22
  -4  -2  22  296.69   14.56
  -4  -2  23  232.72   14.51
   4   2  23  238.49   13.61
  -4  -2  23  243.17   12.81
  -4  -2  24  113.20    9.75
   4   2  24  132.99    9.63
  -4  -2  24  108.16    8.12
  -4  -2  25   88.20    8.74
   4   2  25  102.05    8.55
  -4  -2  25   99.86    7.61
  -4  -2  26   75.58    8.07
   4   2  26   74.46    7.38
  -4  -2  26   75.28    6.46
   4   2  27   34.23    5.16
   4   2  27   42.88    4.60
   4   2  27   31.17    4.62
  -4  -2  27   34.80    5.68
   4   2  28  231.84   12.25
   4   2  28  235.64   13.35
   4   2  28  214.89   11.22
  -4  -2  28  213.01   13.54
   4   2  29   39.02    5.17
   4   2  29   32.00    3.93
   4   2  29   28.70    4.14
   4   2  30    9.91    2.79
   4   2  30   11.33    2.76
   4   2  30   12.50    2.64
   4   2  31   21.91    3.39
   4   2  31   21.65    3.02
   4  -3  31   90.16    6.45
   4  -3  31   94.82    6.10
   4   3 -30   15.96    2.69
   4  -3  30   19.94    3.42
   4  -3  30   19.49    3.04
   4  -3  29   23.38    3.80
   4  -3  29   34.73    4.00
   4  -3  28   98.16    6.95
   4  -3  28  102.39    7.61
  -4   3  27   31.89    5.41
   4  -3  27   20.37    3.37
   4  -3  27   27.00    4.28
  -4   3  26   25.08    4.75
   4  -3  26   28.72    4.36
   4  -3  26   20.02    3.56
  -4   3  25    3.53    3.23
   4  -3  25    4.58    2.43
   4  -3  25    7.56    2.49
   4  -3  24  182.75   10.05
  -4   3  24  167.54   12.10
   4  -3  24  172.38   10.63
   4  -3  23  500.87   19.40
   4  -3  23  491.72   20.40
  -4   3  22  272.63   15.70
   4  -3  22  288.10   13.27
   4  -3  22  288.28   14.20
  -4   3  21  135.04   10.04
   4  -3  21  129.38    8.62
  -4   3  20   97.99    8.40
   4  -3  20  104.70    7.46
  -4   3  19   89.67    7.92
   4  -3  19  102.40    7.19
  -4   3  18   86.69    7.28
   4  -3  18   77.73    6.04
  -4   3  17  280.05   14.14
   4  -3  17  293.00   12.99
  -4   3  16  228.96   12.24
   4  -3  16  258.30   11.57
  -4   3  15  132.47    8.35
   4  -3  15  135.47    7.49
  -4   3  14  153.94    8.93
   4  -3  14  169.70    8.36
  -4   3  13  287.67   12.75
   4  -3  13  283.06   11.69
  -4   3  12  166.53    8.67
   4  -3  12  169.82    7.97
  -4   3  11  265.87   11.26
   4  -3  11  268.22   10.45
   4  -3  11  260.45   10.19
   4   3 -11  249.82   15.24
  -4  -3 -11  244.92    8.51
  -4   3  10  104.39    6.04
   4   3 -10   88.37    8.42
   4  -3  10  103.42    5.30
   4  -3  10  103.41    5.45
  -4  -3 -10  109.85    4.34
  -4   3   9  501.47   17.24
   4  -3   9  489.80   16.16
   4   3  -9  500.57   22.48
   4  -3   9  480.54   16.28
  -4  -3  -9  473.61   14.94
  -4   3   8  443.54   15.33
   4  -3   8  419.67   14.26
   4  -3   8  433.92   14.46
  -4  -3  -8  413.57   13.35
  -4   3   7  102.84    5.44
   4  -3   7  102.08    4.79
   4   3  -7  110.77    8.64
   4  -3   7  103.80    4.91
  -4  -3  -7  111.29    4.38
  -4   3   6    7.13    1.40
   4  -3   6    5.29    1.11
   4  -3   6    3.80    1.01
   4   3  -6    5.04    2.18
  -4  -3  -6    4.66    0.86
  -4   3   5  467.67   15.74
  -4   3   5  457.88   16.33
   4   3  -5  478.02   20.54
  -4  -3  -5  473.26   14.55
  -4   3   4 1477.94   43.92
  -4   3   4 1421.64   44.40
   4   3  -4 1571.19   49.88
  -4  -3  -4 1521.01   42.84
  -4   3   3  167.36    6.74
  -4   3   3  157.73    6.64
   4   3  -3  168.07   10.11
  -4  -3  -3  155.47    5.84
  -4   3   2  151.02    5.92
  -4  -3  -2  134.85    5.29
  -4   3   1    3.09    0.83
  -4  -3  -1   13.24    1.29
  -4   3   0  438.58   13.86
  -4  -3   0  427.44   13.51
  -4   3  -1    4.95    0.96
  -4   3  -2  155.66    6.19
  -4  -3   2  129.85    5.89
  -4  -3   3  146.20    6.27
   4  -3  -3  144.10    6.74
  -4   3  -3  153.85    6.68
  -4  -3   3  140.40    6.27
  -4  -3   3  154.60    5.61
  -4  -3   4 1507.68   44.16
   4  -3  -4 1536.96   45.42
  -4  -3   4 1478.79   44.33
  -4  -3   4 1491.69   43.03
  -4  -3   5  474.83   15.74
   4  -3  -5  466.22   17.02
  -4  -3   5  463.78   15.95
  -4  -3   5  469.82   14.57
  -4  -3   6    5.30    1.40
   4  -3  -6    3.56    1.42
  -4  -3   6    5.13    0.93
  -4  -3   6    5.00    1.48
  -4  -3   7   97.36    5.16
   4  -3  -7   98.03    6.27
  -4  -3   7   91.09    3.97
  -4  -3   7   84.99    5.08
  -4  -3   8  437.79   15.68
   4  -3  -8  443.95   17.76
  -4  -3   8  432.24   13.92
  -4  -3   8  446.53   15.90
  -4  -3   9  515.74   17.75
   4  -3  -9  505.20   20.08
  -4   3  -9  496.95   19.05
  -4  -3   9  510.28   15.56
  -4  -3   9  469.58   17.59
  -4  -3  10  105.88    6.24
  -4   3 -10  112.77    7.35
   4  -3 -10  100.17    7.63
  -4  -3  10  113.67    4.55
  -4  -3  10  111.60    6.32
  -4  -3  11  267.67   11.47
  -4   3 -11  264.25   12.96
   4  -3 -11  267.35   13.99
  -4  -3  11  263.18    8.93
  -4  -3  12  174.41    8.91
  -4   3 -12  173.11   10.31
   4  -3 -12  178.53   11.37
  -4  -3  12  176.27    6.42
  -4   3 -13  291.59   14.60
   4  -3 -13  277.01   15.61
  -4  -3  13  282.47   12.71
   4   3  13  275.01   11.71
  -4  -3  13  287.36    9.47
  -4  -3  14  158.54    9.18
   4   3  14  171.46    8.57
  -4  -3  14  169.57    8.98
  -4  -3  15  135.88    8.63
   4   3  15  143.98    8.05
  -4  -3  15  153.55    8.57
  -4  -3  16  259.59   13.13
   4   3  16  258.27   12.14
  -4  -3  16  269.49   12.58
  -4  -3  17  270.76   14.02
   4   3  17  293.53   13.38
  -4  -3  17  289.48   13.49
  -4  -3  18   75.71    6.88
   4   3  18   69.31    5.96
  -4  -3  18   85.07    6.61
   4   3  19  110.16    7.76
  -4  -3  19  109.09    7.66
  -4  -3  20   96.85    8.46
   4   3  20  110.95    8.07
  -4  -3  20  110.94    7.96
  -4  -3  21  121.17    9.55
   4   3  21  126.49    8.94
  -4  -3  21  128.79    8.72
   4   3  22  283.46   14.17
  -4  -3  22  273.95   15.61
   4   3  22  275.09   14.51
  -4  -3  22  291.52   14.40
   4   3  23  496.08   20.32
   4   3  23  473.47   20.90
  -4  -3  23  484.72   20.31
   4   3  24  151.70   10.00
  -4  -3  24  162.26   11.69
   4   3  24  177.35   11.15
  -4  -3  24  162.06   10.08
  -4  -3  25    4.23    2.91
   4   3  25    5.63    2.86
   4   3  25    7.08    2.76
  -4  -3  25    0.49    1.73
  -4  -3  26   20.88    4.64
   4   3  26   23.28    3.93
   4   3  26   19.87    3.96
  -4  -3  26   30.46    4.13
   4   3  27   16.72    3.59
  -4  -3  27   25.73    4.74
   4   3  27   15.93    3.75
  -4  -3  27   19.18    3.36
   4   3  28  101.62    7.60
   4   3  28   96.23    7.90
   4   3  28   92.09    6.68
  -4  -3  28   94.41    8.55
   4   3  29   23.11    4.04
   4   3  29   27.29    4.06
   4   3  29   27.68    3.72
   4   3  30   23.14    3.75
   4   3  30   21.36    3.54
   4   3  30   21.66    3.14
   4   3  31   93.25    6.59
   4   3  31  104.28    6.35
   4  -4  31   24.37    3.85
   4  -4  30   11.98    3.14
   4   4 -30    8.12    2.08
   4  -4  30   11.25    2.73
   4  -4  30    6.92    2.17
   4  -4  29   60.58    5.64
   4   4 -29   54.42    4.74
   4  -4  29   54.68    6.14
   4  -4  29   59.27    5.11
   4  -4  28   45.31    4.97
   4   4 -28   34.76    3.98
   4  -4  28   29.35    4.96
   4  -4  28   44.89    4.58
   4  -4  27   67.60    6.21
   4  -4  27   58.13    6.54
   4  -4  27   51.22    4.95
  -4   4  27   50.35    6.47
   4  -4  26   56.56    5.85
   4  -4  26   55.20    6.59
   4  -4  26   65.82    5.68
  -4   4  26   65.66    7.31
   4  -4  25    3.88    2.68
  -4   4  25    3.41    2.66
   4  -4  25    3.32    2.25
   4  -4  25    5.00    2.53
   4  -4  24   79.94    6.88
   4  -4  24   79.68    7.76
   4  -4  24   74.37    6.12
  -4   4  24   75.83    7.88
   4  -4  23  297.08   14.45
   4  -4  23  280.42   15.49
   4  -4  23  291.12   13.38
  -4   4  23  263.79   15.56
   4  -4  22  690.66   25.75
   4  -4  22  682.95   27.40
   4  -4  22  666.51   24.49
  -4   4  22  619.85   27.25
   4  -4  21  109.11    7.68
   4  -4  21   83.64    7.75
   4  -4  21   94.77    6.74
  -4   4  21   97.46    8.46
   4  -4  20  340.82   14.23
  -4   4  20  303.96   16.09
   4  -4  20  316.65   14.73
  -4   4  19  128.61    9.45
   4  -4  19  150.78    8.85
  -4   4  18  413.93   18.53
   4  -4  18  390.55   16.50
  -4   4  17  232.80   12.75
   4  -4  17  251.70   11.70
  -4   4  16    8.21    2.40
   4  -4  16    7.46    2.07
  -4   4  15   32.58    4.17
   4  -4  15   42.56    3.88
  -4   4  14   63.42    5.42
   4  -4  14   74.96    5.15
  -4   4  13  200.81   10.12
   4  -4  13  197.90    9.08
  -4   4  12  324.11   13.73
   4  -4  12  332.95   12.71
  -4   4  11  418.53   16.39
   4  -4  11  423.21   15.36
  -4  -4 -11  449.61   13.80
  -4   4  10  189.94    8.82
   4  -4  10  181.96    7.88
   4   4 -10  202.28   13.44
  -4  -4 -10  186.30    6.77
  -4   4   9   21.60    2.49
   4  -4   9   21.24    2.17
   4   4  -9   20.08    4.45
  -4  -4  -9   17.49    1.56
   4  -4   8  135.87    5.99
   4   4  -8  138.58   10.44
  -4   4   8  135.58    6.73
   4   4  -8  142.67    5.98
  -4  -4  -8  136.51    5.36
   4  -4   7   98.15    4.66
   4   4  -7  115.86    9.20
  -4   4   7   95.66    5.29
   4   4  -7  105.69    4.74
  -4  -4  -7  103.46    4.32
   4  -4   6   68.47    3.47
   4  -4   6   67.77    3.37
   4   4  -6   77.46    7.28
  -4   4   6   65.08    4.02
   4   4  -6   66.58    3.48
  -4  -4  -6   66.38    3.25
  -4   4   5  214.10    8.49
   4   4  -5  220.04   12.84
  -4  -4  -5  212.20    7.55
  -4   4   4 2390.19   65.68
   4   4  -4 2401.95   72.73
  -4  -4  -4 2255.58   72.12
  -4  -4  -4 2183.82   64.47
  -4   4   3  130.56    5.80
  -4  -4  -3  120.07    9.02
  -4  -4  -3  132.05    5.18
  -4   4   2    8.10    1.37
  -4  -4  -2    4.79    2.21
  -4  -4  -2    4.79    0.97
  -4  -4  -1  399.63   18.82
  -4  -4  -1  444.89   13.85
  -4  -4   0   49.19    5.27
  -4  -4   0   48.00    2.68
  -4  -4   1  431.96   19.12
  -4  -4   1  444.21   14.62
  -4  -4   2   11.97    1.55
  -4  -4   2    7.20    2.44
  -4  -4   2    6.63    1.33
  -4  -4   3  132.05    5.70
  -4   4  -3  121.52    4.52
  -4  -4   3  132.98    8.71
  -4   4  -3  129.31    4.80
  -4  -4   3  117.01    5.71
  -4  -4   3  121.80    5.01
  -4  -4   4 2398.33   66.67
  -4   4  -4 2176.24   65.59
  -4  -4   4 2412.12   72.09
   4  -4  -4 2347.99   66.80
  -4   4  -4 2369.41   66.29
  -4  -4   4 2308.09   66.96
  -4  -4   4 2291.79   65.53
  -4   4  -5  194.71    7.90
   4  -4  -5  204.80    8.78
  -4  -4   5  216.22    8.41
  -4   4  -5  209.20    7.68
  -4  -4   5  199.74    8.54
  -4  -4   5  208.77    7.42
  -4   4  -6   61.09    3.81
  -4  -4   6   59.91    5.88
   4  -4  -6   58.59    4.25
  -4  -4   6   54.31    3.64
  -4   4  -6   55.92    3.21
  -4  -4   6   54.05    3.85
  -4  -4   6   59.09    3.02
  -4   4  -7  121.64    6.16
  -4  -4   7  104.23    8.10
   4  -4  -7  108.45    6.49
  -4  -4   7  112.77    5.70
  -4   4  -7  109.64    5.01
  -4  -4   7  114.54    6.03
  -4  -4   7  106.03    4.58
  -4  -4   8  137.15    6.71
  -4   4  -8  136.13    7.20
   4  -4  -8  134.35    7.81
  -4  -4   8  137.77    9.51
  -4  -4   8  130.88    6.83
  -4  -4   8  138.33    5.41
  -4  -4   9   20.99    2.61
  -4   4  -9   24.85    2.96
   4  -4  -9   21.36    3.11
  -4  -4   9   15.33    2.45
  -4  -4   9   21.60    1.71
  -4   4 -10  205.65   10.26
  -4  -4  10  210.60   12.64
   4  -4 -10  197.19   11.07
  -4  -4  10  216.29    9.48
   4   4  10  196.83    8.36
  -4  -4  10  199.34    7.29
  -4  -4  10  203.08    9.36
  -4   4 -11  419.23   17.48
   4  -4 -11  422.98   18.83
  -4  -4  11  408.93   16.04
   4   4  11  421.48   15.13
  -4  -4  11  433.09   13.52
  -4  -4  11  403.92   16.01
  -4   4 -12  315.24   15.04
   4  -4 -12  338.25   16.73
  -4  -4  12  329.25   13.85
   4   4  12  329.58   12.80
  -4  -4  12  333.17   10.93
  -4   4 -13  219.13   11.94
   4  -4 -13  203.84   12.82
  -4  -4  13  204.97   10.37
   4   4  13  196.94    9.29
  -4  -4  13  204.47    7.35
  -4   4 -14   63.67    6.41
  -4  -4  14   72.82    5.82
   4   4  14   75.63    5.21
  -4  -4  14   65.10    5.36
   4   4  15   36.92    3.96
   4   4  15   38.62    4.08
  -4  -4  15   41.53    4.73
   4   4  15   43.42    4.14
  -4  -4  15   44.73    4.51
   4   4  16    2.78    1.73
   4   4  16    4.06    2.13
  -4  -4  16    6.99    2.45
   4   4  16    1.45    1.37
  -4  -4  16    5.35    2.09
   4   4  17  265.82   12.24
   4   4  17  250.91   12.27
  -4  -4  17  248.80   13.32
   4   4  17  268.20   12.46
  -4  -4  17  272.09   13.00
   4   4  18  384.51   16.27
   4   4  18  399.65   16.80
  -4  -4  18  382.99   17.92
   4   4  18  382.00   16.64
  -4  -4  18  407.82   17.29
   4   4  19  145.36    8.76
   4   4  19  162.36    9.35
  -4  -4  19  129.90    9.60
   4   4  19  146.47    9.11
  -4  -4  19  134.89    9.03
   4   4  20  337.34   14.95
   4   4  20  328.05   15.18
  -4  -4  20  308.07   16.39
   4   4  20  315.66   15.22
  -4  -4  20  344.61   15.86
   4   4  21   88.73    7.12
   4   4  21   89.18    7.03
  -4  -4  21   84.59    8.03
   4   4  21   95.88    7.55
  -4  -4  21  106.04    7.94
   4   4  22  637.15   24.77
  -4  -4  22  606.69   26.54
   4   4  22  626.65   25.16
  -4  -4  22  657.73   25.31
   4   4  23  268.67   13.64
  -4  -4  23  257.43   15.16
   4   4  23  252.04   13.86
  -4  -4  23  279.55   14.05
   4   4  24   81.30    7.08
  -4  -4  24   79.13    8.00
   4   4  24   81.68    7.35
  -4  -4  24   75.23    6.83
  -4  -4  25    1.37    2.84
   4   4  25    1.50    2.13
   4   4  25    2.78    2.30
  -4  -4  25    2.00    1.82
   4   4  26   65.01    6.15
  -4  -4  26   57.93    7.02
   4   4  26   56.75    6.16
  -4  -4  26   64.89    6.02
   4   4  27   59.86    5.82
  -4  -4  27   60.23    6.99
   4   4  27   53.48    5.87
  -4  -4  27   63.01    5.73
   4   4  28   35.48    4.65
   4   4  28   39.49    4.26
   4   4  28   29.73    4.25
   4   4  29   54.82    5.36
  -4   4 -29   59.32    5.11
   4   4  29   63.04    5.18
  -4   4 -30    6.86    1.92
   4   4  30    8.36    2.38
   4   4  30    8.16    2.06
   4  -5  30   32.28    4.47
   4  -5  29   14.09    3.43
   4   5 -29    4.55    1.96
   4  -5  29    5.21    2.25
   4  -5  29   10.56    2.45
   4  -5  28   36.76    4.48
   4   5 -28   36.50    4.07
   4  -5  28   40.62    5.40
   4  -5  28   38.15    4.20
   4   5 -27    6.43    2.02
   4  -5  27    3.66    2.66
   4  -5  27    3.20    2.23
   4  -5  27    4.23    2.12
   4  -5  26   17.66    4.15
   4   5 -26   21.43    3.38
   4  -5  26   13.77    3.14
   4  -5  26   17.90    3.25
  -4   5  26   12.62    3.87
   4  -5  25   25.60    4.63
   4   5 -25   20.41    3.41
   4  -5  25   32.37    3.97
   4  -5  25   20.38    3.81
  -4   5  25   19.47    4.34
   4  -5  24   84.46    7.03
   4  -5  24   83.13    7.87
   4  -5  24   81.57    6.30
  -4   5  24   70.09    7.44
   4  -5  23  270.63   13.49
   4  -5  23  263.69   14.76
   4  -5  23  255.37   12.38
  -4   5  23  247.13   14.62
   4  -5  22  176.62   10.34
   4  -5  22  170.00   11.28
   4  -5  22  174.13    9.47
  -4   5  22  150.07   10.97
   4  -5  21   83.68    6.72
   4  -5  21   79.42    7.49
   4  -5  21   83.53    6.12
  -4   5  21   73.48    7.31
   4  -5  20  252.38   11.52
  -4   5  20  211.43   12.95
   4  -5  20  231.22   11.97
   4  -5  19   98.58    6.39
  -4   5  19   76.73    7.19
   4  -5  19   84.84    6.50
  -4   5  18   81.80    7.07
   4  -5  18   83.24    5.76
   4  -5  18   79.73    6.19
  -4   5  17   35.01    4.75
   4  -5  17   46.69    4.03
   4  -5  17   41.34    4.25
  -4   5  16  175.82   10.32
   4  -5  16  183.67    8.72
   4  -5  16  182.71    9.28
  -4   5  15  167.92    9.56
   4  -5  15  155.17    8.25
  -4   5  14   30.34    3.87
   4  -5  14   31.46    3.32
  -4   5  13   -0.72    1.50
   4  -5  13    2.07    1.38
  -4   5  12  203.44    9.92
   4  -5  12  202.02    8.87
  -4   5  11  153.97    8.07
   4  -5  11  150.92    7.09
  -4  -5 -11  155.66    6.01
  -4   5  10    9.90    2.04
   4  -5  10   10.16    1.63
   4   5 -10    9.37    1.64
  -4  -5 -10   11.18    1.32
   4  -5   9  100.30    4.94
  -4   5   9   90.94    5.50
   4   5  -9   96.75    5.03
  -4  -5  -9   95.78    4.27
  -4   5   8    9.05    1.74
   4  -5   8    5.21    1.18
   4   5  -8    4.51    1.33
  -4  -5  -8    7.10    1.13
   4  -5   7   36.78    2.60
  -4   5   7   38.50    3.15
   4   5  -7   41.36    2.94
  -4  -5  -7   44.10    2.58
  -4   5   6    7.58    1.53
   4   5  -6    7.40    1.31
  -4  -5  -6    9.15    1.26
  -4  -5  -5  493.16   22.02
  -4   5   5  464.50   15.71
   4   5  -5  475.54   15.37
  -4  -5  -5  454.33   14.78
  -4  -5  -4  637.47   27.51
  -4   5   4  664.54   21.49
   4   5  -4  701.83   21.28
  -4  -5  -4  684.31   20.83
  -4  -5  -3  923.86   33.62
  -4   5   3  891.50   26.47
   4   5  -3  846.18   26.07
  -4  -5  -3  838.95   25.74
  -4  -5  -2  412.81   19.12
  -4   5   2  399.36   13.43
   4   5  -2  390.03   13.08
  -4   5   2  404.67   12.92
  -4  -5  -2  395.15   12.94
  -4  -5  -1  203.24   12.14
  -4   5   1  193.06    7.72
  -4   5   1  202.88    7.37
  -4  -5  -1  204.98    7.42
  -4  -5   0  474.57   20.51
  -4   5   0  443.39   14.43
  -4  -5   0  451.53   14.41
  -4  -5   1  209.10   11.99
   4   5   1  187.87    7.72
  -4   5  -1  187.32    7.33
  -4  -5   1  216.93    7.83
  -4  -5   2  421.81   18.72
  -4  -5   2  408.14   13.60
   4   5   2  397.67   13.63
  -4   5  -2  389.86   13.32
   4   5   2  444.54   13.20
  -4  -5   2  367.73   13.77
  -4  -5   3  887.29   32.07
  -4  -5   3  840.55   26.24
  -4  -5   3  848.92   26.82
   4   5   3  842.02   26.18
  -4   5  -3  861.83   26.10
  -4  -5   3  879.42   25.75
  -4  -5   4  670.38   26.64
  -4  -5   4  679.92   21.53
   4   5   4  701.71   21.29
  -4   5  -4  678.97   21.28
  -4  -5   4  654.28   21.97
  -4  -5   4  682.55   20.82
  -4   5  -5  415.97   13.77
  -4  -5   5  454.59   19.96
   4  -5  -5  466.98   14.99
  -4  -5   5  435.68   15.20
  -4   5  -5  478.69   15.11
  -4  -5   5  465.73   14.46
  -4  -5   5  461.40   15.89
  -4   5  -6    6.18    1.12
  -4  -5   6    6.14    2.38
   4  -5  -6    9.45    1.52
  -4  -5   6    7.01    1.54
  -4   5  -6    8.81    1.50
  -4  -5   6    6.69    1.17
  -4  -5   6    9.78    1.81
   4  -5  -7   39.95    3.48
  -4   5  -7   35.94    2.87
  -4  -5   7   36.71    4.88
  -4  -5   7   32.82    2.97
  -4   5  -7   34.85    2.77
  -4  -5   7   36.55    3.33
  -4  -5   7   42.34    2.52
  -4   5  -8    4.82    1.29
  -4  -5   8    0.60    1.42
   4  -5  -8    5.76    1.53
  -4  -5   8    5.15    1.55
  -4   5  -8    1.80    0.98
  -4  -5   8    2.67    0.84
  -4  -5   8    3.11    1.54
  -4   5  -9   93.36    5.84
   4  -5  -9   98.04    6.64
  -4  -5   9  101.35    5.82
  -4   5  -9   92.19    5.09
  -4  -5   9  107.60    6.18
  -4  -5   9  101.59    4.44
  -4   5 -10    8.04    1.84
   4  -5 -10    9.62    2.31
  -4  -5  10    9.67    2.07
   4   5  10   10.17    1.62
  -4   5 -10   11.23    1.79
  -4  -5  10    9.28    1.24
  -4  -5  10   14.83    2.53
  -4   5 -11  157.68    8.95
   4  -5 -11  151.49    9.83
  -4  -5  11  184.08    8.88
   4   5  11  157.67    7.27
  -4  -5  11  156.63    8.40
  -4  -5  11  160.68    6.30
  -4   5 -12  185.27   10.55
  -4  -5  12  217.59   10.28
   4   5  12  196.42    8.80
  -4  -5  12  203.13    7.45
  -4   5 -13    2.95    1.59
  -4  -5  13    0.37    1.42
   4   5  13    2.12    1.29
  -4  -5  13    2.66    0.69
   4   5  14   30.80    3.46
   4   5  14   29.97    3.60
  -4  -5  14   20.00    3.29
   4   5  14   26.25    3.12
   4   5  15  177.70    9.23
   4   5  15  195.49    9.80
  -4  -5  15  171.49   10.04
   4   5  15  173.40    8.96
  -4  -5  15  183.34    9.96
   4   5  16  169.76    9.21
   4   5  16  171.12    9.40
  -4  -5  16  180.77   10.53
   4   5  16  161.56    8.89
  -4  -5  16  191.19   10.31
   4   5  17   34.60    4.06
   4   5  17   36.85    4.22
  -4  -5  17   38.91    4.92
   4   5  17   36.14    4.03
  -4  -5  17   41.73    4.71
   4   5  18   81.95    6.24
   4   5  18   81.46    6.38
  -4  -5  18   71.12    6.75
   4   5  18   83.45    6.32
  -4  -5  18   75.04    6.46
   4   5  19   83.80    6.53
   4   5  19   76.76    6.46
  -4  -5  19   87.22    7.71
   4   5  19   89.28    6.79
  -4  -5  19   97.06    7.50
   4   5  20  228.28   11.82
   4   5  20  252.91   12.54
  -4  -5  20  226.27   13.45
   4   5  20  215.33   11.90
  -4  -5  20  245.45   12.92
   4   5  21   78.83    6.88
   4   5  21   96.67    7.12
  -4  -5  21   76.99    7.70
   4   5  21   94.66    7.29
  -4  -5  21   90.86    7.45
   4   5  22  157.42    9.70
  -4  -5  22  144.01   10.61
   4   5  22  156.20    9.82
  -4  -5  22  140.54    9.61
   4   5  23  274.41   13.70
  -4  -5  23  260.66   15.15
   4   5  23  247.42   13.40
  -4  -5  23  283.65   14.31
   4   5  24   74.52    6.57
  -4  -5  24   63.61    7.31
   4   5  24   77.11    6.70
  -4  -5  24   65.09    6.43
   4   5  25   29.60    4.30
  -4  -5  25   18.48    4.22
   4   5  25   22.35    3.86
  -4  -5  25   25.63    4.06
   4   5  26   11.83    3.07
  -4  -5  26   17.30    4.01
  -4   5 -26   12.09    2.80
   4   5  26    9.35    2.78
  -4  -5  26   14.21    3.22
   4   5  27    5.88    2.33
  -4   5 -27    2.41    2.03
  -4  -5  27    4.35    2.04
   4   5  28   43.76    4.76
  -4   5 -28   42.35    4.55
   4   5  28   50.97    4.69
  -4   5 -29    6.66    2.22
   4   5  29    7.76    2.26
   4   5  29    7.03    2.13
   4   5  30   31.51    3.75
  -4   5 -30   30.23    3.56
   4   5  30   33.87    3.52
   4  -6  30  155.56    9.60
   4  -6  29   96.08    7.54
   4   6 -29   69.95    5.32
   4   6 -28   82.41    6.07
   4  -6  28   85.72    7.45
   4  -6  28   90.85    6.26
   4   6 -27   26.64    3.72
   4  -6  27   38.74    5.22
   4  -6  27   34.14    4.34
   4  -6  27   33.08    3.92
   4  -6  26  128.52    8.34
   4  -6  26  119.45    9.29
   4   6 -26   97.87    7.11
   4  -6  26  109.39    7.27
   4  -6  25   65.14    6.06
   4  -6  25   57.71    6.64
   4   6 -25   61.31    5.53
   4  -6  25   65.10    5.58
  -4   6  25   63.26    6.83
   4  -6  24   95.84    7.27
   4  -6  24   97.36    8.53
   4   6 -24   83.88    6.50
   4  -6  24   87.17    6.46
  -4   6  24   70.83    7.44
   4  -6  23  259.04   13.14
   4   6 -23  251.96   12.55
   4  -6  23  269.70   15.02
   4  -6  23  268.76   12.50
  -4   6  23  265.21   14.76
   4  -6  22   22.11    4.36
   4   6 -22   33.14    3.93
  -4   6  22   20.21    4.23
   4  -6  22   18.84    3.47
   4  -6  22   25.63    3.56
   4  -6  21   56.12    5.40
   4   6 -21   51.21    4.83
   4  -6  21   53.74    6.20
   4  -6  21   48.49    4.72
  -4   6  21   51.39    5.99
   4  -6  20  143.46    8.74
   4   6 -20  134.61    8.21
  -4   6  20  117.33    9.13
   4  -6  20  148.00    8.18
   4  -6  19   52.25    4.99
   4   6 -19   52.83    4.75
   4  -6  19   50.27    4.49
  -4   6  19   52.83    5.83
   4  -6  18  231.88   11.31
   4   6 -18  224.74   10.90
   4  -6  18  238.90   10.70
  -4   6  18  218.41   12.41
   4  -6  17  678.22   24.75
   4   6 -17  703.26   24.67
   4  -6  17  714.12   24.14
  -4   6  17  722.72   26.98
   4  -6  16   32.27    3.62
   4   6 -16   29.29    3.37
  -4   6  16   31.67    4.19
   4  -6  16   36.44    3.43
   4  -6  15   54.01    4.39
   4   6 -15   60.79    4.56
   4  -6  15   53.44    4.07
  -4   6  15   53.09    5.21
   4  -6  14  154.36    8.01
   4   6 -14  172.36    8.35
  -4   6  14  177.27    9.58
   4  -6  14  165.17    7.69
   4  -6  13   35.41    3.31
   4  -6  13   36.65    3.06
  -4   6  13   35.08    4.03
   4   6 -13   37.52    3.49
   4  -6  12  256.36   10.53
  -4   6  12  272.07   11.93
   4  -6  12  245.37    9.93
   4   6 -12  259.62   10.75
  -4  -6 -12  265.94    9.20
   4  -6  11  273.98   10.90
  -4   6  11  289.35   12.30
   4  -6  11  282.34   10.51
   4   6 -11  293.40   11.45
  -4  -6 -11  287.15    9.90
   4  -6  10  460.63   16.37
   4  -6  10  458.69   15.89
  -4   6  10  534.94   18.16
   4   6 -10  511.18   17.15
  -4  -6 -10  495.54   15.61
   4  -6   9   42.39    3.05
   4  -6   9   38.89    2.73
  -4   6   9   40.69    3.62
   4   6  -9   47.79    3.53
  -4  -6  -9   46.53    2.79
  -4   6   8   39.90    3.40
   4   6  -8   41.99    3.20
  -4  -6  -8   40.25    2.60
  -4   6   7   41.28    3.27
   4   6  -7   40.94    3.15
  -4  -6  -7   40.07    2.66
   4   6  -6  125.29   10.43
  -4  -6  -6  122.22   10.38
  -4   6   6  132.05    6.24
   4   6  -6  129.42    6.18
  -4  -6  -6  136.28    5.62
  -4  -6  -5  540.88   25.18
  -4   6   5  577.25   18.68
   4   6  -5  552.57   18.67
  -4  -6  -5  586.75   18.08
  -4  -6  -4  536.92   24.22
  -4   6   4  518.07   17.23
   4   6  -4  515.14   17.37
  -4  -6  -4  544.48   16.90
  -4  -6  -3  499.67   22.30
  -4   6   3  447.46   15.20
   4   6  -3  466.00   15.50
  -4   6   3  457.40   15.06
  -4  -6  -3  469.43   15.05
  -4  -6  -2  234.11   13.86
  -4   6   2  215.65    8.41
   4   6  -2  237.70    8.83
  -4   6   2  233.12    8.49
  -4  -6  -2  220.78    8.33
  -4  -6  -1    8.91    2.98
  -4   6   1    4.81    1.12
   4   6  -1    6.33    1.28
  -4   6   1    7.91    1.29
  -4  -6  -1    9.94    1.40
  -4  -6   0   16.11    3.55
  -4   6   0   16.75    1.76
  -4  -6   0   17.91    1.82
  -4   6   0   17.40    1.88
   4   6   0   20.57    2.01
  -4  -6   0   17.24    1.72
  -4  -6   1    1.81    1.67
   4   6   1    3.39    1.01
   4   6   1    1.90    1.00
  -4   6  -1    3.81    1.03
  -4  -6   1    4.70    1.06
  -4  -6   2  201.35   12.43
  -4  -6   2  209.88    8.13
   4   6   2  207.60    8.56
  -4   6  -2  217.28    8.42
   4   6   2  219.10    8.07
  -4  -6   3  450.38   20.55
  -4  -6   3  465.83   15.29
   4   6   3  444.06   15.50
  -4   6  -3  461.42   15.50
  -4  -6   3  462.38   14.93
  -4  -6   4  487.52   22.43
  -4  -6   4  566.08   17.74
  -4   6  -4  525.55   17.76
   4   6   4  545.69   17.76
  -4  -6   4  530.05   17.06
  -4  -6   5  588.83   24.67
  -4   6  -5  556.09   19.07
  -4  -6   5  560.03   19.76
  -4  -6   5  578.25   18.38
  -4  -6   6  110.90    8.91
  -4  -6   6  117.95    5.81
  -4  -6   6  110.96    6.19
  -4   6  -6  104.84    5.54
  -4  -6   6  117.00    5.10
  -4   6  -7   32.22    2.40
  -4  -6   7   37.58    5.29
  -4  -6   7   44.90    3.45
  -4   6  -7   43.25    3.28
  -4  -6   7   42.95    3.79
  -4  -6   7   42.61    2.71
  -4   6  -8   37.89    3.07
  -4  -6   8   47.50    3.70
  -4   6  -8   45.45    3.47
  -4  -6   8   43.08    3.89
  -4  -6   8   43.62    2.78
  -4   6  -9   46.34    3.78
  -4  -6   9   47.29    3.94
  -4   6  -9   51.00    3.73
  -4  -6   9   54.39    4.40
  -4  -6   9   46.50    2.88
  -4  -6  10  517.67   18.66
  -4   6 -10  507.50   17.68
  -4  -6  10  528.51   19.04
  -4  -6  10  517.21   16.27
  -4  -6  11  303.77   12.83
  -4   6 -11  299.42   11.91
  -4  -6  11  308.29   13.16
  -4  -6  11  289.14   10.30
  -4  -6  12  273.22   12.28
  -4   6 -12  257.74   11.05
  -4  -6  12  266.36   12.37
  -4  -6  12  272.93    9.54
  -4  -6  13   37.91    4.19
  -4   6 -13   32.94    3.37
  -4  -6  13   35.39    2.45
  -4  -6  14  184.41   10.12
  -4   6 -14  185.52    8.90
  -4  -6  14  179.77    6.97
   4   6  15   50.25    4.66
   4   6  15   43.57    4.45
  -4  -6  15   49.54    5.17
   4   6  15   48.26    4.17
   4   6  16   35.50    4.05
   4   6  16   36.78    4.20
  -4  -6  16   34.33    4.48
   4   6  16   33.89    3.70
  -4  -6  16   38.44    4.53
   4   6  17  701.37   25.62
   4   6  17  690.98   25.21
  -4  -6  17  712.31   27.11
   4   6  17  659.26   24.54
  -4  -6  17  757.47   26.96
   4   6  18  260.60   12.22
   4   6  18  253.52   12.46
  -4  -6  18  245.32   13.42
   4   6  18  215.70   11.23
  -4  -6  18  240.02   12.88
   4   6  19   61.34    5.49
   4   6  19   53.55    5.39
  -4  -6  19   51.94    5.93
   4   6  19   50.45    5.01
  -4  -6  19   61.39    6.05
   4   6  20  154.39    9.15
   4   6  20  135.79    8.92
  -4  -6  20  145.84   10.31
   4   6  20  135.35    8.60
  -4  -6  20  139.98    9.56
   4   6  21   51.51    5.20
   4   6  21   45.02    5.13
  -4  -6  21   58.69    6.51
  -4   6 -21   62.64    5.45
   4   6  21   48.83    5.17
  -4  -6  21   50.81    5.75
   4   6  22   30.45    4.35
  -4  -6  22   25.53    4.56
  -4   6 -22   37.67    4.39
   4   6  22   30.96    4.17
  -4  -6  22   27.98    4.50
   4   6  23  269.36   13.43
  -4  -6  23  255.52   14.81
  -4   6 -23  281.31   13.25
   4   6  23  252.43   13.00
  -4  -6  23  255.55   13.74
   4   6  24   92.94    7.23
  -4  -6  24   84.80    8.02
  -4   6 -24   89.41    6.89
  -4  -6  24   87.79    7.34
   4   6  25   53.90    5.43
  -4  -6  25   44.81    6.08
  -4   6 -25   59.23    5.56
   4   6  26   99.04    7.36
  -4   6 -26  110.29    7.50
  -4  -6  26  111.29    7.87
   4   6  27   38.15    4.50
  -4   6 -27   31.71    4.04
  -4  -6  27   39.69    4.49
   4   6  28   72.70    5.97
  -4   6 -28   85.75    6.22
   4   6  28   72.84    5.51
   4   6  29   84.76    6.14
  -4   6 -29   83.07    5.92
   4   6  29   80.80    5.53
   4  -7  29    0.94    1.72
   4  -7  28   34.09    4.78
   4   7 -28   32.87    3.75
   4   7 -27    4.41    2.00
   4  -7  27    9.42    3.24
   4  -7  26   12.87    3.57
   4   7 -26    7.86    2.69
   4  -7  25    5.46    2.77
   4   7 -25    1.65    1.75
   4  -7  25    1.31    1.85
   4  -7  25    4.08    1.98
   4  -7  24   67.47    6.05
   4  -7  24   65.47    7.01
   4   7 -24   62.80    5.70
   4  -7  24   75.39    5.86
   4  -7  23   60.42    5.75
   4  -7  23   71.20    7.21
   4   7 -23   72.07    6.02
   4  -7  23   64.22    5.43
  -4   7  23   62.34    6.39
   4  -7  22   31.20    4.96
   4   7 -22   25.61    3.71
  -4   7  22   23.43    4.33
   4  -7  22   22.78    3.68
   4  -7  22   23.63    3.40
   4  -7  21    4.16    2.53
   4   7 -21    7.55    2.13
  -4   7  21    3.39    2.53
   4  -7  21    3.40    2.24
   4  -7  21    5.36    1.94
   4  -7  20  106.75    7.34
   4   7 -20  115.48    7.52
   4  -7  20   99.33    6.64
  -4   7  20  112.24    8.57
   4  -7  19   38.89    4.31
   4   7 -19   44.10    4.53
  -4   7  19   34.54    4.93
   4  -7  19   42.56    4.12
   4  -7  18  137.22    8.21
   4   7 -18  149.84    8.52
   4  -7  18  143.77    7.76
  -4   7  18  149.31    9.69
   4  -7  17  130.92    7.82
   4   7 -17  158.86    8.54
  -4   7  17  154.82    9.52
   4  -7  17  133.57    7.33
   4   7 -16   33.00    3.55
  -4   7  16   25.20    3.85
   4  -7  16   25.26    3.23
   4  -7  16   29.75    3.08
   4   7 -15    2.94    1.72
   4  -7  15    4.74    1.68
  -4   7  15    1.27    1.93
   4  -7  15    4.18    1.57
   4  -7  14  171.37    8.37
   4   7 -14  184.77    8.99
  -4   7  14  185.80    9.76
   4  -7  14  169.40    7.88
  -4   7  13   51.60    4.56
   4  -7  13   42.36    3.30
   4   7 -13   46.97    4.08
   4  -7  12  436.62   16.57
  -4   7  12  491.44   18.35
   4  -7  12  475.96   16.29
   4   7 -12  494.85   17.72
  -4  -7 -12  502.64   15.70
   4  -7  11   85.59    4.94
  -4   7  11   82.65    5.66
   4  -7  11   88.08    4.65
   4   7 -11   89.59    5.51
  -4  -7 -11   86.59    4.30
   4   7 -10   96.00    5.66
  -4  -7 -10  103.58    4.74
  -4   7   9   64.45    4.51
   4   7  -9   65.83    4.46
  -4  -7  -9   56.16    3.41
  -4   7   8  669.47   22.47
   4   7  -8  661.60   22.57
  -4  -7  -8  695.51   21.31
  -4   7   7   94.88    5.36
   4   7  -7  102.34    5.68
  -4  -7  -7  105.76    4.91
  -4   7   6   37.65    2.95
   4   7  -6   33.08    3.03
  -4  -7  -6   36.77    2.69
  -4   7   5   11.44    1.67
   4   7  -5   10.82    1.83
  -4  -7  -5   14.51    1.75
  -4  -7  -4  613.90   26.87
  -4   7   4  582.22   18.76
   4   7  -4  593.10   19.54
  -4  -7  -4  571.33   18.67
  -4  -7  -3   33.24    5.37
  -4   7   3   32.34    2.47
   4   7  -3   33.30    2.90
  -4   7   3   33.95    2.69
  -4  -7  -3   36.02    2.65
  -4  -7  -2   16.53    3.87
  -4   7   2   16.68    1.75
   4   7  -2   19.46    2.17
  -4   7   2   17.57    1.95
  -4  -7  -2   19.83    1.99
  -4  -7  -1    9.75    3.21
  -4   7   1   16.30    1.70
  -4   7   1   15.86    1.88
   4   7  -1   16.68    2.02
  -4  -7  -1   16.15    1.88
  -4  -7   0   12.23    3.33
  -4   7   0   13.96    1.58
  -4   7   0   14.10    1.86
   4   7   0   14.09    1.86
   4   7   0   15.60    2.26
  -4  -7   0   13.34    1.68
  -4  -7   1   11.26    3.19
  -4   7  -1   15.57    1.67
  -4   7  -1   16.34    1.98
   4   7   1   15.02    2.22
   4   7   1   17.63    1.99
  -4  -7   1   16.35    1.85
  -4  -7   2   18.23    3.78
   4   7   2   17.11    2.26
   4   7   2   16.84    1.91
  -4   7  -2   17.83    2.12
  -4  -7   3   31.12    4.84
   4   7   3   30.46    2.89
  -4   7  -3   28.93    2.34
  -4   7  -3   31.85    2.86
   4   7   3   32.10    2.58
  -4  -7   3   33.01    2.54
  -4  -7   4  572.14   25.18
  -4   7  -4  610.11   18.98
   4   7   4  558.10   19.62
  -4   7  -4  599.06   19.89
  -4  -7   4  606.61   19.06
  -4   7  -5   14.62    1.73
   4   7   5   12.47    1.96
  -4   7  -5   12.10    1.94
  -4  -7   5   15.23    1.75
  -4  -7   6   39.55    3.15
  -4   7  -6   37.50    2.78
  -4   7  -6   39.33    3.33
  -4  -7   6   39.87    2.81
  -4  -7   7  110.75    5.84
  -4   7  -7  102.94    5.07
  -4   7  -7   98.40    5.71
  -4  -7   7  106.85    6.36
  -4  -7   7  105.89    5.05
  -4  -7   8  734.26   23.59
  -4   7  -8  668.59   22.09
  -4   7  -8  720.11   23.46
  -4  -7   8  720.25   24.50
  -4  -7   8  692.85   21.93
  -4  -7   9   56.61    4.39
  -4   7  -9   63.91    3.81
  -4   7  -9   59.07    4.33
  -4  -7   9   65.95    5.02
  -4  -7   9   59.34    3.51
  -4  -7  10  101.35    6.27
  -4   7 -10   97.67    5.88
  -4  -7  10   99.92    6.66
  -4  -7  10   99.38    4.81
  -4  -7  11   80.17    5.74
  -4   7 -11   82.24    5.39
  -4  -7  11   83.86    4.31
  -4  -7  11   83.59    6.14
  -4  -7  12  471.49   19.03
  -4   7 -12  499.81   18.45
  -4  -7  12  525.80   19.92
  -4  -7  12  516.91   16.51
  -4  -7  13   42.12    4.34
  -4   7 -13   44.85    4.05
  -4  -7  13   42.10    4.67
  -4  -7  13   42.53    2.87
  -4  -7  14  183.36   10.03
  -4   7 -14  174.47    9.05
  -4  -7  14  180.66    7.14
   4   7  15    1.92    1.95
   4   7  15    2.93    1.95
  -4  -7  15    2.71    2.06
  -4   7 -15    4.10    1.73
   4   7  16   21.63    3.35
   4   7  16   16.86    3.13
  -4  -7  16   16.84    3.36
  -4   7 -16   22.24    3.23
  -4  -7  16   21.39    3.71
   4   7  17  150.39    8.76
   4   7  17  151.02    8.95
  -4  -7  17  131.98    9.19
  -4   7 -17  163.30    8.87
  -4  -7  17  140.69    9.48
   4   7  18  152.60    8.92
   4   7  18  142.86    8.91
  -4  -7  18  137.51    9.66
  -4   7 -18  150.73    8.72
  -4  -7  18  149.62    9.77
   4   7  19   40.34    4.41
   4   7  19   40.85    4.61
  -4   7 -19   36.34    4.22
  -4  -7  19   49.80    5.54
   4   7  20  106.44    7.47
   4   7  20  116.38    8.03
  -4  -7  20  118.54    9.09
  -4   7 -20  112.06    7.63
  -4  -7  20  108.13    8.35
   4   7  21    7.39    2.59
   4   7  21    5.16    2.30
  -4  -7  21    6.60    2.87
  -4   7 -21    9.54    2.32
  -4  -7  21    4.36    2.38
   4   7  22   14.38    3.18
  -4  -7  22   24.86    4.29
  -4   7 -22   20.73    3.43
  -4  -7  22   23.37    4.14
   4   7  23   74.52    6.37
  -4  -7  23   78.41    7.32
  -4   7 -23   73.00    6.19
  -4  -7  23   75.58    6.94
   4   7  24   62.42    5.73
  -4  -7  24   51.32    6.20
  -4   7 -24   70.21    6.02
  -4  -7  24   57.72    5.99
   4   7  25    3.07    1.91
  -4   7 -25    4.29    2.13
  -4  -7  25    3.94    2.31
   4   7  26   16.69    3.14
  -4   7 -26   10.29    2.68
  -4  -7  26    9.60    2.80
   4   7  27    2.33    2.00
  -4   7 -27    4.67    2.04
  -4  -7  27    4.54    2.01
   4   7  28   39.03    4.17
  -4   7 -28   39.99    4.25
   4   7  28   41.64    3.84
   4  -8  28   36.90    4.68
   4   8 -27   21.82    3.28
   4  -8  27   18.35    3.66
   4  -8  26   23.47    4.18
   4   8 -26   16.86    2.98
   4   8 -25   53.02    5.12
   4  -8  25   43.55    5.55
   4  -8  24  109.44    8.64
   4   8 -24   84.21    6.65
   4  -8  23  111.67    8.94
   4   8 -23   97.93    7.26
   4  -8  22   10.83    3.48
   4   8 -22    7.88    2.43
   4  -8  22   14.63    2.87
   4  -8  22    9.69    2.30
  -4   8  22    8.69    2.83
   4  -8  21   96.72    6.85
   4   8 -21   89.34    6.86
   4  -8  21  110.43    8.76
  -4   8  21   85.29    7.31
   4  -8  21   90.03    6.16
   4  -8  20  240.91   11.69
   4   8 -20  236.02   12.03
   4  -8  20  271.34   14.25
   4  -8  20  230.06   10.90
  -4   8  20  236.80   12.77
   4  -8  19  191.00   10.02
   4   8 -19  208.49   10.83
   4  -8  19  200.39    9.60
  -4   8  19  197.23   11.32
   4  -8  18  369.21   15.27
   4   8 -18  387.79   16.16
   4  -8  18  363.68   14.55
  -4   8  18  375.20   16.84
   4  -8  17  436.09   17.04
   4   8 -17  445.28   17.89
   4  -8  17  443.58   16.41
  -4   8  17  439.70   18.55
   4  -8  16  533.62   19.83
   4   8 -16  594.40   21.26
   4  -8  16  527.13   19.15
  -4   8  16  576.52   21.88
   4  -8  15   98.09    6.07
  -4   8  15  108.90    7.31
   4  -8  15   95.47    5.59
   4  -8  14  102.66    6.11
  -4   8  14  123.71    7.62
   4  -8  14  108.98    5.85
   4   8 -14  127.89    7.37
  -4   8  13   85.10    6.07
   4   8 -13   91.49    6.07
  -4   8  12   39.40    3.89
   4   8 -12   39.36    3.83
  -4  -8 -12   35.48    2.67
  -4   8  11  178.49    8.81
   4   8 -11  189.86    9.15
  -4  -8 -11  176.53    7.34
  -4   8  10  328.81   13.56
   4   8 -10  370.09   14.35
  -4  -8 -10  363.74   12.45
   4   8  -9  335.13   13.66
  -4  -8  -9  351.16   12.23
   4   8  -8  192.71    8.91
  -4  -8  -8  178.56    7.49
   4   8  -7   91.11    5.58
  -4  -8  -7   86.77    4.61
   4   8  -6  442.09   15.85
  -4  -8  -6  414.53   14.47
   4   8  -5  355.16   13.59
  -4  -8  -5  355.18   12.56
   4   8  -4   16.24    2.34
  -4  -8  -4   12.38    1.74
  -4   8   3    6.52    1.47
   4   8  -3    7.46    1.68
  -4  -8  -3   10.49    1.56
   4   8  -2  241.81    9.96
  -4   8   2  242.48    9.68
  -4  -8  -2  244.55    9.46
   4   8  -1   31.93    3.32
   4   8  -1   32.41    2.91
  -4   8   1   34.14    2.94
  -4  -8  -1   34.33    2.75
   4   8   0   73.68    4.98
  -4   8   0   70.03    4.45
   4   8   0   75.74    4.54
  -4  -8   0   74.85    4.26
   4   8   1   42.21    3.60
  -4   8  -1   36.32    3.13
   4   8   1   39.32    3.08
  -4  -8   1   34.97    2.81
   4   8   2  255.82   10.63
  -4   8  -2  231.79   10.06
   4   8   2  259.93    9.94
   4   8   3    8.87    1.57
   4   8   3    6.73    1.84
  -4   8  -3    6.89    1.42
  -4   8  -3    7.96    1.74
  -4  -8   3    9.52    1.54
  -4   8  -4    8.04    1.45
   4   8   4    8.78    1.82
  -4   8  -4    7.27    1.72
  -4  -8   4    6.66    1.36
  -4   8  -5  361.85   12.89
  -4   8  -5  350.21   13.79
  -4  -8   5  369.16   12.86
  -4   8  -6  433.59   14.86
  -4   8  -6  432.82   16.00
  -4  -8   6  418.82   14.64
  -4   8  -7   75.75    5.04
  -4  -8   7   69.90    4.03
  -4   8  -8  190.23    7.97
  -4   8  -8  176.80    8.77
  -4  -8   8  173.92    9.30
  -4  -8   8  186.86    7.65
  -4   8  -9  330.97   12.47
  -4   8  -9  342.59   13.79
  -4  -8   9  340.93   14.54
  -4  -8   9  346.27   12.21
  -4   8 -10  348.22   13.03
  -4   8 -10  351.85   14.32
  -4  -8  10  370.22   15.51
  -4  -8  10  360.07   12.63
  -4   8 -11  186.68    9.33
  -4  -8  11  192.14    7.78
  -4  -8  11  184.50   10.21
  -4   8 -12   52.49    4.50
  -4  -8  12   39.98    3.01
  -4  -8  12   46.24    4.91
  -4   8 -13   94.69    6.48
  -4  -8  13  113.83    7.83
  -4  -8  13  104.68    5.11
  -4  -8  14  122.08    7.82
  -4   8 -14  121.32    7.50
  -4  -8  14  126.05    5.69
   4   8  15  125.45    7.70
   4   8  15  118.04    7.68
  -4   8 -15  132.95    7.87
  -4  -8  15  107.84    7.63
   4   8  16  619.52   22.74
   4   8  16  608.52   22.97
  -4  -8  16  569.48   23.11
  -4   8 -16  622.53   22.82
   4   8  17  441.78   18.56
   4   8  17  471.54   19.15
  -4  -8  17  466.03   19.91
  -4   8 -17  473.52   18.97
  -4  -8  17  522.97   20.96
   4   8  18  372.16   16.56
   4   8  18  407.24   17.31
  -4  -8  18  385.63   17.89
  -4   8 -18  439.60   17.57
  -4  -8  18  430.45   18.85
   4   8  19  202.48   10.90
   4   8  19  211.85   11.30
  -4  -8  19  218.20   12.35
  -4   8 -19  218.75   11.35
  -4  -8  19  214.54   12.49
   4   8  20  239.51   12.06
   4   8  20  243.81   12.48
  -4  -8  20  231.26   13.15
  -4   8 -20  248.58   12.53
  -4  -8  20  268.98   13.93
   4   8  21   87.88    6.67
   4   8  21   90.37    7.00
  -4  -8  21   85.81    7.56
  -4   8 -21   83.60    6.77
  -4  -8  21  104.35    8.09
   4   8  22   12.05    2.96
  -4   8 -22    9.05    2.70
  -4  -8  22   14.16    3.41
   4   8  23  101.81    7.38
  -4   8 -23  102.32    7.57
  -4  -8  23  108.79    8.28
   4   8  24   99.61    7.16
  -4   8 -24   92.88    7.03
  -4  -8  24   99.82    7.77
   4   8  25   47.27    4.85
  -4   8 -25   52.71    5.22
  -4  -8  25   49.25    5.28
   4   8  26   19.28    3.21
  -4   8 -26   26.19    3.67
  -4  -8  26   23.73    3.76
   4   8  27   21.42    3.13
  -4   8 -27   17.63    3.17
  -4  -8  27   19.96    3.14
  -4   8 -28   27.28    3.50
   4  -9  27    9.04    2.54
   4   9 -26   40.72    4.27
   4  -9  26   38.84    4.91
   4  -9  25   11.57    3.21
   4   9 -25    8.67    2.41
   4  -9  24   56.78    6.17
   4   9 -24   58.87    5.46
   4  -9  23   65.92    6.85
   4   9 -23   67.65    6.00
   4  -9  22   15.60    3.68
   4   9 -22   21.24    3.59
   4  -9  21    1.73    2.25
   4   9 -21    2.68    1.79
   4   9 -20   98.95    7.31
   4  -9  20  102.43    8.29
   4   9 -19   63.95    5.72
   4   9 -18   51.95    5.17
   4   9 -17    4.61    2.28
   4   9 -16  348.61   15.26
   4   9 -15   54.71    5.05
   4   9 -14   13.86    3.05
   4   9 -13    5.60    2.00
   4   9 -12  499.44   19.30
  -4  -9 -12  505.60   16.83
   4   9 -11  187.44    9.47
  -4  -9 -11  170.93    7.42
   4   9 -10   51.67    4.54
  -4  -9 -10   52.03    3.51
   4   9  -9   97.64    6.35
  -4  -9  -9  104.85    5.31
   4   9  -8  114.34    6.74
  -4  -9  -8   99.90    5.30
   4   9  -7   16.87    2.64
  -4  -9  -7   13.36    1.95
   4   9  -6  176.56    8.76
  -4  -9  -6  181.21    7.79
   4   9  -5  239.38   10.58
  -4  -9  -5  239.56    9.57
   4   9  -4  749.42   25.38
  -4  -9  -4  771.09   24.44
   4   9  -3   18.68    2.56
  -4   9   3   19.47    2.39
  -4  -9  -3   17.56    2.16
   4   9  -2    5.94    1.64
  -4   9   2    5.81    1.51
   4   9  -2    2.88    1.80
  -4  -9  -2    2.63    1.22
   4   9  -1   69.89    5.18
   4   9  -1   69.80    4.58
  -4   9   1   60.02    4.27
  -4  -9  -1   64.05    4.15
   4   9   0  263.68   11.47
  -4   9   0  248.93   10.61
   4   9   0  256.24   10.62
  -4  -9   0  268.28   10.26
   4   9   1   58.42    4.64
  -4   9  -1   53.17    4.14
   4   9   1   65.24    4.33
  -4  -9   1   65.62    4.15
  -4   9  -2    3.19    1.51
   4   9   2    5.06    1.47
   4   9   2    4.39    1.74
   4   9   3   14.20    2.09
  -4   9  -3   16.27    2.53
  -4   9  -4  769.18   25.01
   4   9   4  797.16   26.21
  -4   9  -4  770.98   26.13
  -4  -9   4  790.12   24.97
  -4   9  -5  242.67    9.97
  -4   9  -5  260.02   11.14
  -4  -9   5  249.40    9.93
  -4   9  -6  185.03    8.14
  -4   9  -6  182.48    9.01
  -4  -9   6  181.59    7.90
  -4   9  -7   21.77    2.47
  -4   9  -7   17.78    2.68
  -4  -9   7   18.10    2.18
  -4   9  -8   91.27    5.36
  -4   9  -8  102.26    6.46
  -4  -9   8  100.05    5.25
  -4  -9   9  118.84    7.68
  -4   9  -9  110.94    6.02
  -4   9  -9  107.81    6.88
  -4  -9   9  117.56    5.79
  -4   9 -10   45.91    3.69
  -4   9 -10   43.26    4.28
  -4  -9  10   43.31    4.79
  -4  -9  10   53.20    3.56
  -4   9 -11  173.70    9.37
  -4  -9  11  183.03    7.80
  -4  -9  11  184.32   10.44
  -4   9 -12  479.95   19.05
  -4  -9  12  531.70   20.65
  -4  -9  12  483.31   16.63
  -4   9 -13    6.59    2.21
  -4  -9  13    5.66    1.39
  -4  -9  13    8.06    2.66
  -4   9 -14   14.01    2.89
  -4  -9  14   16.27    3.55
  -4  -9  14   10.92    1.73
   4   9  15   67.66    5.58
   4   9  15   60.30    5.52
  -4   9 -15   63.18    5.53
  -4  -9  15   60.71    3.74
   4   9  16  385.83   16.12
   4   9  16  361.58   16.11
  -4   9 -16  395.23   16.63
   4   9  17   10.17    2.63
   4   9  17    9.94    2.47
  -4   9 -17   17.49    3.26
  -4  -9  17    9.17    3.12
   4   9  18   44.32    4.72
   4   9  18   48.96    4.99
  -4   9 -18   45.20    4.98
  -4  -9  18   49.64    5.76
   4   9  19   68.37    5.75
   4   9  19   62.75    5.72
  -4   9 -19   70.63    6.23
  -4  -9  19   76.60    7.04
   4   9  20   93.38    6.88
   4   9  20  101.44    7.29
  -4   9 -20  114.24    7.85
  -4  -9  20  113.30    8.56
   4   9  21    0.80    1.61
   4   9  21    0.43    1.82
  -4   9 -21   -0.46    2.01
  -4  -9  21    1.11    2.15
   4   9  22   18.88    3.40
  -4   9 -22   18.79    3.60
  -4  -9  22   12.93    3.31
   4   9  23   70.92    6.03
  -4   9 -23   86.16    6.74
  -4  -9  23   77.87    6.84
   4   9  24   52.91    5.07
  -4   9 -24   70.72    6.06
  -4  -9  24   55.10    5.76
   4   9  25    8.30    2.30
  -4   9 -25   12.38    2.74
  -4  -9  25   11.88    2.79
  -4   9 -26   47.37    4.79
  -4  -9  26   38.49    4.44
  -4   9 -27    2.82    1.91
   4 -10  26   60.61    5.62
   4 -10  25   29.14    4.17
   4  10 -25   25.31    3.58
   4 -10  24  232.71   12.39
   4  10 -24  220.69   11.32
   4 -10  23   17.15    3.62
   4  10 -23   21.42    3.61
   4 -10  22    2.15    2.22
   4  10 -22    2.62    2.08
   4 -10  21   12.58    3.20
   4  10 -21    5.81    2.43
   4  10 -20   45.60    4.98
   4 -10  20   39.28    5.23
   4  10 -19  244.11   12.54
   4 -10  19  257.85   13.68
   4  10 -18   87.88    6.86
   4  10 -17   78.31    6.45
   4  10 -16  403.00   17.22
   4  10 -15   15.35    3.14
   4  10 -14   72.99    6.02
   4  10 -13   21.98    3.31
  -4 -10 -13   25.37    2.40
   4  10 -12   22.61    3.47
  -4 -10 -12   24.28    2.44
   4  10 -11  164.55    9.15
  -4 -10 -11  156.16    7.15
   4  10 -10  248.81   11.81
  -4 -10 -10  246.65    9.92
   4  10  -9  197.84   10.11
  -4 -10  -9  199.48    8.53
   4  10  -8  395.54   15.79
  -4 -10  -8  374.77   13.86
   4  10  -7  629.03   22.07
  -4 -10  -7  583.06   20.05
   4  10  -6  369.38   15.00
  -4 -10  -6  370.95   13.64
   4  10  -5   45.51    4.13
  -4 -10  -5   39.11    3.28
   4  10  -4   43.44    4.02
  -4 -10  -4   41.63    3.39
   4  10  -3  247.48   11.85
   4  10  -3  244.48   11.00
  -4  10   3  256.68   10.72
  -4 -10  -3  251.73   10.29
   4  10  -2   53.35    4.83
   4  10  -2   52.23    4.24
  -4  10   2   56.55    4.21
  -4 -10  -2   52.78    3.86
   4  10  -1   81.47    5.83
   4  10  -1   71.23    5.02
  -4  10   1   78.98    5.14
  -4 -10  -1   77.03    4.81
  -4  10   0    5.32    1.66
   4  10   0    2.73    1.27
   4  10   0    1.04    1.51
  -4 -10   0    0.91    1.02
   4  10   1   68.84    5.36
  -4  10  -1   69.96    5.01
   4  10   1   73.26    4.86
  -4 -10   1   72.30    4.69
   4  10   2   47.97    4.53
  -4  10  -2   51.76    4.31
   4  10   2   55.72    4.17
   4  10   3  239.82   11.10
  -4  10  -3  252.77   11.14
   4  10   4   41.21    4.00
  -4  10  -4   42.77    3.54
  -4  10  -4   40.84    3.97
  -4 -10   4   39.77    3.31
  -4  10  -5   43.66    3.61
  -4  10  -5   40.28    4.01
  -4 -10   5   43.43    3.50
  -4  10  -6  367.03   13.94
  -4  10  -6  365.74   15.15
  -4 -10   6  378.01   13.86
  -4  10  -7  607.94   20.79
  -4  10  -7  604.83   22.23
  -4 -10   7  612.22   20.51
  -4  10  -8  361.19   14.21
  -4  10  -8  386.95   15.82
  -4 -10   8  395.31   14.13
  -4  10  -9  184.55    8.78
  -4 -10   9  193.46   10.73
  -4  10  -9  191.86   10.08
  -4 -10   9  210.93    8.73
  -4  10 -10  247.80   10.67
  -4  10 -10  259.95   12.23
  -4 -10  10  251.97   12.89
  -4 -10  10  254.81   10.26
  -4  10 -11  149.76    8.96
  -4 -10  11  166.08   10.09
  -4 -10  11  162.24    7.40
  -4  10 -12   22.74    3.51
  -4 -10  12   18.34    2.25
  -4  10 -13   30.58    3.98
  -4 -10  13   37.58    4.87
   4  10  14   70.93    5.78
   4  10  14   77.36    6.09
  -4  10 -14   80.16    6.45
  -4 -10  14   69.20    6.60
  -4 -10  14   74.43    4.37
   4  10  15   11.83    2.59
   4  10  15   11.23    2.57
  -4  10 -15   11.14    2.79
  -4 -10  15    8.77    1.55
   4  10  16  409.12   16.95
   4  10  16  429.86   17.51
  -4  10 -16  398.79   17.61
   4  10  17   88.06    6.34
   4  10  17   74.71    6.17
  -4  10 -17   67.99    6.11
   4  10  18   87.19    6.50
   4  10  18   83.50    6.55
  -4  10 -18  100.64    7.46
  -4 -10  18   91.93    7.93
   4  10  19  266.55   12.35
   4  10  19  234.64   12.20
  -4  10 -19  271.13   13.31
  -4 -10  19  257.85   13.97
   4  10  20   41.20    4.50
   4  10  20   46.28    4.86
  -4  10 -20   52.60    5.33
  -4 -10  20   47.48    5.72
   4  10  21    6.38    2.34
  -4  10 -21   15.78    3.30
  -4 -10  21   10.88    3.36
   4  10  22    1.53    1.66
  -4  10 -22    2.27    1.93
  -4 -10  22    2.10    2.23
  -4  10 -23   21.01    3.57
  -4 -10  23   21.99    3.91
  -4  10 -24  232.60   11.84
  -4 -10  24  237.68   12.40
  -4  10 -25   33.02    4.06
  -4 -10  25   33.73    4.22
  -4  10 -26   60.04    5.19
  -4 -10  26   60.15    5.20
   4 -11  24   84.35    6.49
   4  11 -24   76.05    5.83
   4 -11  23   13.16    2.92
   4  11 -23   14.05    2.92
   4 -11  22   25.84    3.95
   4  11 -22   21.09    3.45
   4 -11  21   20.85    3.68
   4  11 -21   12.93    2.88
   4  11 -20  119.06    8.04
   4 -11  20  109.23    8.29
   4  11 -19   64.28    5.90
   4 -11  19   61.60    6.18
   4 -11  18   13.10    3.22
   4  11 -18   23.98    3.59
   4  11 -17   10.85    2.87
   4  11 -16  220.15   11.59
   4  11 -15   38.24    4.56
   4  11 -14    4.82    1.96
   4  11 -13    3.88    2.06
  -4 -11 -13    1.46    1.13
   4  11 -12  245.16   12.19
  -4 -11 -12  243.54    9.89
   4  11 -11   47.73    4.93
  -4 -11 -11   51.55    3.78
   4  11 -10   99.09    7.00
  -4 -11 -10   94.33    5.41
   4  11  -9    5.56    2.16
  -4 -11  -9    4.98    1.54
   4  11  -8   57.48    5.11
  -4 -11  -8   53.47    4.03
   4  11  -7   74.17    5.78
  -4 -11  -7   77.39    4.91
   4  11  -6    8.73    2.37
  -4 -11  -6   10.94    2.07
   4  11  -5  155.13    9.41
   4  11  -5  147.16    8.42
  -4 -11  -5  162.99    7.71
   4  11  -4  176.33    9.81
   4  11  -4  163.21    8.75
  -4 -11  -4  156.02    7.80
   4  11  -3   38.06    4.50
   4  11  -3   35.97    3.79
  -4  11   3   45.88    3.92
  -4 -11  -3   33.14    3.24
   4  11  -2  165.58    9.20
   4  11  -2  146.67    8.00
  -4  11   2  139.19    7.60
  -4 -11  -2  148.63    7.43
   4  11  -1  131.44    7.54
  -4  11   1  148.22    7.78
   4  11  -1  155.04    8.86
  -4 -11  -1  142.76    7.26
  -4  11   0    4.68    1.69
   4  11   0    4.86    1.54
   4  11   0    1.55    1.92
  -4 -11   0    0.76    1.28
   4  11   1  143.15    8.47
  -4  11  -1  162.67    8.33
   4  11   1  153.57    7.92
  -4 -11   1  138.74    7.35
   4  11   2  133.90    8.13
  -4  11  -2  140.32    7.89
   4  11   2  153.28    7.75
   4  11   3   43.79    4.39
  -4  11  -3   41.03    4.14
  -4  11  -4  169.12    8.98
  -4 -11   4  158.10    7.76
  -4  11  -5  170.71    9.08
  -4 -11   5  155.68    7.74
  -4  11  -6    6.81    1.77
  -4  11  -6    8.68    2.50
  -4 -11   6    9.05    1.81
  -4  11  -7   69.33    4.92
  -4  11  -7   80.98    6.15
  -4 -11   7   77.56    4.97
  -4  11  -8   52.32    4.19
  -4  11  -8   54.17    5.05
  -4 -11   8   52.47    3.97
  -4  11  -9    8.14    1.84
  -4  11  -9    7.41    2.60
  -4 -11   9    4.69    2.51
  -4 -11   9    5.43    1.59
  -4  11 -10   92.51    5.74
  -4  11 -10   86.57    6.67
  -4 -11  10   83.26    6.97
  -4 -11  10   91.69    5.40
  -4  11 -11   65.32    5.73
  -4 -11  11   62.40    6.24
  -4 -11  11   54.67    4.08
  -4  11 -12  226.17   12.07
  -4 -11  12  262.66   13.66
  -4 -11  12  253.56   10.22
  -4  11 -13    3.17    1.97
  -4 -11  13    2.23    1.23
  -4 -11  13    4.82    2.86
   4  11  14    3.59    1.99
   4  11  14    3.42    1.89
  -4  11 -14    6.91    2.50
  -4 -11  14    4.93    2.67
  -4 -11  14    3.38    1.31
   4  11  15   32.66    3.89
   4  11  15   30.95    3.95
  -4  11 -15   39.26    4.59
  -4 -11  15   37.38    5.00
  -4 -11  15   28.31    2.67
   4  11  16  211.35   10.59
  -4  11 -16  230.99   11.95
   4  11  17   10.85    2.54
   4  11  17   10.37    2.48
  -4  11 -17   12.83    3.32
   4  11  18   18.74    3.13
   4  11  18   20.83    3.35
  -4  11 -18   24.69    3.80
  -4 -11  18   22.63    4.27
   4  11  19   60.61    5.24
   4  11  19   69.23    5.66
  -4  11 -19   60.77    5.93
   4  11  20  102.48    7.07
  -4  11 -20  126.48    8.39
  -4 -11  20  124.15    8.95
  -4  11 -21   22.09    3.69
  -4 -11  21   18.40    3.84
  -4  11 -22   23.84    3.80
  -4 -11  22   28.60    4.24
  -4  11 -23   17.25    3.33
  -4 -11  23   13.63    3.23
  -4  11 -24   83.84    6.32
  -4 -11  24   93.89    6.94
  -4  11 -25   18.52    3.03
  -4 -11  25   17.51    3.09
   4  12 -23   11.41    2.52
   4  12 -22    2.62    1.79
   4  12 -21    3.98    2.02
   4  12 -20    5.42    2.44
   4  12 -19   74.44    6.19
   4 -12  19   63.01    5.99
   4  12 -18  334.54   15.25
   4 -12  18  340.74   15.63
   4  12 -17   57.01    5.59
   4 -12  17   57.99    5.72
   4  12 -16  454.43   18.96
   4  12 -15   42.20    4.91
   4  12 -14    7.16    2.32
   4  12 -13   37.37    4.56
   4  12 -12  174.47    9.96
  -4 -12 -12  165.65    7.72
   4  12 -11   55.14    5.34
  -4 -12 -11   53.88    3.99
   4  12 -10  132.26    8.33
  -4 -12 -10  129.50    6.74
   4  12  -9  181.07   10.11
  -4 -12  -9  190.25    8.67
   4  12  -8  656.17   24.37
  -4 -12  -8  657.61   22.39
   4  12  -7   22.40    3.54
   4  12  -7   25.48    4.15
  -4 -12  -7   21.69    2.72
   4  12  -6  120.41    8.32
   4  12  -6  106.55    7.28
  -4 -12  -6  115.79    6.47
   4  12  -5  100.02    7.41
   4  12  -5   89.78    6.49
  -4 -12  -5   90.73    5.67
   4  12  -4   18.14    3.19
   4  12  -4   18.00    3.72
  -4 -12  -4   20.77    2.85
   4  12  -3   17.57    2.99
   4  12  -3   20.78    3.59
  -4 -12  -3   21.16    2.90
   4  12  -2    9.76    2.18
  -4  12   2   18.10    2.72
   4  12  -2   10.62    2.94
  -4 -12  -2   15.04    2.38
   4  12  -1   16.96    2.77
   4  12  -1   16.01    3.25
  -4  12   1   24.30    3.01
  -4 -12  -1   14.75    2.44
   4  12   0  266.89   12.87
  -4  12   0  254.35   11.68
   4  12   0  260.25   11.72
  -4 -12   0  258.39   11.15
  -4  12  -1   25.21    3.27
   4  12   1   28.73    3.32
   4  12   1   19.74    3.55
  -4 -12   1   22.18    2.96
  -4  12  -2   21.00    3.07
   4  12   2   14.15    2.91
  -4  12  -3   16.79    2.99
  -4  12  -4   16.15    2.97
  -4 -12   4   19.24    2.73
  -4  12  -5   92.41    6.67
  -4 -12   5   94.39    5.75
  -4  12  -6  109.45    7.54
  -4 -12   6  126.69    6.80
  -4  12  -7   19.44    2.76
  -4  12  -7   19.55    3.33
  -4 -12   7   17.89    2.61
  -4 -12   8  643.48   24.96
  -4  12  -8  617.83   22.09
  -4  12  -8  679.18   24.33
  -4 -12   8  624.18   21.77
  -4  12  -9  194.30    9.20
  -4  12  -9  191.16   10.54
  -4 -12   9  182.89   11.04
  -4 -12   9  189.23    8.81
  -4  12 -10  123.16    8.21
  -4 -12  10  115.70    6.43
  -4 -12  10  125.98    8.89
  -4  12 -11   54.08    5.41
  -4 -12  11   53.53    5.83
  -4 -12  11   49.35    3.92
  -4  12 -12  178.64   10.31
  -4 -12  12  165.76   10.79
  -4 -12  12  176.52    8.12
   4  12  13   34.17    3.98
   4  12  13   32.06    4.01
  -4  12 -13   39.73    4.74
  -4 -12  13   45.25    5.48
  -4 -12  13   30.62    3.00
   4  12  14    7.69    2.30
   4  12  14    9.11    2.35
  -4  12 -14   16.03    3.23
  -4 -12  14   12.96    2.00
  -4 -12  14   14.54    3.90
   4  12  15   32.97    3.91
   4  12  15   31.98    4.06
  -4  12 -15   42.57    5.05
  -4 -12  15   43.47    5.37
  -4 -12  15   38.63    3.14
   4  12  16  439.60   17.17
   4  12  16  412.88   17.17
  -4  12 -16  450.63   18.80
   4  12  17   49.12    4.54
   4  12  17   55.75    4.95
  -4  12 -17   57.23    5.68
  -4  12 -18  402.95   17.56
  -4  12 -19   89.57    6.98
  -4 -12  19   81.75    7.27
  -4  12 -20    3.50    2.26
  -4 -12  20    2.09    2.10
  -4  12 -21    4.20    2.17
  -4 -12  21    4.47    2.37
  -4  12 -22    5.55    2.12
  -4 -12  22    3.72    2.17
  -4  12 -23    9.58    2.45
  -4 -12  23   11.59    2.79
   4  13 -21    5.61    2.05
   4  13 -20    1.12    1.71
   4  13 -19   49.26    4.94
   4  13 -18   57.33    5.41
   4  13 -17   19.38    3.52
   4  13 -16  102.30    7.24
   4  13 -15  104.09    7.42
   4  13 -14   53.52    5.42
   4  13 -13   55.45    5.38
   4  13 -12    3.96    2.27
  -4 -13 -12    4.72    1.51
   4  13 -11    2.12    2.64
   4  13 -11    3.94    2.30
  -4 -13 -11    3.75    1.44
   4  13 -10   17.34    3.28
   4  13 -10   19.59    3.89
  -4 -13 -10   16.16    2.43
   4  13  -9   59.52    6.10
   4  13  -9   58.68    5.49
  -4 -13  -9   54.85    4.29
   4  13  -8   18.16    3.28
   4  13  -8   21.40    3.94
  -4 -13  -8   18.03    2.64
   4  13  -7  110.82    8.41
   4  13  -7  108.36    7.47
  -4 -13  -7  113.57    6.51
   4  13  -6   16.67    3.15
   4  13  -6   27.93    4.46
  -4 -13  -6   23.83    2.95
   4  13  -5   34.12    4.10
   4  13  -5   33.49    4.66
  -4 -13  -5   32.13    3.41
   4  13  -4   56.52    5.83
   4  13  -4   62.27    5.31
  -4 -13  -4   57.20    4.54
   4  13  -3   42.89    5.02
   4  13  -3   33.92    4.02
  -4 -13  -3   41.83    3.90
   4  13  -2   19.93    3.11
   4  13  -2   24.97    3.97
  -4 -13  -2   21.59    2.97
   4  13  -1   89.66    7.01
   4  13  -1   91.52    6.26
  -4  13   1   86.26    6.14
  -4 -13  -1   80.30    5.54
  -4  13   0   32.75    3.79
   4  13   0   32.37    3.64
   4  13   0   31.50    4.34
  -4 -13   0   32.88    3.56
   4  13   1   89.64    6.93
  -4  13  -1   90.12    6.37
  -4 -13   1   88.51    5.81
  -4  13  -2   25.14    3.41
  -4  13  -3   38.09    4.39
  -4  13  -4   71.77    5.84
  -4 -13   4   60.82    4.74
  -4  13  -5   31.88    4.07
  -4 -13   5   26.79    3.23
  -4  13  -6   14.41    3.10
  -4 -13   6   20.46    2.78
  -4  13  -7  129.74    8.21
  -4 -13   7  107.06    6.41
  -4  13  -8   16.30    3.42
  -4 -13   8   12.91    2.28
  -4 -13   8    8.63    2.99
  -4  13  -9   71.27    6.24
  -4 -13   9   58.33    6.14
  -4 -13   9   66.73    4.80
  -4  13 -10   25.45    3.85
  -4 -13  10   20.93    2.67
  -4 -13  10   18.70    3.80
  -4  13 -11    4.60    2.15
  -4 -13  11    1.56    1.34
  -4 -13  11    1.63    2.37
   4  13  12    5.55    2.01
   4  13  12   11.30    2.47
  -4  13 -12    7.88    2.75
  -4 -13  12    5.49    1.60
  -4 -13  12    6.06    2.69
   4  13  13   55.00    4.76
   4  13  13   53.04    4.85
  -4  13 -13   58.20    5.66
  -4 -13  13   61.73    6.57
  -4 -13  13   58.13    4.09
  -4  13 -14   58.15    5.69
  -4 -13  14   53.87    5.96
  -4 -13  14   55.36    3.92
  -4  13 -15   92.47    7.27
  -4 -13  15  115.38    8.60
  -4  13 -16   90.39    6.95
  -4 -13  16   77.26    7.24
  -4  13 -17   22.82    3.85
  -4  13 -18   61.65    5.71
  -4  13 -19   42.62    4.71
  -4 -13  19   59.49    5.95
  -4  13 -20    4.78    2.20
  -4 -13  20    5.81    2.54
  -4  13 -21    8.97    2.51
  -4 -13  21    9.50    2.66
  -4  13 -22    0.35    1.84
  -4 -13  22    1.67    1.63
   4  14 -19   74.31    5.64
   4  14 -18   68.65    6.04
   4  14 -18   65.40    5.38
   4  14 -17   44.80    5.09
   4  14 -17   37.44    4.20
   4  14 -16  297.29   14.54
   4  14 -16  303.33   13.68
   4  14 -15   10.87    2.79
   4  14 -15    9.35    3.12
   4  14 -14   15.22    3.09
   4  14 -14   22.65    4.01
   4  14 -13   18.77    3.31
   4  14 -13   17.43    3.53
   4  14 -12    3.79    2.17
   4  14 -12    2.08    2.21
  -4 -14 -12    3.50    1.41
   4  14 -11    8.90    2.52
   4  14 -11    7.86    2.81
  -4 -14 -11    8.71    1.85
   4  14 -10  251.17   13.43
   4  14 -10  240.83   12.19
  -4 -14 -10  247.33   10.51
   4  14  -9  153.93   10.14
   4  14  -9  158.46    9.30
  -4 -14  -9  156.72    7.92
   4  14  -8  415.42   18.63
   4  14  -8  384.06   17.00
  -4 -14  -8  435.38   15.91
   4  14  -7   12.82    2.86
   4  14  -7    8.91    3.20
  -4 -14  -7   10.26    2.27
   4  14  -6   80.48    7.03
   4  14  -6   74.80    6.07
  -4 -14  -6   73.78    5.27
   4  14  -5    7.17    2.30
   4  14  -5    7.18    2.92
  -4 -14  -5    3.36    1.71
   4  14  -4   30.14    3.89
   4  14  -4   34.87    4.76
  -4 -14  -4   35.90    3.65
   4  14  -3    8.84    2.52
   4  14  -3    7.44    2.87
  -4 -14  -3   10.01    2.21
   4  14  -2   53.44    5.68
   4  14  -2   54.88    5.03
  -4 -14  -2   62.97    4.83
   4  14  -1   28.07    3.58
   4  14  -1   22.42    3.82
  -4 -14  -1   32.57    3.50
   4  14   0  239.16   12.51
  -4  14   0  239.71   11.52
  -4 -14   0  225.09   10.63
  -4  14  -1   31.99    3.76
  -4 -14   1   30.83    3.49
  -4  14  -2   47.00    4.71
  -4  14  -3   12.79    2.66
  -4  14  -4   37.09    4.27
  -4 -14   4   36.26    3.67
  -4  14  -5    3.34    1.95
  -4 -14   5    4.23    1.70
  -4 -14   6   73.11    6.57
  -4  14  -6   74.49    6.20
  -4 -14   6   72.42    5.24
  -4  14  -7   17.34    3.35
  -4 -14   7   15.24    3.23
  -4 -14   7   13.48    2.34
  -4  14  -8  436.38   18.21
  -4 -14   8  415.23   18.86
  -4 -14   8  434.72   16.28
  -4  14  -9  142.92    9.08
  -4 -14   9  154.51   10.07
  -4 -14   9  154.16    7.78
  -4  14 -10  250.94   12.70
  -4 -14  10  262.03   13.88
  -4 -14  10  253.20   10.83
  -4  14 -11    5.82    2.39
  -4 -14  11    6.23    1.67
  -4 -14  11    5.97    2.60
  -4  14 -12    4.02    2.50
  -4 -14  12    4.68    1.67
  -4 -14  12    3.82    2.60
  -4  14 -13   19.95    3.54
  -4 -14  13   16.33    3.63
  -4 -14  13   16.73    2.22
  -4  14 -14   21.89    3.76
  -4 -14  14   31.35    4.67
  -4  14 -15   12.44    2.88
  -4 -14  15   10.66    3.13
  -4  14 -16  284.91   13.58
  -4 -14  16  300.45   14.93
  -4  14 -17   43.97    4.69
  -4  14 -18   69.81    5.76
  -4  14 -19   84.96    6.15
  -4 -14  19   79.36    6.69
  -4  14 -20   51.35    4.77
  -4 -14  20   60.54    5.62
   4  15 -17   43.45    4.74
   4  15 -17   41.06    4.12
   4  15 -16   70.33    6.10
   4  15 -16   76.17    5.69
   4  15 -15   64.38    5.92
   4  15 -15   69.30    5.50
   4  15 -14    8.42    2.30
   4  15 -14    8.27    2.98
   4  15 -13   14.66    2.84
   4  15 -13   16.10    3.48
   4  15 -12   19.22    3.24
   4  15 -12   16.96    3.57
   4  15 -11  185.90   10.99
   4  15 -11  205.13   10.46
  -4 -15 -11  189.37    8.58
   4  15 -10   46.65    5.33
   4  15 -10   53.52    4.98
  -4 -15 -10   38.49    3.52
   4  15  -9  123.54    8.72
   4  15  -9  109.13    7.39
  -4 -15  -9  112.38    6.39
   4  15  -8   30.35    3.88
   4  15  -8   25.96    4.16
  -4 -15  -8   26.61    3.08
   4  15  -7   64.15    6.25
   4  15  -7   64.08    5.58
  -4 -15  -7   71.24    5.06
   4  15  -6    2.73    1.86
   4  15  -6    2.03    2.42
  -4 -15  -6    0.60    1.42
   4  15  -5  132.01    8.86
   4  15  -5  113.14    7.44
  -4 -15  -5  117.82    6.92
   4  15  -4    3.46    1.91
   4  15  -4    2.98    2.11
  -4 -15  -4    1.55    1.57
   4  15  -3  123.25    8.51
   4  15  -3  106.20    7.15
  -4 -15  -3  104.26    6.58
   4  15  -2   12.89    2.60
   4  15  -2    9.70    3.08
  -4 -15  -2   10.09    2.24
  -4 -15  -1   19.58    2.93
  -4 -15   0    2.21    1.63
  -4  15  -1   11.62    2.63
  -4 -15   1    8.49    2.22
  -4  15  -2   15.56    2.89
  -4  15  -3  117.50    7.62
  -4  15  -4    1.99    1.69
  -4 -15   4    3.30    2.25
  -4 -15   4    3.37    1.74
  -4  15  -5  122.78    7.79
  -4 -15   5  112.49    8.18
  -4 -15   5  105.68    6.54
  -4  15  -6    1.64    1.91
  -4 -15   6    0.50    1.93
  -4 -15   6    2.38    1.76
  -4  15  -7   63.51    5.56
  -4 -15   7   64.73    6.29
  -4 -15   7   64.75    4.84
  -4  15  -8   23.75    3.69
  -4 -15   8   30.82    3.28
  -4 -15   8   29.17    4.38
  -4  15  -9  108.16    7.49
  -4 -15   9   98.96    7.92
  -4 -15   9  114.45    6.39
  -4  15 -10   42.13    4.69
  -4 -15  10   42.21    3.76
  -4 -15  10   44.69    5.34
  -4  15 -11  214.38   11.28
  -4 -15  11  220.31    9.53
  -4 -15  11  218.14   12.37
  -4  15 -12   14.35    3.02
  -4 -15  12   14.53    2.12
  -4  15 -13   14.08    2.99
  -4 -15  13   16.39    3.55
  -4  15 -14    8.62    2.49
  -4 -15  14   14.67    3.39
  -4  15 -15   62.94    5.53
  -4 -15  15   85.22    7.08
  -4  15 -16   65.40    5.40
  -4 -15  16   67.71    6.23
  -4  15 -17   39.32    4.14
  -4 -15  17   31.77    4.33
  -4  15 -18    9.71    2.33
   4  16 -16  178.21    9.49
   4  16 -15   16.36    2.97
   4  16 -14   33.32    3.59
   4  16 -14   31.10    4.06
   4  16 -13    9.18    2.35
   4  16 -13   15.36    3.10
   4  16 -12   14.38    2.73
   4  16 -12   15.89    3.18
   4  16 -11    7.75    2.06
   4  16 -11    9.72    2.73
  -4 -16 -11    9.37    1.78
   4  16 -10   20.32    3.06
   4  16 -10   16.71    3.33
  -4 -16 -10   17.63    2.35
   4  16  -9   19.97    3.15
   4  16  -9   20.67    3.76
  -4 -16  -9   22.83    2.70
   4  16  -8  279.32   13.70
   4  16  -8  269.16   12.26
  -4 -16  -8  265.21   11.21
   4  16  -7   32.05    3.84
   4  16  -7   29.05    4.39
  -4 -16  -7   33.34    3.38
   4  16  -6  120.76    8.35
   4  16  -6  121.26    7.44
  -4 -16  -6  114.73    6.66
   4  16  -5   19.78    3.03
   4  16  -5   24.01    3.82
  -4 -16  -5   19.45    2.81
   4  16  -4   30.38    3.76
   4  16  -4   31.96    4.34
  -4 -16  -4   24.63    3.10
  -4 -16  -3    8.70    2.16
  -4 -16  -2   27.66    3.32
  -4 -16  -1   10.37    2.34
  -4 -16   0   28.69    3.28
  -4 -16   0   22.96    3.43
  -4 -16   1   14.24    2.88
  -4 -16   1   12.18    2.40
  -4 -16   2   23.36    3.73
  -4  16  -3    8.24    2.54
  -4 -16   3   11.16    2.76
  -4  16  -4   26.56    3.56
  -4 -16   4   23.35    3.01
  -4 -16   4   23.76    3.76
  -4  16  -5   19.89    3.21
  -4 -16   5   18.84    2.75
  -4 -16   5   20.99    3.65
  -4  16  -6  112.43    7.33
  -4 -16   6  116.24    8.19
  -4 -16   6  111.02    6.48
  -4  16  -7   33.44    4.02
  -4 -16   7   31.66    3.31
  -4 -16   7   31.72    4.46
  -4  16  -8  298.97   13.01
  -4 -16   8  253.58   13.53
  -4 -16   8  274.46   11.44
  -4  16  -9   21.52    3.27
  -4 -16   9   19.68    2.53
  -4 -16   9   14.13    3.33
  -4  16 -10   22.83    3.37
  -4 -16  10   23.27    3.98
  -4 -16  10   24.81    2.76
  -4  16 -11    9.73    2.50
  -4 -16  11    8.77    1.79
  -4 -16  11   15.43    3.30
  -4  16 -12    8.81    2.29
  -4 -16  12   11.38    3.01
  -4  16 -13   10.26    2.37
  -4 -16  13    9.73    2.64
  -4  16 -14   27.58    3.49
  -4 -16  14   46.69    5.00
  -4  16 -15   19.73    2.88
  -4 -16  15   19.01    3.46
  -4 -16  16  157.89    9.25
   4  17 -13   35.69    3.94
   4  17 -12    2.14    1.77
   4  17 -11   64.05    5.41
   4  17 -11   63.41    4.76
   4  17 -10   68.24    5.76
   4  17 -10   65.45    4.91
   4 -17  10   74.42    4.45
  -4 -17 -10   70.40    4.32
   4  17  -9   48.10    4.85
   4  17  -9   60.20    4.64
   4 -17   9   58.76    4.05
  -4 -17  -9   51.28    3.81
   4  17  -8   57.73    5.39
   4  17  -8   58.91    4.72
  -4 -17  -8   54.34    4.01
   4  17  -7   43.21    4.82
   4  17  -7   48.00    4.38
  -4 -17  -7   50.51    3.90
  -4 -17  -6    2.53    1.44
  -4 -17  -5    7.33    1.97
  -4 -17  -4   16.12    2.54
  -4 -17  -3   67.43    4.82
  -4 -17  -2   24.14    2.86
  -4 -17  -1   14.81    2.47
  -4 -17   0  122.13    6.83
  -4 -17   1   17.91    2.57
  -4 -17   1   15.91    2.94
  -4 -17   2   14.57    2.97
  -4 -17   3   70.88    5.92
  -4 -17   4   20.07    2.72
  -4 -17   4   16.67    3.08
  -4 -17   5    7.42    1.97
  -4 -17   5    3.82    2.15
  -4  17  -6    4.63    1.88
  -4 -17   6    1.30    1.26
  -4 -17   6    0.43    1.73
  -4  17  -7   49.80    4.54
  -4 -17   7   55.69    4.09
  -4  17  -8   57.88    4.81
  -4 -17   8   50.17    3.94
  -4 -17   8   60.50    5.60
  -4  17  -9   59.49    4.81
   4 -17  -9   68.05    4.40
  -4 -17   9   56.88    5.50
  -4 -17   9   53.45    3.96
  -4  17 -10   63.76    5.00
   4 -17 -10   68.89    4.37
  -4 -17  10   67.27    5.94
  -4 -17  10   67.62    4.29
  -4  17 -11   68.30    5.13
  -4 -17  11   72.24    6.09
  -4 -17  12    1.64    1.70
  -4 -17  13   33.33    4.12
   4 -18   7   17.34    2.16
   4 -18   6    2.34    1.17
  -4 -18  -6    3.17    1.29
   4 -18   5   22.36    2.55
  -4 -18  -5   25.77    2.69
  -4 -18  -4   -0.23    1.09
   4 -18   4    0.45    1.09
  -4 -18  -3   12.42    2.01
  -4 -18  -2   67.78    4.58
  -4 -18  -1   10.16    1.98
  -4 -18   0  109.21    6.02
  -4 -18   1    9.25    1.97
  -4 -18   3   15.27    2.31
  -4 -18   4    1.41    1.28
   4 -18  -4    2.27    1.35
  -4 -18   4    1.05    1.49
   4 -18  -5   27.13    2.80
  -4 -18   5   24.30    3.38
  -4 -18   5   27.19    2.83
   4 -18  -6    4.12    1.47
  -4 -18   6    3.31    1.38
  -4 -18   7   12.67    1.93
  -5   0   0    0.37    1.21
  -5   0   0   -0.15    0.90
  -5   0   0    0.69    0.70
  -5   0   1   41.11    4.15
  -5   0  -1   38.32    4.11
  -5   0   1   38.57    2.81
  -5   0  -1   32.58    2.27
  -5   0   2 1146.00   38.42
  -5   0  -2 1233.65   39.35
  -5   0   2 1105.23   35.46
  -5   0  -2 1234.09   34.70
  -5   0   3   34.29    2.87
  -5   0  -3   25.36    3.75
  -5   0   3   39.20    4.03
  -5   0   3   31.04    2.78
  -5   0  -3   35.53    2.31
  -5   0   3   33.22    2.25
  -5   0   4   49.09    3.54
  -5   0   4   52.44    4.83
   5   0  -4   50.70    5.11
  -5   0  -4   50.38    5.16
  -5   0   4   51.44    3.68
  -5   0   4   50.79    2.87
  -5   0  -4   51.01    2.88
  -5   0   5   44.47    3.44
  -5   0   5   47.26    4.57
   5   0  -5   37.22    4.61
  -5   0  -5   46.29    2.72
  -5   0   5   44.48    3.48
  -5   0   5   43.35    2.64
  -5   0   6  644.80   21.80
  -5   0   6  704.89   25.00
   5   0  -6  647.28   25.86
  -5   0   6  637.55   20.33
  -5   0  -6  706.13   20.54
  -5   0   6  660.61   22.12
  -5   0   7  295.68   11.60
  -5   0   7  308.49   14.20
   5   0  -7  283.50   14.90
  -5   0   7  286.19   10.03
  -5   0   7  291.23   11.77
  -5   0  -7  304.70   10.17
  -5   0   8  568.83   19.74
  -5   0   8  564.60   22.61
   5   0  -8  625.11   24.69
  -5   0  -8  552.64   17.79
  -5   0   8  572.54   20.00
  -5   0   8  584.22   17.91
  -5   0   9   -0.26    1.12
  -5   0   9    1.38    0.83
  -5   0  -9    0.74    0.81
  -5   0   9    0.50    1.38
   5   0  -9    0.62    1.59
  -5   0   9    0.56    1.36
  -5   0  10   12.36    2.20
  -5   0 -10    9.75    1.24
  -5   0  10    8.69    2.66
   5   0 -10    7.30    2.68
  -5   0  10   10.51    1.36
  -5   0  10    9.50    2.18
  -5   0  11   80.80    5.57
   5   0  11   84.37    5.13
  -5   0 -11   78.24    3.81
  -5   0  11   82.74    3.96
  -5   0  11   68.44    6.84
   5   0  11   78.63    5.13
   5   0 -11   84.06    8.18
  -5   0  11   79.46    5.62
  -5   0  12   25.11    3.24
   5   0  12   27.83    3.05
  -5   0  12   23.98    1.98
   5   0  12   23.04    2.87
  -5   0  13  223.88   10.93
   5   0  13  212.98   10.01
   5   0  13  223.59    9.98
  -5   0  13  217.48    8.04
  -5   0  14    1.62    1.58
   5   0  14    1.79    1.60
   5   0  14    2.87    1.70
  -5   0  14    0.75    1.72
  -5   0  15    0.44    2.15
   5   0  15    1.28    1.67
   5   0  15    2.38    1.81
  -5   0  15    0.40    1.85
  -5   0  16  100.80    7.63
   5   0  16   95.34    6.38
   5   0  16   94.64    6.55
  -5   0  16  102.84    7.16
  -5   0  17   23.73    4.07
   5   0  17   33.91    3.92
   5   0  17   34.79    3.99
  -5   0  17   24.59    3.81
  -5   0  18   69.59    6.89
   5   0  18   67.29    5.92
   5   0  18   81.41    6.07
  -5   0  18   73.36    6.30
   5   0  19    8.66    2.70
  -5   0  19    1.76    2.43
   5   0  19    9.49    3.04
  -5   0  19    2.86    2.14
   5   0  20   16.36    3.30
  -5   0  20   12.48    3.35
   5   0  20   11.23    3.15
  -5   0  20   12.82    3.02
   5   0  21   62.60    5.87
  -5   0  21   59.19    6.77
   5   0  21   53.32    6.02
  -5   0  21   63.74    6.06
   5   0  22    7.38    2.68
  -5   0  22   11.60    3.71
   5   0  22   11.82    3.36
  -5   0  22    6.16    2.51
   5   0  23   22.56    4.40
   5   0  23   19.19    3.52
  -5   0  23   16.15    4.36
   5   0  24    8.70    3.38
   5   0  24    7.70    2.92
  -5   0  24    6.45    3.63
   5   0  25   16.22    3.98
  -5   0  25   19.43    4.84
   5   0  25   26.15    4.42
   5   0  26   -0.62    2.24
  -5   0  26   -0.71    3.01
   5   0  26    1.52    2.20
   5   0  27   38.80    4.79
   5   0  27   31.15    5.09
  -5   0  27   22.69    4.86
   5   0  27   31.63    3.98
   5   0  28   41.64    4.86
   5   0  28   25.76    4.45
   5   0  28   32.52    3.97
  -5   0  28   32.67    5.29
   5   0  29   17.71    3.70
   5   0  29   19.24    3.55
   5   0  29   21.69    3.27
  -5   0  29   17.01    3.73
   5   0  30    8.32    2.62
   5   0  30    7.60    2.56
   5   0  30    7.64    2.27
   5   0  31    4.46    1.84
   5   0  31    4.29    2.03
   5  -1  31    5.63    2.07
   5  -1  31    8.24    2.04
   5  -1  30   23.98    3.91
   5  -1  30   23.68    3.53
   5  -1  30   18.05    2.95
   5  -1  29  297.74   14.10
   5  -1  29  289.88   15.17
   5  -1  29  315.88   13.49
   5  -1  28   38.88    4.85
   5  -1  28   55.75    6.22
   5  -1  28   44.78    4.61
   5  -1  27  139.01    9.04
   5  -1  27  127.69    9.67
   5  -1  27  117.42    7.78
   5  -1  26   25.67    4.53
   5  -1  26   29.40    3.95
   5  -1  26   21.06    3.88
   5  -1  25   59.97    6.00
   5  -1  25   59.57    6.74
   5  -1  24   13.25    3.76
   5  -1  24   15.24    3.59
   5  -1  23   29.74    4.89
   5  -1  23   28.12    4.39
   5  -1  22   28.79    4.72
   5  -1  22   33.25    4.50
   5  -1  21  289.93   14.33
   5  -1  21  311.51   15.81
   5  -1  20  108.39    7.64
   5  -1  20   96.01    7.87
  -5   1  20   99.63    7.65
   5  -1  19  313.00   14.29
  -5   1  19  289.96   14.33
   5  -1  18   43.09    4.58
  -5   1  18   41.38    4.73
   5  -1  17   82.50    5.99
   5  -1  17   75.16    6.04
   5  -1  16   18.78    2.89
   5  -1  16   17.99    3.05
  -5   1  16   17.01    3.12
   5  -1  15  146.90    8.02
   5  -1  15  152.60    8.39
  -5   1  15  157.28    8.96
   5  -1  14   61.99    4.79
   5  -1  14   68.65    5.16
  -5   1  14   69.15    5.50
   5  -1  13 1921.79   59.36
   5  -1  13 2054.66   59.95
   5  -1  12  572.40   19.45
  -5   1  12  512.42   23.35
   5  -1  12  546.18   19.46
   5  -1  11 3166.08   88.70
  -5   1  11 3048.77   94.06
  -5   1  11 3109.35   86.77
   5  -1  11 3128.65   88.85
  -5  -1 -11 2933.20   86.37
   5  -1  10  131.84    6.49
  -5   1  10  126.45    5.40
  -5   1  10  130.04    8.92
   5  -1  10  116.03    6.33
   5   1 -10  119.53   10.03
  -5   1  10  128.43    7.18
  -5  -1 -10  122.23    5.15
   5  -1   9   16.39    2.14
  -5   1   9   18.21    1.80
  -5   1   9   19.96    3.44
   5  -1   9   16.55    2.18
   5   1  -9   16.70    3.71
  -5   1   9   20.09    2.73
  -5  -1  -9   20.72    1.78
  -5   1   8   12.59    1.52
  -5  -1  -8   10.41    1.31
  -5   1   8    7.40    2.05
   5   1  -8   15.13    3.54
  -5   1   8   10.70    2.07
  -5   1   7   11.58    1.39
  -5   1   7    6.02    1.82
   5   1  -7   13.62    3.38
  -5   1   7   12.63    2.12
  -5  -1  -7   11.95    1.41
  -5   1   6  141.87    8.15
   5   1  -6  129.42    9.47
  -5  -1  -6  133.81    5.43
  -5   1   6  131.19    5.53
  -5   1   6  136.43    6.86
  -5   1   5 1994.60   62.36
   5   1  -5 2070.12   65.47
  -5  -1  -5 2145.15   58.63
  -5   1   5 1980.38   58.65
  -5   1   5 2017.00   60.39
  -5   1   4  397.40   15.94
   5   1  -4  405.34   18.20
  -5  -1  -4  376.40   17.69
  -5  -1  -4  414.89   13.08
  -5   1   4  417.41   14.59
  -5   1   4  391.95   13.12
  -5   1   3 3139.08   93.85
  -5  -1  -3 3154.26   96.41
  -5  -1  -3 3309.80   90.45
  -5   1   3 3159.33   90.53
  -5   1   3 3154.97   91.82
  -5   1   2  230.78   10.38
  -5  -1  -2  235.06   12.00
  -5   1   2  207.76    8.67
  -5  -1  -2  217.94    7.81
  -5   1   1  164.58    8.33
  -5  -1  -1  148.20    9.18
  -5  -1  -1  155.88    6.02
  -5   1   0   55.56    4.46
  -5  -1   0   49.20    4.85
  -5   1   0   48.59    2.85
  -5  -1   0   47.33    2.75
  -5   1  -1  144.84    7.97
  -5  -1   1  139.45    8.62
  -5   1  -1  138.89    5.72
  -5  -1   1  145.29    6.25
  -5  -1   2  227.10   11.33
  -5   1  -2  228.41   10.66
  -5   1  -2  213.84    7.85
  -5  -1   2  205.87    8.46
  -5  -1   3 3231.33   90.56
  -5  -1   3 3185.91   94.33
  -5   1  -3 3149.57   93.40
  -5  -1   3 3099.49   90.32
  -5   1  -3 3121.30   89.25
  -5  -1   3 3172.67   89.07
  -5  -1   4  397.48   14.08
  -5  -1   4  420.53   17.25
   5  -1  -4  392.79   16.77
  -5   1  -4  396.22   16.49
  -5  -1   4  395.37   12.83
  -5  -1   4  384.62   14.01
  -5   1  -4  397.86   13.02
  -5  -1   5 1975.69   58.70
  -5  -1   5 2014.82   62.57
   5  -1  -5 2009.85   62.40
  -5  -1   5 2026.30   57.15
  -5  -1   5 2017.26   58.89
  -5   1  -5 1955.73   57.29
  -5  -1   6  110.27    6.06
  -5   1  -6  136.81    5.46
  -5  -1   6  133.64    8.59
   5  -1  -6  117.27    8.19
  -5  -1   6  125.18    5.18
  -5  -1   6  127.71    6.55
  -5  -1   7    9.87    1.84
  -5   1  -7    8.65    1.27
  -5  -1   7   11.47    2.61
   5  -1  -7    9.91    2.57
  -5  -1   7   11.56    1.36
  -5  -1   7   13.03    2.05
  -5  -1   8   10.35    1.95
  -5   1  -8   10.27    1.34
  -5  -1   8    7.06    2.37
   5  -1  -8    8.51    2.45
  -5  -1   8   10.79    1.31
  -5  -1   8    9.70    2.11
  -5  -1   9   24.93    2.78
  -5   1  -9   15.21    1.65
  -5  -1   9   14.45    3.30
   5  -1  -9   25.82    4.14
  -5  -1   9   24.31    2.80
  -5  -1   9   19.22    1.71
  -5  -1  10  124.55    7.11
  -5  -1  10  135.12    9.61
  -5   1 -10  135.36    5.59
   5  -1 -10  120.49    9.49
  -5  -1  10  136.09    5.51
  -5  -1  10  143.67    7.53
  -5  -1  11 2990.18   90.96
  -5  -1  11 3123.63   96.28
   5  -1 -11 3059.50   96.76
  -5  -1  11 3082.11   91.14
  -5  -1  11 3167.72   87.92
  -5  -1  12  565.12   20.81
   5   1  12  531.40   19.65
   5   1  12  524.34   19.76
   5  -1 -12  579.33   25.68
  -5  -1  12  595.60   17.78
  -5  -1  13 1931.75   61.66
   5   1  13 2049.20   60.66
   5   1  13 1983.78   60.78
  -5  -1  13 2041.32   57.84
  -5  -1  14   62.12    5.46
   5   1  14   62.38    4.86
   5   1  14   55.38    4.77
  -5  -1  15  136.38    8.88
   5   1  15  143.82    8.03
   5   1  15  143.52    8.23
  -5  -1  15  150.53    8.80
  -5  -1  16   16.23    3.36
   5   1  16   15.93    2.83
   5   1  16   22.17    3.26
  -5  -1  16   19.51    3.24
  -5  -1  17   90.18    7.36
   5   1  17   86.71    6.30
   5   1  17  100.78    6.86
  -5  -1  17   86.03    6.84
   5   1  18   45.78    4.67
   5   1  18   50.30    5.15
  -5  -1  18   54.03    5.86
   5   1  18   48.25    5.12
  -5  -1  18   47.19    5.04
   5   1  19  305.75   14.01
   5   1  19  293.17   14.20
  -5  -1  19  302.25   15.80
   5   1  19  308.42   14.96
  -5  -1  19  310.03   14.87
   5   1  20  103.48    7.59
  -5  -1  20   97.67    8.56
   5   1  20  104.44    8.10
  -5  -1  20   94.30    7.53
   5   1  21  259.05   13.48
  -5  -1  21  262.17   15.07
   5   1  21  273.90   14.47
  -5  -1  21  287.36   14.26
   5   1  22   22.78    4.20
  -5  -1  22   25.22    4.60
   5   1  22   32.98    4.86
  -5  -1  22   19.30    3.79
  -5  -1  23   30.75    5.07
   5   1  23   27.94    4.47
   5   1  23   33.40    5.06
  -5  -1  23   27.75    4.37
  -5  -1  24   18.53    4.53
   5   1  24   19.05    3.92
   5   1  24   19.41    4.21
  -5  -1  24   16.57    3.71
   5   1  25   62.91    6.10
   5   1  25   52.21    6.12
  -5  -1  25   54.33    6.93
   5   1  26   26.40    4.61
   5   1  26   19.28    3.78
  -5  -1  26   23.24    4.84
   5   1  27  136.05    9.03
   5   1  27  131.24    9.52
   5   1  27  118.76    7.90
  -5  -1  27  116.62    9.76
   5   1  28   37.01    4.71
   5   1  28   45.11    5.48
   5   1  28   40.28    4.48
  -5  -1  28   33.66    5.46
   5   1  29  299.26   13.87
   5   1  29  270.47   14.20
   5   1  29  280.56   12.72
  -5  -1  29  267.54   14.91
   5   1  30   18.27    3.48
   5   1  30   24.42    3.27
   5  -2  30    5.51    2.35
   5  -2  30   10.90    2.37
   5  -2  30   14.19    2.98
   5  -2  29    9.24    3.01
   5  -2  29   14.01    2.77
  -5   2  29   12.94    3.40
   5  -2  29    9.27    2.74
   5  -2  28   37.79    5.27
   5  -2  28   29.90    4.20
   5  -2  28   35.63    4.08
  -5   2  28   33.80    5.32
   5  -2  27   46.78    5.40
   5  -2  27   48.81    6.05
  -5   2  27   41.04    5.93
   5  -2  27   49.33    4.85
   5  -2  26   23.93    4.60
  -5   2  26   24.43    5.04
   5  -2  26   19.75    3.79
   5  -2  26   31.86    4.02
   5  -2  25   18.50    4.27
  -5   2  25   19.17    4.28
   5  -2  25    8.32    2.56
   5  -2  25   15.09    3.55
   5  -2  24   12.72    3.80
  -5   2  24   20.61    4.67
   5  -2  24   20.62    3.86
   5  -2  24   20.82    3.48
   5  -2  23   82.63    7.00
   5  -2  23   84.34    7.83
  -5   2  23   88.69    8.52
   5  -2  22   65.72    6.08
   5  -2  22   58.11    6.49
  -5   2  22   56.39    6.76
   5  -2  21   71.59    6.35
   5  -2  21   80.19    7.26
  -5   2  21   70.96    7.41
   5  -2  20   43.73    4.84
   5  -2  20   35.88    5.07
  -5   2  20   31.30    5.20
  -5   2  19   48.90    5.94
   5  -2  19   61.33    5.64
  -5   2  18   88.22    7.63
   5  -2  18   84.26    6.44
  -5   2  17    7.80    2.88
   5  -2  17   14.47    2.82
  -5   2  16   13.03    3.02
   5  -2  16   24.69    3.38
  -5   2  16   20.83    3.46
  -5   2  15  108.88    7.81
   5  -2  15  120.10    7.11
   5  -2  15  103.78    6.53
  -5   2  15  110.68    7.40
  -5   2  14  121.12    7.89
   5  -2  14  126.65    7.13
   5  -2  14  128.02    7.22
  -5   2  14  126.36    7.78
  -5   2  13  106.70    7.25
   5  -2  13  124.97    6.73
   5  -2  13  120.80    6.81
  -5   2  13  127.52    7.52
  -5   2  12   13.15    2.62
   5  -2  12   13.55    2.16
   5  -2  12   18.47    2.49
  -5   2  11   62.74    4.94
   5  -2  11   68.42    4.48
   5  -2  11   64.42    4.47
  -5  -2 -11   66.73    3.39
  -5   2  10   28.31    3.13
   5  -2  10   27.76    2.81
   5  -2  10   24.75    2.72
   5   2 -10   19.96    4.37
  -5   2  10   29.67    3.45
  -5  -2 -10   31.32    2.16
  -5   2   9   49.01    4.06
   5  -2   9   55.24    3.70
  -5   2   9   43.05    4.77
   5  -2   9   54.08    3.82
   5   2  -9   54.34    6.55
  -5  -2  -9   58.78    3.06
  -5   2   9   45.61    4.02
  -5   2   8  130.47    6.78
   5  -2   8  143.94    6.29
  -5   2   8  133.67    5.66
  -5   2   8  127.91    8.08
   5   2  -8  114.10    9.60
   5  -2   8  130.17    6.21
  -5  -2  -8  126.97    5.31
  -5   2   8  120.37    6.89
  -5   2   7   24.69    2.65
   5  -2   7   23.51    2.23
  -5   2   7   20.30    1.95
   5  -2   7   20.93    2.18
  -5   2   7   16.98    2.80
   5   2  -7   22.06    4.04
  -5   2   7   20.19    2.60
  -5  -2  -7   24.37    1.87
  -5   2   6    7.88    1.65
  -5   2   6   10.17    1.46
  -5   2   6   11.73    2.30
   5   2  -6    8.03    2.96
  -5   2   6   11.69    2.05
  -5  -2  -6   13.55    1.47
  -5   2   5  206.72    8.77
  -5   2   5  201.57    7.80
  -5   2   5  213.83    9.91
   5   2  -5  210.88   12.63
  -5  -2  -5  214.63    7.64
  -5   2   4   57.54    3.86
  -5   2   4   64.19    3.46
  -5   2   4   58.28    4.46
  -5  -2  -4   53.34    5.87
   5   2  -4   52.97    5.87
  -5  -2  -4   64.10    3.24
  -5   2   3  167.80    7.39
  -5   2   3  171.57    6.68
  -5   2   3  171.25    8.20
  -5  -2  -3  159.60   10.40
  -5  -2  -3  168.84    6.42
  -5   2   2  294.15   11.54
  -5  -2  -2  273.38   14.22
  -5  -2  -2  273.22    9.50
  -5   2   1   59.38    4.18
  -5  -2  -1   55.77    5.66
  -5  -2  -1   54.30    2.97
  -5   2   0    8.91    1.36
  -5   2   0   10.91    1.80
  -5  -2   0   10.63    2.63
  -5  -2   0    9.94    1.29
  -5  -2   0    9.69    1.45
  -5   2  -1   55.95    3.20
  -5   2  -1   58.40    4.25
  -5  -2   1   51.52    5.28
  -5  -2   1   56.98    3.46
  -5   2  -2  278.31    9.94
  -5  -2   2  275.68   13.75
  -5   2  -2  308.08   12.17
  -5  -2   2  281.16   10.51
  -5  -2   3  163.12    7.30
  -5   2  -3  167.87    6.60
  -5  -2   3  154.48    9.67
  -5   2  -3  169.12    8.53
  -5  -2   3  164.37    7.23
  -5  -2   3  167.53    6.34
  -5  -2   4   63.86    4.06
  -5   2  -4   58.61    3.35
  -5  -2   4   72.39    6.18
  -5   2  -4   66.36    5.01
   5  -2  -4   57.44    4.93
  -5  -2   4   62.63    3.24
  -5  -2   4   64.87    4.10
  -5  -2   5  202.15    8.56
  -5   2  -5  209.55    7.73
  -5  -2   5  193.79   11.24
   5  -2  -5  204.28   10.43
  -5  -2   5  191.60    8.54
  -5  -2   5  201.51    7.38
  -5  -2   6   10.23    1.82
  -5   2  -6   10.66    1.48
  -5  -2   6    8.99    2.55
   5  -2  -6   12.87    2.51
  -5  -2   6   10.71    1.35
  -5  -2   6   10.46    1.85
  -5  -2   7   20.61    2.52
  -5   2  -7   21.58    1.99
  -5  -2   7   16.09    3.41
   5  -2  -7   26.66    3.65
  -5  -2   7   22.98    1.84
  -5  -2   7   21.12    2.61
  -5  -2   8  124.72    6.60
  -5  -2   8  124.17    9.01
   5  -2  -8  119.92    8.47
  -5  -2   8  118.25    6.64
  -5  -2   8  131.99    5.30
  -5  -2   9   50.59    4.03
  -5  -2   9   44.76    5.45
   5  -2  -9   54.98    5.68
  -5  -2   9   53.70    2.95
  -5  -2   9   44.68    3.95
  -5  -2  10   32.79    3.41
  -5  -2  10   23.72    4.19
   5  -2 -10   28.57    4.40
  -5  -2  10   30.13    2.17
  -5  -2  10   30.73    3.39
  -5  -2  11   64.30    4.95
   5  -2 -11   59.07    6.60
  -5  -2  11   67.85    3.47
  -5  -2  11   68.72    5.14
  -5  -2  12   19.29    2.94
  -5   2 -12   13.83    3.01
   5  -2 -12   12.48    3.41
  -5  -2  12   19.83    2.96
  -5  -2  12   16.75    1.64
  -5  -2  13  129.49    7.90
   5   2  13  137.60    7.44
   5   2  13  144.50    7.71
  -5  -2  13  127.34    5.43
  -5  -2  14  130.39    8.25
   5   2  14  127.70    7.46
   5   2  14  139.79    7.91
  -5  -2  15  112.01    7.94
   5   2  15  109.51    6.84
   5   2  15  101.45    6.86
  -5  -2  15  106.06    7.30
   5   2  16   19.58    3.10
   5   2  16   18.59    3.28
  -5  -2  16   16.82    3.38
   5   2  16   15.43    2.80
  -5  -2  16   19.44    3.32
   5   2  17   12.03    2.67
   5   2  17    5.22    2.25
  -5  -2  17   10.88    3.12
   5   2  17    4.20    2.02
  -5  -2  17   11.37    3.04
   5   2  18   75.25    6.14
   5   2  18   77.47    6.31
  -5  -2  18   89.55    7.61
   5   2  18   85.92    6.75
  -5  -2  18   87.21    7.02
   5   2  19   53.66    5.33
   5   2  19   65.07    5.84
  -5  -2  19   59.27    6.43
   5   2  19   68.49    6.25
  -5  -2  19   62.03    6.04
   5   2  20   46.95    4.92
   5   2  20   36.41    4.75
  -5  -2  20   37.40    5.45
   5   2  20   43.77    5.12
  -5  -2  20   39.51    4.90
   5   2  21   79.00    6.83
  -5  -2  21   73.59    7.66
   5   2  21   80.55    7.11
  -5  -2  21   83.04    7.12
   5   2  22   61.30    6.16
  -5  -2  22   67.60    7.43
   5   2  22   73.07    6.90
  -5  -2  22   73.45    6.72
   5   2  23   99.37    7.73
  -5  -2  23   80.58    8.16
   5   2  23   87.15    7.80
  -5  -2  23   93.81    7.65
  -5  -2  24   12.72    4.04
   5   2  24   19.59    3.82
   5   2  24   16.97    3.90
  -5  -2  24   20.51    3.93
  -5  -2  25   21.17    4.48
   5   2  25   18.71    3.90
  -5  -2  25   17.35    3.55
   5   2  26   36.88    5.07
  -5  -2  26   27.74    5.09
   5   2  27   41.33    5.30
  -5  -2  27   36.73    5.62
   5   2  28   33.28    4.79
  -5  -2  28   28.44    4.92
   5   2  29    7.78    2.65
  -5  -2  29   12.28    3.38
   5   2  30    7.83    2.41
   5  -3  30  108.17    7.05
   5  -3  30  102.52    7.89
   5  -3  30  110.22    6.67
   5  -3  29  105.83    7.25
   5  -3  29   95.50    7.80
   5  -3  29   86.40    6.20
   5  -3  28   24.11    3.75
   5  -3  28   22.60    3.37
  -5   3  28   20.21    4.30
   5  -3  27   79.78    6.13
  -5   3  27   74.23    7.53
   5  -3  27   93.39    7.20
   5  -3  26  264.52   12.64
  -5   3  26  262.20   15.35
   5  -3  26  275.88   13.70
   5  -3  25   55.90    5.33
  -5   3  25   55.52    6.96
   5  -3  25   53.83    5.61
  -5   3  24   23.04    4.84
   5  -3  24   21.39    3.50
   5  -3  24   20.88    3.92
  -5   3  23   36.53    5.53
   5  -3  23   37.08    4.31
   5  -3  23   25.17    4.20
  -5   3  22  134.96   10.46
   5  -3  22  153.61    9.56
  -5   3  21  182.03   12.35
   5  -3  21  215.41   11.43
  -5   3  20   77.98    7.54
   5  -3  20   75.21    6.28
   5  -3  19   12.43    2.94
  -5   3  19   12.96    3.64
  -5   3  18   34.94    4.89
   5  -3  18   33.63    4.23
  -5   3  17   42.77    5.34
   5  -3  17   51.03    4.77
  -5   3  16   21.37    3.68
   5  -3  16   19.21    3.03
  -5   3  15   22.04    3.62
   5  -3  15   24.17    3.16
  -5   3  14  178.92    9.88
   5  -3  14  164.14    8.52
  -5   3  13 1204.25   39.54
   5  -3  13 1208.58   38.04
  -5   3  12  202.56   10.05
   5  -3  12  196.88    8.85
   5  -3  12  189.93    8.88
  -5   3  11 1059.20   33.74
   5  -3  11  984.17   31.98
   5  -3  11 1006.92   32.30
  -5  -3 -11 1047.14   30.46
  -5   3  10  128.93    7.09
   5  -3  10  121.62    6.04
   5  -3  10  110.46    6.01
  -5  -3 -10  126.00    5.20
  -5   3   9   72.63    4.91
   5  -3   9   72.84    4.22
   5   3  -9   64.80    7.55
   5  -3   9   63.09    4.15
  -5  -3  -9   74.05    3.61
   5  -3   8   14.55    1.84
   5  -3   8   19.35    2.12
   5   3  -8   14.12    3.79
  -5  -3  -8   14.29    1.50
  -5   3   7   55.78    4.10
   5  -3   7   55.59    3.48
  -5   3   7   64.37    5.01
   5  -3   7   59.51    3.63
   5   3  -7   64.32    7.15
  -5  -3  -7   66.67    3.33
  -5   3   6  211.37    8.93
   5  -3   6  200.10    7.83
  -5   3   6  191.79    9.52
   5  -3   6  209.27    8.02
   5   3  -6  216.37   13.45
  -5  -3  -6  213.39    7.64
  -5   3   5 2333.23   67.12
   5  -3   5 2191.82   65.55
  -5   3   5 2368.49   68.12
   5  -3   5 2273.34   65.76
   5   3  -5 2438.62   74.66
  -5  -3  -5 2164.19   73.50
  -5  -3  -5 2378.76   65.59
  -5   3   4  447.25   15.15
  -5   3   4  443.18   15.58
  -5  -3  -4  416.72   19.91
  -5  -3  -4  412.56   13.74
  -5   3   3 3506.36  101.20
  -5   3   3 3523.53  101.48
  -5  -3  -3 3560.71  107.95
  -5  -3  -3 3574.31   99.91
  -5   3   2  944.98   29.96
  -5  -3  -2  989.44   35.66
  -5  -3  -2  976.85   28.76
  -5   3   1   37.17    2.88
  -5  -3  -1   43.47    5.19
  -5  -3  -1   43.18    2.59
  -5   3   0   30.02    2.50
  -5  -3   0   31.36    4.31
  -5  -3   0   25.68    2.01
  -5  -3   0   25.81    2.22
  -5   3  -1   39.49    2.99
  -5  -3   1   39.61    4.90
  -5  -3   1   40.69    2.92
  -5  -3   2  950.33   35.07
  -5   3  -2  991.61   30.73
  -5  -3   2  996.79   30.36
  -5  -3   3 3845.35  103.32
  -5  -3   3 3482.49  108.21
  -5   3  -3 3543.18  103.74
  -5  -3   3 3606.23  101.75
  -5  -3   3 3510.78  102.98
  -5  -3   4  457.50   15.62
  -5  -3   4  403.96   19.08
  -5   3  -4  448.82   16.51
  -5  -3   4  453.87   14.37
  -5  -3   4  440.63   15.65
  -5  -3   5 2341.53   68.77
  -5  -3   5 2336.90   74.00
   5  -3  -5 2434.39   70.91
  -5   3  -5 2378.30   70.45
  -5  -3   5 2376.92   67.32
  -5  -3   5 2306.05   68.98
  -5  -3   6  201.84    8.72
  -5  -3   6  185.55   11.54
   5  -3  -6  197.19   10.12
  -5  -3   6  191.79    8.84
  -5  -3   6  211.94    7.53
  -5  -3   7   59.86    6.20
   5  -3  -7   67.91    5.55
  -5  -3   7   62.46    4.27
  -5   3  -7   64.17    3.33
  -5  -3   7   65.40    3.38
  -5  -3   7   55.99    4.30
  -5  -3   8   13.63    2.23
  -5  -3   8   14.72    3.41
   5  -3  -8   13.45    2.82
  -5  -3   8   12.55    1.44
  -5  -3   8   15.59    2.38
  -5  -3   9   66.51    4.76
  -5  -3   9   65.95    6.78
   5  -3  -9   77.41    6.60
  -5  -3   9   68.43    4.99
  -5  -3   9   74.48    3.69
  -5  -3  10  144.26    7.53
  -5   3 -10  124.39    8.17
   5  -3 -10  139.43    9.45
  -5  -3  10  133.61    7.50
  -5  -3  10  131.87    5.55
  -5  -3  11 1034.13   34.47
  -5   3 -11  991.88   36.22
   5  -3 -11 1144.98   39.22
  -5  -3  11 1085.85   34.80
  -5  -3  11 1069.07   31.54
  -5  -3  12  209.34   10.35
  -5   3 -12  204.44   11.72
   5  -3 -12  205.80   13.03
  -5  -3  12  208.24    7.81
  -5  -3  12  223.17   10.65
  -5  -3  13 1200.85   39.18
  -5   3 -13 1146.47   41.26
  -5  -3  13 1200.85   35.15
   5   3  14  136.89    7.83
   5   3  14  145.61    7.77
  -5  -3  14  154.97    8.93
   5   3  15   30.44    3.72
   5   3  15   23.63    3.48
  -5  -3  15   21.12    3.59
   5   3  15   25.20    3.29
   5   3  16   16.01    3.01
   5   3  16   21.73    3.30
  -5  -3  16   14.56    3.44
   5   3  16   17.57    2.99
  -5  -3  16   19.50    3.35
   5   3  17   61.50    5.34
   5   3  17   61.42    5.46
  -5  -3  17   45.86    5.36
   5   3  17   51.69    4.99
  -5  -3  17   50.84    5.50
   5   3  18   33.28    4.16
   5   3  18   23.82    3.90
  -5  -3  18   23.82    4.25
   5   3  18   32.31    4.16
  -5  -3  18   30.80    4.23
  -5  -3  19   17.05    3.92
   5   3  19   22.63    3.80
  -5  -3  19   19.80    3.77
  -5  -3  20   83.43    7.80
   5   3  20   78.70    6.80
  -5  -3  20   89.20    7.30
  -5  -3  21  191.31   12.49
   5   3  21  189.16   11.35
  -5  -3  21  215.44   12.12
  -5  -3  22  124.58   10.11
   5   3  22  152.03    9.86
  -5  -3  22  148.54    9.84
  -5  -3  23   37.75    5.68
   5   3  23   30.90    4.72
  -5  -3  23   37.96    5.08
  -5  -3  24   22.23    4.68
   5   3  24   23.45    4.30
  -5  -3  24   25.07    4.24
  -5  -3  25   57.96    6.89
   5   3  25   41.12    5.45
  -5  -3  25   51.51    5.61
  -5  -3  26  255.12   15.02
   5   3  26  269.68   14.12
  -5  -3  26  252.41   13.21
   5   3  27   68.77    6.30
   5   3  27   65.73    6.40
  -5  -3  27   80.19    7.70
   5   3  28   25.31    4.10
   5   3  28   27.01    3.95
   5   3  28   30.58    3.84
  -5  -3  28   29.80    5.02
   5   3  29   86.74    6.69
   5   3  29   83.82    6.01
   5   3  30   98.40    6.88
   5   3  30  107.89    6.59
   5  -4  30    8.68    2.23
   5  -4  30   10.62    2.22
   5  -4  29   52.09    5.05
   5  -4  29   62.45    4.97
   5  -4  28   20.36    3.18
   5  -4  28   22.62    3.64
  -5   4  28   14.98    3.63
   5   4 -27   25.40    3.26
   5  -4  27   29.03    4.14
   5  -4  27   24.21    3.45
  -5   4  27   21.08    4.65
   5   4 -26   18.02    3.04
  -5   4  26   20.80    4.32
   5  -4  26   19.65    3.71
   5  -4  26   17.48    3.14
   5  -4  25   21.53    4.41
   5   4 -25   20.17    3.23
  -5   4  25   26.81    4.92
   5  -4  25   24.70    3.63
   5  -4  25   21.17    3.77
   5  -4  24   73.02    6.52
   5  -4  24   70.07    7.33
   5  -4  24   70.42    5.90
  -5   4  24   82.77    8.10
   5  -4  23   41.60    5.93
  -5   4  23   28.38    4.89
   5  -4  23   34.89    4.28
   5  -4  23   36.41    4.75
   5  -4  22   49.67    5.26
   5  -4  22   44.07    5.65
  -5   4  22   42.36    5.87
   5  -4  22   49.39    4.92
   5  -4  21   93.34    7.28
   5  -4  21  105.54    8.60
   5  -4  21  108.88    7.11
  -5   4  21   88.27    8.30
  -5   4  20   12.40    3.65
   5  -4  20   20.07    3.50
  -5   4  19    9.44    3.17
   5  -4  19   18.72    3.28
  -5   4  18   23.30    4.09
   5  -4  18   22.94    3.54
   5  -4  17    7.18    2.25
  -5   4  17    7.31    2.79
  -5   4  16   79.83    6.81
   5  -4  16   78.71    5.77
   5  -4  15    1.31    1.31
  -5   4  15    0.45    1.77
   5  -4  14   19.65    2.88
  -5   4  14   20.23    3.28
  -5   4  13   62.31    5.42
   5  -4  13   64.70    4.69
  -5   4  12   25.02    3.42
   5  -4  12   22.37    2.71
  -5  -4 -12   23.97    1.94
  -5   4  11   39.80    4.02
   5  -4  11   42.23    3.45
  -5  -4 -11   43.34    2.68
   5  -4  10   10.34    1.84
  -5   4  10   15.10    2.45
   5   4 -10   12.67    1.73
  -5  -4 -10   10.88    1.39
   5  -4   9  152.49    6.86
   5  -4   9  149.79    6.67
  -5   4   9  156.02    7.90
   5   4  -9  153.24    6.52
  -5  -4  -9  157.35    6.18
  -5   4   8   81.20    5.12
   5  -4   8   75.77    4.14
   5  -4   8   78.48    4.27
  -5  -4  -8   73.62    3.75
  -5   4   7  102.25    5.63
   5  -4   7   87.10    4.40
   5   4  -7   86.82    8.63
   5  -4   7   92.52    4.57
  -5  -4  -7   97.91    4.43
  -5   4   6    2.26    1.19
   5   4  -6    2.94    2.48
   5  -4   6    4.21    1.03
   5  -4   6    2.92    0.89
  -5  -4  -6    3.46    0.95
  -5   4   5  524.23   18.13
   5   4  -5  536.04   24.29
  -5  -4  -5  538.26   16.89
  -5   4   4  154.16    7.25
  -5  -4  -4  162.89    6.35
  -5   4   3  104.27    5.55
  -5  -4  -3  117.38    4.98
  -5   4   2  161.51    7.13
  -5  -4  -2  153.83    6.20
  -5   4   1  223.19    7.41
  -5  -4  -1  216.75    8.51
  -5   4   0   63.48    2.61
  -5  -4   0   72.43    3.98
  -5  -4   0   76.11    3.69
  -5   4  -1  215.29    7.04
   5   4   1  224.39    8.21
  -5  -4   1  238.54    8.95
  -5   4  -2  153.70    5.57
  -5  -4   2  160.55    7.06
   5   4   2  148.49    6.10
  -5  -4   2  163.66    7.09
  -5  -4   3  102.20    5.43
  -5   4  -3   99.39    4.57
  -5  -4   3  110.89    4.79
  -5  -4   4  176.00    7.42
  -5   4  -4  157.31    6.79
  -5   4  -4  145.76    6.32
  -5  -4   4  159.09    7.43
  -5  -4   4  163.65    6.36
  -5   4  -5  511.86   16.99
  -5   4  -5  516.85   17.69
   5  -4  -5  523.97   18.22
  -5  -4   5  518.95   17.55
  -5   4  -5  486.99   16.11
  -5  -4   5  507.74   16.24
  -5  -4   5  530.12   17.94
  -5   4  -6    2.82    1.06
   5  -4  -6    3.41    1.28
  -5  -4   6    1.80    1.12
  -5   4  -6    3.55    0.93
  -5  -4   6    4.26    1.51
  -5  -4   6    4.04    0.98
  -5   4  -7   95.45    5.59
   5  -4  -7   94.23    6.34
  -5  -4   7   97.55    5.53
  -5   4  -7   90.78    4.51
  -5  -4   7   96.83    4.45
  -5  -4   7   96.19    5.75
  -5   4  -8   62.71    4.79
   5  -4  -8   75.22    5.88
  -5  -4   8   74.59    4.86
  -5   4  -8   66.64    3.83
  -5  -4   8   81.25    5.30
  -5  -4   8   77.80    3.85
  -5   4  -9  145.27    8.23
   5  -4  -9  178.66   10.01
  -5  -4   9  164.39    8.05
  -5   4  -9  154.96    6.72
  -5  -4   9  160.24    6.40
  -5  -4   9  148.74    8.11
  -5  -4  10   14.83    2.44
  -5   4 -10   11.38    2.37
   5  -4 -10   11.24    2.80
  -5  -4  10   12.35    1.55
  -5  -4  10   19.33    2.86
  -5  -4  11   39.28    3.91
  -5   4 -11   39.10    4.34
  -5  -4  11   48.06    4.33
  -5  -4  11   37.82    2.61
  -5   4 -12   23.59    3.52
  -5  -4  12   22.99    3.23
   5   4  12   21.34    2.63
  -5  -4  12   25.00    2.04
  -5  -4  12   15.71    2.76
  -5  -4  13   69.70    5.66
   5   4  13   67.25    4.82
  -5  -4  13   62.22    5.47
  -5  -4  13   68.13    3.57
  -5  -4  14   14.85    3.15
   5   4  14   16.94    2.62
  -5  -4  14   17.38    1.72
  -5  -4  15   -0.46    1.73
   5   4  15    1.02    1.41
  -5  -4  16   69.06    6.41
   5   4  16   77.59    5.85
  -5  -4  17   11.05    3.13
   5   4  17    9.55    2.50
  -5  -4  17   13.41    3.14
  -5  -4  18   18.43    3.84
   5   4  18   17.88    3.31
  -5  -4  18   22.03    3.97
  -5  -4  19    7.71    3.23
   5   4  19   13.09    3.00
  -5  -4  19   10.93    3.01
  -5  -4  20   19.84    4.22
   5   4  20   16.61    3.31
  -5  -4  20   20.92    4.15
  -5  -4  21   80.54    7.96
   5   4  21   89.06    7.21
  -5  -4  21   91.99    7.64
   5   4  22   46.73    5.41
  -5  -4  22   49.75    6.42
   5   4  22   52.16    5.68
  -5  -4  22   57.52    6.09
   5   4  23   35.97    4.64
  -5  -4  23   29.08    5.19
   5   4  23   33.89    4.80
  -5  -4  23   35.81    4.98
   5   4  24   73.32    6.69
  -5  -4  24   63.05    7.23
   5   4  24   84.54    7.20
  -5  -4  24   78.72    7.02
  -5  -4  25   22.01    4.58
   5   4  25   19.46    3.89
   5   4  25   19.64    3.77
  -5  -4  25   15.53    3.46
  -5  -4  26   14.24    3.96
   5   4  26   21.32    3.77
   5   4  26   14.46    3.22
  -5   4 -26   17.22    3.00
  -5  -4  26   17.55    3.46
   5   4  27   28.19    4.08
  -5  -4  27   29.56    5.08
  -5   4 -27   32.83    3.89
  -5  -4  27   27.37    3.97
  -5   4 -28   19.04    3.00
  -5  -4  28   19.50    3.83
   5   4  28   24.22    3.83
   5   4  29   46.50    4.86
   5   4  29   56.88    4.73
   5   4  30    9.26    2.44
   5   4  30    9.13    2.06
   5  -5  29   42.80    4.35
   5  -5  29   33.03    4.73
   5  -5  29   42.84    4.05
   5  -5  28   78.95    6.29
   5  -5  28   87.00    7.54
   5  -5  28   94.80    6.27
   5  -5  27  144.86    8.95
   5  -5  27  163.72   10.72
   5  -5  27  161.11    8.72
  -5   5  27  131.26    9.88
   5  -5  26  279.27   13.71
   5  -5  26  300.60   15.85
   5   5 -26  272.62   12.60
  -5   5  26  268.17   15.23
   5  -5  25    3.75    2.73
   5   5 -25    8.85    2.34
  -5   5  25    8.88    3.39
   5  -5  25    8.78    2.82
   5  -5  25   11.92    2.69
   5  -5  24   -0.63    2.68
   5   5 -24    1.89    1.84
  -5   5  24   -1.94    2.75
   5  -5  24    0.47    2.10
   5  -5  24    0.78    1.82
   5  -5  23   65.98    6.10
   5   5 -23   65.28    5.45
   5  -5  23   71.69    7.37
   5  -5  23   74.50    5.83
  -5   5  23   50.79    6.38
   5  -5  22  428.49   18.24
   5   5 -22  424.83   17.19
   5  -5  22  429.98   19.98
   5  -5  22  431.47   17.36
  -5   5  22  393.76   19.77
   5  -5  21  126.62    8.55
   5   5 -21  139.92    8.12
   5  -5  21  148.58   10.22
   5  -5  21  143.14    8.28
  -5   5  21  121.60    9.63
   5  -5  20   69.08    5.95
   5   5 -20   59.07    5.06
   5  -5  20   56.04    5.03
  -5   5  20   59.66    6.65
   5  -5  19  127.28    8.16
   5   5 -19  123.78    7.41
  -5   5  19  134.74    9.70
   5  -5  19  124.14    7.50
   5  -5  18  357.04   15.07
   5   5 -18  340.70   14.07
  -5   5  18  318.23   16.27
   5  -5  18  338.56   14.01
   5  -5  17  211.95   10.82
   5   5 -17  240.46   10.65
  -5   5  17  231.90   12.70
   5  -5  16   56.76    4.81
   5   5 -16   49.71    4.18
  -5   5  16   59.45    5.78
   5  -5  15   50.95    4.44
   5   5 -15   57.46    4.31
  -5   5  15   55.24    5.42
   5  -5  14  522.50   19.16
   5   5 -14  527.79   18.65
  -5   5  14  558.02   21.25
   5  -5  13  325.51   13.06
  -5   5  13  335.50   14.68
   5   5 -13  336.74   12.77
   5  -5  12   57.99    4.17
   5   5 -12   52.17    3.87
  -5  -5 -12   53.82    3.16
   5  -5  11  199.81    8.82
  -5   5  11  202.26   10.07
   5   5 -11  224.21    8.97
  -5  -5 -11  211.27    7.92
   5  -5  10  135.43    6.42
  -5   5  10  132.11    7.41
   5   5 -10  123.77    6.23
  -5  -5 -10  143.52    5.82
   5  -5   9  661.27   22.33
  -5   5   9  741.43   24.33
   5   5  -9  704.17   22.62
  -5  -5  -9  736.17   21.99
   5  -5   8  124.26    5.72
  -5   5   8  142.29    7.13
   5   5  -8  132.88    6.03
  -5  -5  -8  123.30    5.48
  -5   5   7   40.73    3.46
  -5  -5  -7   43.70    2.81
  -5   5   6  486.61   16.59
  -5  -5  -6  450.29   15.08
  -5   5   5 1521.47   46.03
  -5  -5  -5 1608.21   54.88
  -5  -5  -5 1529.73   44.79
  -5   5   4  107.57    5.64
  -5  -5  -4  103.03    9.36
  -5  -5  -4  108.31    4.94
  -5   5   3 1424.09   42.24
  -5  -5  -3 1344.40   49.68
  -5  -5  -3 1404.38   41.24
  -5   5   2 1634.72   47.45
  -5  -5  -2 1574.77   55.03
  -5  -5  -2 1554.10   46.62
  -5  -5  -2 1609.79   46.48
  -5   5   1  380.03   13.64
  -5  -5  -1  376.00   19.15
  -5  -5  -1  383.35   13.30
  -5  -5  -1  386.05   12.87
  -5  -5   0   23.26    4.13
  -5  -5   0   18.92    2.11
  -5  -5   0   19.49    1.90
  -5  -5   1  365.41   18.36
  -5  -5   1  380.56   13.26
   5   5   1  370.86   12.84
  -5   5  -1  358.87   12.07
  -5  -5   1  368.98   13.23
  -5  -5   2 1604.10   53.63
  -5  -5   2 1525.99   46.32
   5   5   2 1561.05   45.82
  -5   5  -2 1568.51   45.28
  -5  -5   2 1570.62   46.72
  -5  -5   3 1394.44   48.12
  -5  -5   3 1411.09   41.51
   5   5   3 1380.10   40.70
  -5   5  -3 1316.67   40.30
  -5  -5   3 1431.21   42.04
  -5  -5   3 1386.15   40.49
  -5  -5   4  101.59    8.55
  -5  -5   4   99.63    5.39
  -5   5  -4   96.98    4.76
   5   5   4  101.60    4.83
  -5  -5   4  107.75    5.86
  -5  -5   4  114.32    4.96
  -5  -5   5 1504.92   52.79
  -5  -5   5 1616.89   46.59
  -5   5  -5 1498.50   45.36
  -5  -5   5 1599.84   47.17
  -5  -5   5 1531.63   45.15
  -5   5  -6  381.53   13.29
  -5   5  -6  407.61   13.87
  -5  -5   6  421.70   15.09
  -5   5  -6  430.70   14.19
  -5  -5   6  442.08   15.79
  -5  -5   6  430.65   13.89
  -5   5  -7   31.25    2.66
  -5  -5   7   44.47    3.61
  -5   5  -7   36.08    2.83
  -5  -5   7   37.25    3.56
  -5  -5   7   43.07    2.76
  -5   5  -8  135.93    6.68
  -5  -5   8  132.25    7.08
  -5   5  -8  137.33    6.27
  -5  -5   8  134.15    5.77
  -5  -5   8  142.91    7.62
  -5   5  -9  655.06   23.69
  -5  -5   9  747.69   24.36
  -5   5  -9  704.79   22.76
  -5  -5   9  713.72   22.05
  -5  -5   9  736.11   24.83
  -5  -5  10  173.70    8.57
  -5   5 -10  149.25    7.12
  -5  -5  10  155.87    6.47
  -5  -5  10  172.26    8.91
  -5  -5  11  204.32   10.11
  -5   5 -11  200.33    8.84
  -5  -5  11  214.46    8.05
  -5  -5  11  216.16   10.60
  -5  -5  12   69.42    5.43
   5   5  12   57.38    4.17
  -5   5 -12   64.00    4.31
  -5  -5  12   58.92    3.42
  -5  -5  12   63.05    5.32
  -5  -5  13  324.78   14.41
   5   5  13  307.39   12.65
  -5   5 -13  317.49   12.53
  -5  -5  13  317.28   14.44
  -5  -5  13  329.67   11.21
  -5  -5  14  553.19   21.88
   5   5  14  561.41   20.02
  -5  -5  14  531.00   21.59
  -5  -5  14  570.80   17.85
   5   5  15   59.66    4.80
  -5  -5  15   65.96    5.99
   5   5  16   57.03    5.20
   5   5  16   58.12    5.45
  -5  -5  16   50.98    5.48
   5   5  16   52.68    4.73
   5   5  17  238.87   11.84
   5   5  17  239.86   12.03
  -5  -5  17  240.29   12.93
   5   5  17  211.32   10.91
  -5  -5  17  236.37   12.57
   5   5  18  371.22   15.88
   5   5  18  368.14   16.12
  -5  -5  18  339.65   16.92
   5   5  18  336.48   15.12
  -5  -5  18  355.60   16.74
   5   5  19  157.14    9.31
   5   5  19  153.71    9.51
  -5  -5  19  130.65    9.85
   5   5  19  145.72    8.88
  -5  -5  19  153.64    9.99
   5   5  20   69.18    6.15
   5   5  20   74.61    6.50
  -5  -5  20   60.64    6.71
   5   5  20   68.07    6.05
  -5  -5  20   69.62    6.66
   5   5  21  114.76    8.04
   5   5  21  109.36    8.12
  -5  -5  21  105.00    8.92
   5   5  21  127.15    8.33
  -5  -5  21  117.20    8.83
   5   5  22  419.93   18.59
   5   5  22  412.16   18.10
  -5  -5  22  402.15   20.02
   5   5  22  427.71   18.33
  -5  -5  22  452.87   19.73
   5   5  23   70.87    6.41
  -5  -5  23   59.86    7.04
  -5   5 -23   62.99    5.45
   5   5  23   54.08    5.61
  -5  -5  23   55.99    6.05
   5   5  24   -0.49    1.98
  -5  -5  24   -2.61    2.70
  -5   5 -24    1.18    1.80
  -5  -5  24    1.08    1.97
  -5  -5  25    4.47    2.99
   5   5  25    8.23    2.84
  -5   5 -25    8.51    2.33
  -5  -5  25    8.78    3.11
   5   5  26  274.34   13.69
  -5  -5  26  267.99   15.01
  -5   5 -26  271.39   12.66
  -5  -5  26  299.88   14.21
   5   5  27  150.18    9.21
  -5  -5  27  143.06   10.09
  -5   5 -27  135.17    8.12
  -5  -5  27  157.41    9.31
   5   5  28   68.98    5.93
  -5   5 -28   74.34    5.54
   5   5  29   54.96    4.97
   5   5  29   43.84    4.10
   5  -6  29   18.85    3.53
   5  -6  28   44.91    5.26
   5  -6  28   42.24    4.05
   5  -6  27   27.27    4.52
   5  -6  27   23.20    3.45
   5  -6  27   23.72    3.21
   5  -6  26    7.05    2.98
   5   6 -26   11.17    2.44
   5  -6  26   14.20    2.92
   5  -6  26    9.89    2.47
  -5   6  26    5.54    3.06
   5  -6  25   35.64    4.50
   5  -6  25   35.33    5.25
   5   6 -25   27.69    3.65
   5  -6  25   29.99    3.80
  -5   6  25   34.53    5.14
   5  -6  24   14.92    3.71
   5   6 -24   16.07    2.90
  -5   6  24   13.33    3.81
   5  -6  24   18.23    3.33
   5  -6  24   21.23    3.22
   5  -6  23   37.59    4.53
   5  -6  23   39.31    5.47
   5   6 -23   44.74    4.50
  -5   6  23   37.54    5.37
   5  -6  23   35.08    4.12
   5  -6  22   56.83    5.44
   5  -6  22   41.77    5.56
   5   6 -22   35.78    4.22
   5  -6  22   47.97    4.58
  -5   6  22   55.58    6.26
   5  -6  21   53.88    5.24
   5  -6  21   33.39    5.11
   5   6 -21   37.94    4.31
  -5   6  21   49.95    6.08
   5  -6  21   47.95    4.58
   5   6 -20   30.66    3.59
   5  -6  20   23.92    3.73
   5  -6  20   26.73    3.41
  -5   6  20   23.67    4.41
   5  -6  19  136.62    8.34
   5   6 -19  130.08    7.76
   5  -6  19  133.79    7.59
  -5   6  19  128.93    9.48
   5  -6  18  174.99    9.52
   5   6 -18  176.42    9.24
  -5   6  18  172.63   11.02
   5  -6  18  190.54    9.16
   5  -6  17   98.03    6.56
   5   6 -17   91.28    6.09
  -5   6  17   82.11    7.18
   5  -6  17  101.18    6.07
   5  -6  16   49.57    4.42
   5   6 -16   46.91    4.10
  -5   6  16   46.82    5.15
   5  -6  16   45.34    3.91
   5  -6  15   46.76    4.09
   5   6 -15   44.22    3.88
  -5   6  15   46.79    4.95
   5  -6  15   41.69    3.60
   5  -6  14   57.35    4.37
   5   6 -14   54.60    4.27
   5  -6  14   44.81    3.63
  -5   6  14   58.04    5.36
   5  -6  13  102.81    5.92
  -5   6  13  101.50    7.02
   5  -6  13   92.65    5.25
   5   6 -13  111.01    6.13
   5  -6  12   24.78    2.63
   5  -6  12   21.24    2.27
  -5   6  12   21.12    3.06
   5   6 -12   18.01    2.43
  -5  -6 -12   23.13    2.02
  -5   6  11    3.07    1.45
   5  -6  11    1.40    0.98
   5  -6  11    0.21    1.07
   5   6 -11    1.93    1.05
  -5  -6 -11    3.64    0.95
  -5   6  10    2.21    1.48
   5   6 -10    1.61    1.21
  -5  -6 -10    3.34    0.93
  -5   6   9  135.58    7.38
   5   6  -9  135.72    6.68
  -5  -6  -9  143.26    6.07
  -5   6   8   36.60    3.51
   5   6  -8   37.42    3.08
  -5  -6  -8   45.50    2.93
  -5   6   7  106.34    6.06
   5   6  -7  112.33    5.66
  -5  -6  -7  114.89    5.24
  -5   6   6   15.85    2.17
   5   6  -6   12.08    1.78
  -5  -6  -6   15.98    1.75
  -5   6   5  326.99   12.07
   5   6  -5  303.87   11.30
  -5  -6  -5  308.42   11.07
  -5   6   4    4.57    1.33
   5   6  -4    3.20    1.14
  -5  -6  -4    7.55    1.35
  -5   6   3  102.67    5.40
  -5  -6  -3  104.52    5.03
  -5   6   2  131.85    6.24
  -5  -6  -2  126.30    5.92
  -5  -6  -2  131.62    5.81
  -5  -6  -1   65.00    7.55
  -5   6   1   75.50    4.42
  -5   6   1   79.55    3.94
  -5  -6  -1   77.98    4.18
  -5  -6  -1   78.34    4.48
  -5  -6   0   52.53    3.50
  -5   6   0   57.46    3.64
   5   6   0   49.14    3.56
  -5   6   0   46.10    2.93
  -5  -6   0   49.44    3.58
  -5  -6   0   56.54    3.38
  -5  -6   1   65.51    7.37
  -5  -6   1   66.05    4.08
   5   6   1   74.19    4.36
  -5   6  -1   75.46    3.91
  -5  -6   1   64.20    4.28
  -5  -6   1   73.30    3.96
  -5  -6   2  135.42    6.35
   5   6   2  131.45    6.26
  -5   6  -2  127.96    5.81
  -5  -6   2  139.57    6.75
  -5  -6   3  110.67    5.56
   5   6   3  104.33    5.31
  -5   6  -3  101.87    5.08
  -5  -6   3  109.72    5.98
  -5  -6   3  104.61    5.04
  -5  -6   4    5.04    1.36
   5   6   4    4.31    1.26
  -5   6  -4    3.38    1.13
  -5  -6   4    6.62    1.30
  -5  -6   4    4.92    1.68
  -5  -6   5  290.90   11.62
  -5   6  -5  311.25   11.32
  -5  -6   5  301.93   12.39
  -5  -6   5  309.88   10.96
  -5  -6   6   13.58    2.05
  -5   6  -6   15.27    2.06
  -5  -6   6   14.18    2.41
  -5  -6   6   14.68    1.72
  -5  -6   7  104.15    6.00
  -5   6  -7  106.79    5.60
  -5  -6   7  109.60    6.60
  -5  -6   7  113.35    5.21
  -5  -6   8   42.34    3.74
  -5   6  -8   42.64    3.33
  -5  -6   8   40.19    4.00
  -5  -6   8   42.01    2.88
  -5  -6   9  136.71    7.39
  -5   6  -9  122.87    6.44
  -5  -6   9  128.84    5.81
  -5  -6  10    3.93    1.75
  -5   6 -10    2.16    1.14
  -5  -6  10    1.60    0.84
  -5  -6  10    1.45    1.58
  -5  -6  11    1.42    1.20
  -5   6 -11    3.02    1.30
  -5  -6  11   -0.38    1.71
  -5  -6  11    5.29    1.10
  -5  -6  12   24.19    3.34
  -5   6 -12   20.18    2.67
  -5  -6  12   21.46    2.00
  -5  -6  12   25.08    3.49
  -5  -6  13  111.74    7.46
  -5   6 -13   94.79    6.02
  -5  -6  13  111.26    5.11
  -5  -6  13  112.21    7.71
  -5  -6  14   53.02    5.25
  -5   6 -14   53.21    4.32
  -5  -6  14   59.11    5.67
  -5  -6  14   56.94    3.37
   5   6  15   47.17    4.74
   5   6  15   46.69    4.78
  -5   6 -15   40.00    3.80
  -5  -6  15   39.01    4.64
   5   6  16   45.36    4.69
   5   6  16   46.51    4.96
  -5   6 -16   49.66    4.38
  -5  -6  16   51.00    5.37
   5   6  17   95.32    7.05
   5   6  17  104.18    7.49
  -5  -6  17   96.54    7.81
  -5   6 -17   96.78    6.49
   5   6  18  172.52    9.87
   5   6  18  166.94   10.07
  -5  -6  18  156.76   10.60
  -5   6 -18  168.45    9.23
  -5  -6  18  193.35   11.25
   5   6  19  139.49    8.80
   5   6  19  140.86    9.08
  -5  -6  19  133.43    9.81
  -5   6 -19  139.55    8.28
  -5  -6  19  139.67    9.67
   5   6  20   28.80    4.15
   5   6  20   24.06    3.90
  -5  -6  20   23.83    4.47
  -5   6 -20   22.52    3.20
  -5  -6  20   30.77    4.61
   5   6  21   46.03    5.14
   5   6  21   54.24    5.63
  -5  -6  21   56.84    6.40
  -5   6 -21   40.53    4.48
  -5  -6  21   50.79    5.86
   5   6  22   36.34    4.73
   5   6  22   42.96    4.93
  -5  -6  22   31.62    5.13
  -5   6 -22   43.92    4.60
   5   6  23   37.50    4.73
  -5  -6  23   44.11    5.85
  -5   6 -23   48.42    4.87
  -5  -6  23   44.85    5.50
   5   6  24   20.03    3.53
  -5  -6  24   19.79    4.28
  -5   6 -24   15.14    2.96
  -5  -6  24   10.19    2.99
   5   6  25   38.83    4.64
  -5  -6  25   41.63    5.47
  -5   6 -25   32.53    4.04
  -5  -6  25   40.75    5.07
   5   6  26   13.23    3.00
  -5  -6  26   11.25    3.12
  -5   6 -26   12.94    2.69
  -5  -6  26   15.60    3.24
   5   6  27   26.39    3.74
  -5   6 -27   21.84    3.25
  -5  -6  27   25.66    3.76
   5   6  28   40.02    4.37
   5  -7  28   32.60    4.47
   5  -7  27   72.14    6.72
   5  -7  26  394.30   18.36
   5  -7  25    1.17    2.42
   5   7 -25    2.56    2.04
   5  -7  25    1.59    1.73
   5  -7  25    4.40    1.92
   5  -7  24    1.81    2.28
   5   7 -24    1.53    1.71
   5  -7  24    3.47    1.76
   5  -7  24    5.32    2.22
  -5   7  24    3.83    2.38
   5  -7  23   58.04    5.44
   5   7 -23   60.34    5.40
   5  -7  23   56.38    6.37
   5  -7  23   54.67    4.85
  -5   7  23   51.32    6.12
   5  -7  22  264.21   12.39
   5   7 -22  227.85   11.65
   5  -7  22  238.19   13.90
   5  -7  22  237.86   11.27
  -5   7  22  245.05   13.60
   5  -7  21   94.19    6.75
   5   7 -21   84.82    6.46
   5  -7  21   87.71    7.95
   5  -7  21   78.53    5.84
  -5   7  21   96.84    8.08
   5   7 -20   28.51    3.84
   5  -7  20   34.97    3.67
  -5   7  20   25.42    4.55
   5  -7  20   31.30    3.92
   5  -7  19  212.84   10.83
   5   7 -19  220.97   11.07
   5  -7  19  228.65   10.46
  -5   7  19  242.47   13.07
   5  -7  18  170.55    9.30
   5   7 -18  183.26    9.63
   5  -7  18  183.62    8.90
  -5   7  18  203.73   11.57
   5  -7  17   39.38    3.98
   5   7 -17   38.68    3.95
  -5   7  17   36.51    4.79
   5  -7  17   45.75    3.82
  -5   7  16   14.91    3.37
   5  -7  16   12.46    2.24
   5  -7  16   11.37    2.02
   5  -7  15   69.53    4.95
   5   7 -15   72.13    5.31
  -5   7  15   60.54    5.72
   5  -7  15   71.73    4.62
   5  -7  14 1557.85   47.52
  -5   7  14 1637.98   50.35
   5  -7  14 1485.65   46.64
   5   7 -14 1626.10   48.52
  -5   7  13  127.83    7.97
   5   7 -13  124.52    7.04
  -5   7  12   92.76    6.52
   5   7 -12   87.01    5.65
  -5  -7 -12   89.26    4.57
  -5   7  11  493.56   18.70
   5   7 -11  501.27   17.78
  -5  -7 -11  475.34   16.08
  -5   7  10  593.99   22.31
   5   7 -10  617.44   21.66
  -5   7   9  754.17   26.26
   5   7  -9  819.88   25.94
  -5  -7  -9  779.18   24.46
  -5   7   8  123.58    6.80
   5   7  -8  123.96    6.51
  -5  -7  -8  120.59    5.69
  -5   7   7  185.38    8.50
   5   7  -7  177.28    8.15
  -5  -7  -7  185.53    7.59
  -5   7   6  875.55   28.35
   5   7  -6  865.96   28.09
  -5  -7  -6  917.61   27.56
  -5   7   5  441.38   15.78
   5   7  -5  451.62   15.72
  -5  -7  -5  446.28   15.16
  -5   7   4  167.88    7.66
   5   7  -4  180.30    7.72
  -5  -7  -4  177.77    7.42
  -5   7   3  342.71   12.87
   5   7  -3  373.54   12.99
  -5  -7  -3  361.37   12.75
  -5   7   2  563.02   18.99
   5   7  -2  598.87   18.97
  -5   7   2  592.91   18.69
  -5  -7  -2  546.28   19.02
  -5  -7  -2  582.84   18.89
  -5   7   1  599.68   19.22
  -5  -7  -1  564.20   19.06
   5   7  -1  572.17   18.86
  -5   7   1  589.72   18.79
  -5  -7  -1  577.55   19.52
  -5  -7  -1  593.42   19.10
  -5  -7   0   77.52    4.52
  -5   7   0   90.48    4.77
   5   7   0   86.31    5.26
  -5   7   0   90.67    4.60
   5   7   0   89.93    4.53
  -5  -7   0   83.23    5.02
  -5  -7   0   89.93    4.70
  -5  -7   1  512.13   18.58
  -5   7  -1  582.08   18.91
   5   7   1  587.16   19.63
  -5   7  -1  570.28   18.72
   5   7   1  607.98   18.61
  -5  -7   1  569.76   19.65
  -5  -7   1  580.39   18.75
  -5  -7   2  578.11   18.88
   5   7   2  570.61   19.34
  -5   7  -2  561.37   18.71
  -5  -7   2  559.47   19.67
  -5  -7   3  328.30   12.48
   5   7   3  340.78   12.81
  -5   7  -3  362.89   12.68
  -5  -7   3  345.33   13.51
  -5  -7   3  339.42   12.25
  -5  -7   4  174.14    7.81
   5   7   4  184.80    7.96
  -5   7  -4  173.96    7.76
  -5  -7   4  177.01    8.61
  -5  -7   4  169.50    7.34
  -5  -7   5  447.88   16.11
  -5   7  -5  446.27   15.98
  -5  -7   5  461.03   17.25
  -5  -7   5  466.81   15.54
  -5  -7   6  884.60   28.87
  -5   7  -6  925.02   28.80
  -5  -7   6  924.62   30.18
  -5  -7   6  885.41   27.84
  -5  -7   7  181.09    8.27
  -5   7  -7  151.82    7.58
  -5  -7   7  155.70    8.57
  -5  -7   7  166.40    7.07
  -5  -7   8  127.05    6.95
  -5   7  -8  118.85    6.48
  -5  -7   8  124.56    7.53
  -5  -7   8  123.36    5.78
  -5  -7   9  799.53   26.38
  -5   7  -9  760.54   25.47
  -5  -7   9  747.01   26.98
  -5  -7   9  771.57   24.21
  -5  -7  10  655.92   23.11
  -5   7 -10  629.93   22.07
  -5  -7  10  673.86   24.05
  -5  -7  10  635.49   20.67
  -5  -7  11  530.16   19.79
  -5   7 -11  476.42   18.30
  -5  -7  11  543.55   20.58
  -5  -7  11  512.80   16.97
  -5  -7  12   90.45    6.58
  -5   7 -12  101.79    6.13
  -5  -7  12   92.23    4.80
  -5  -7  12   93.74    7.07
  -5  -7  13  112.30    7.71
  -5   7 -13  131.93    7.28
  -5  -7  13  121.13    5.66
  -5  -7  13  111.79    8.03
  -5  -7  14 1658.38   53.89
  -5   7 -14 1721.81   52.14
  -5  -7  14 1659.71   49.33
  -5  -7  14 1736.84   54.69
   5   7  15   84.45    6.41
   5   7  15   84.51    6.53
  -5  -7  15   72.99    6.46
  -5   7 -15   91.73    6.15
  -5  -7  15   94.09    7.43
   5   7  16   11.37    2.97
   5   7  16   17.43    3.04
  -5   7 -16   11.77    2.45
  -5  -7  16    8.12    2.68
   5   7  17   32.35    4.18
   5   7  17   39.24    4.63
  -5  -7  17   40.08    5.13
  -5   7 -17   46.44    4.45
   5   7  18  199.91   10.92
   5   7  18  204.57   11.27
  -5  -7  18  201.77   12.04
  -5   7 -18  201.36   10.46
  -5  -7  18  210.70   12.18
   5   7  19  238.99   11.98
   5   7  19  217.84   11.93
  -5  -7  19  215.19   12.71
  -5   7 -19  223.71   11.33
  -5  -7  19  226.85   12.91
   5   7  20   32.58    4.34
   5   7  20   40.09    4.94
  -5  -7  20   24.84    4.45
  -5   7 -20   36.91    4.32
  -5  -7  20   37.50    5.04
   5   7  21   89.56    6.97
   5   7  21   86.89    7.15
  -5  -7  21   95.80    8.32
  -5   7 -21   92.45    6.86
  -5  -7  21  111.97    8.43
   5   7  22  221.62   12.30
   5   7  22  253.37   12.54
  -5  -7  22  216.97   13.26
  -5   7 -22  258.70   12.28
  -5  -7  22  264.17   13.93
   5   7  23   53.90    5.51
  -5  -7  23   45.72    5.93
  -5   7 -23   57.14    5.34
  -5  -7  23   61.48    6.28
   5   7  24    6.36    2.38
  -5  -7  24    2.26    2.14
  -5   7 -24    4.78    2.02
  -5  -7  24    3.69    2.35
   5   7  25    9.14    2.75
  -5  -7  25    5.89    2.56
  -5   7 -25    4.60    2.08
  -5  -7  25    1.98    2.05
   5   7  26  384.88   16.35
  -5   7 -26  371.15   15.60
  -5  -7  26  383.79   16.85
   5   7  27   67.60    5.55
  -5  -7  27   65.25    5.72
   5   7  28   26.52    3.17
   5   7  28   25.87    3.36
   5  -8  27   10.03    2.80
   5  -8  26   33.15    4.66
   5  -8  25   24.21    4.14
   5  -8  24   23.00    4.30
   5   8 -24   19.97    3.25
   5   8 -23   59.00    5.31
   5  -8  23   63.30    6.58
   5  -8  22   22.15    3.33
   5  -8  22   23.89    3.09
   5  -8  22   18.45    4.02
   5   8 -22   19.33    3.38
  -5   8  21    6.18    2.67
   5  -8  21   11.30    2.48
   5  -8  21    9.61    2.24
   5  -8  21   10.62    3.11
   5   8 -21   12.59    2.81
  -5   8  20   20.65    3.81
   5  -8  20   23.77    3.32
   5  -8  20   19.88    2.90
   5   8 -20   27.55    3.73
  -5   8  19   18.84    3.60
   5  -8  19   16.71    2.81
   5  -8  19   11.28    2.25
   5   8 -19   11.99    2.78
  -5   8  18   26.80    4.22
   5   8 -18   27.39    3.59
  -5   8  17   17.25    3.45
   5   8 -17   25.51    3.57
  -5   8  16    4.12    2.04
   5   8 -16    3.33    1.80
  -5   8  15   52.62    5.20
   5   8 -15   53.35    4.70
  -5   8  14   20.61    3.26
   5   8 -14   21.11    3.09
  -5   8  13  195.37   10.00
   5   8 -13  166.38    8.93
  -5   8  12  267.08   12.28
   5   8 -12  263.19   11.73
  -5  -8 -12  267.24   10.07
  -5   8  11   17.89    2.69
   5   8 -11   17.09    2.69
  -5  -8 -11   15.73    1.90
  -5   8  10   12.56    2.31
   5   8 -10    7.48    1.84
  -5  -8 -10   11.54    1.71
  -5   8   9   46.85    4.06
   5   8  -9   52.61    4.19
  -5  -8  -9   53.90    3.55
  -5   8   8  127.82    7.01
   5   8  -8  143.24    7.34
  -5  -8  -8  137.99    6.37
  -5   8   7   26.92    2.85
   5   8  -7   27.79    3.07
  -5  -8  -7   32.54    2.80
  -5   8   6    6.91    1.50
   5   8  -6    7.62    1.54
  -5  -8  -6    9.35    1.59
   5   8  -5  372.48   13.96
  -5  -8  -5  366.11   13.23
   5   8  -4  187.22    8.41
  -5  -8  -4  189.89    8.10
   5   8  -3   29.90    2.94
  -5  -8  -3   35.33    2.94
   5   8  -2    7.40    1.49
  -5   8   2    4.42    1.15
  -5  -8  -2    4.97    1.54
  -5  -8  -2    3.67    1.35
  -5  -8  -1  154.73    7.72
   5   8  -1  179.57    8.58
   5   8  -1  160.38    7.41
  -5   8   1  177.50    7.53
  -5  -8  -1  180.52    7.65
   5   8   0   70.83    4.92
  -5  -8   0   62.17    4.46
  -5   8   0   67.40    4.17
   5   8   0   66.62    4.09
  -5  -8   0   70.23    4.23
  -5  -8   1  159.00    8.11
   5   8   1  164.13    8.17
  -5   8  -1  171.69    7.65
   5   8   1  174.71    7.42
  -5  -8   1  175.88    7.58
  -5   8  -2    3.77    1.23
   5   8   2    5.52    1.72
  -5  -8   2    5.16    1.68
   5   8   3   33.59    3.22
  -5   8  -3   30.55    2.89
  -5  -8   3   29.51    3.30
   5   8   4  187.62    8.46
  -5   8  -4  174.48    8.17
  -5  -8   4  161.93    8.71
  -5  -8   4  192.92    7.99
  -5   8  -5  372.10   14.04
  -5  -8   5  355.11   14.83
  -5  -8   5  372.76   13.33
  -5   8  -6    8.22    1.71
  -5  -8   6   10.21    1.68
  -5  -8   6    7.68    2.22
  -5   8  -7   28.43    3.18
  -5  -8   7   29.69    3.66
  -5  -8   7   29.89    2.71
  -5   8  -8  140.63    7.53
  -5  -8   8  136.00    8.34
  -5  -8   8  153.18    6.83
  -5   8  -9   46.51    4.15
  -5  -8   9   61.98    5.52
  -5  -8   9   58.54    3.75
  -5   8 -10    9.98    2.10
  -5  -8  10   11.58    1.74
  -5  -8  10    8.47    2.52
  -5   8 -11   17.49    2.70
  -5  -8  11   18.59    3.44
  -5  -8  11   21.58    2.23
  -5   8 -12  279.78   12.33
  -5  -8  12  287.60   13.97
  -5  -8  12  275.27   10.57
  -5  -8  13  186.17   10.16
  -5   8 -13  185.54    9.51
  -5  -8  13  183.92    7.77
  -5  -8  13  187.35   10.86
  -5  -8  14   15.00    3.08
  -5   8 -14   18.81    3.13
  -5  -8  14   18.20    2.09
  -5  -8  14   25.66    4.07
   5   8  15   52.02    5.05
   5   8  15   59.01    5.41
  -5  -8  15   46.08    5.01
  -5   8 -15   40.84    4.38
  -5  -8  15   55.63    5.86
  -5  -8  15   51.10    3.34
   5   8  16    4.45    2.38
   5   8  16    5.49    2.37
  -5   8 -16    4.65    2.11
  -5  -8  16    4.89    2.24
   5   8  17   26.87    4.04
   5   8  17   21.49    3.58
  -5   8 -17   20.74    3.28
  -5  -8  17   18.92    3.54
   5   8  18   36.92    4.52
   5   8  18   26.86    4.09
  -5  -8  18   30.14    4.53
   5   8  19   14.44    3.10
   5   8  19   17.28    3.34
  -5  -8  19   10.85    3.24
  -5   8 -19   16.68    3.12
  -5  -8  19   13.72    3.67
   5   8  20   26.69    3.95
   5   8  20   26.67    4.06
  -5   8 -20   22.77    3.46
  -5  -8  20   28.07    4.72
   5   8  21   10.42    2.76
   5   8  21    7.91    2.54
  -5   8 -21   15.62    2.81
  -5  -8  21   13.66    3.65
   5   8  22   29.82    4.02
   5   8  22   32.04    4.28
  -5   8 -22   34.34    4.26
  -5  -8  22   37.84    5.19
   5   8  23   63.37    5.88
  -5   8 -23   61.37    5.56
  -5  -8  23   76.47    6.94
   5   8  24   21.63    3.57
  -5   8 -24   25.63    3.71
  -5  -8  24   27.05    4.15
   5   8  25   29.63    3.94
  -5   8 -25   20.17    3.25
  -5  -8  25   30.42    4.15
   5   8  26   25.97    3.66
  -5   8 -26   23.29    3.42
  -5  -8  26   26.84    3.83
   5   8  27   16.45    2.72
  -5  -8  27   10.32    2.52
   5  -9  26  128.11    8.63
   5  -9  25   53.68    5.74
   5  -9  24    7.98    2.85
   5  -9  23   77.68    7.21
   5   9 -23   66.07    5.63
   5   9 -22  117.46    7.69
   5  -9  22  123.98    9.21
   5   9 -21   44.93    4.85
   5  -9  21   56.01    6.07
   5   9 -20   75.52    6.03
   5  -9  20   65.13    6.75
   5   9 -19  172.48    9.71
   5   9 -18  184.01   10.09
   5   9 -17  207.51   10.81
   5   9 -16   33.54    4.12
   5   9 -15  157.64    9.00
   5   9 -14  257.97   12.10
   5   9 -13    7.66    2.14
  -5  -9 -13    7.68    1.51
   5   9 -12   31.48    3.71
  -5  -9 -12   29.15    2.67
   5   9 -11   44.54    4.21
  -5  -9 -11   43.90    3.30
   5   9 -10  112.79    6.90
  -5  -9 -10  119.46    5.91
   5   9  -9  519.52   19.17
  -5  -9  -9  517.58   17.63
   5   9  -8  252.65   10.95
  -5  -9  -8  225.33    9.49
   5   9  -7  264.21   11.52
  -5  -9  -7  266.72   10.54
   5   9  -6  287.46   12.05
  -5  -9  -6  294.37   11.32
   5   9  -5  421.44   15.97
  -5  -9  -5  438.33   15.37
   5   9  -4   61.61    4.49
  -5  -9  -4   63.46    4.17
   5   9  -3  106.37    6.06
  -5  -9  -3  114.76    5.93
   5   9  -2  301.22   13.31
   5   9  -2  303.85   12.21
  -5   9   2  322.66   12.14
  -5  -9  -2  335.66   12.28
   5   9  -1  355.43   14.29
   5   9  -1  350.55   13.08
  -5   9   1  331.19   12.79
  -5  -9  -1  342.57   12.94
   5   9   0   50.88    4.47
  -5   9   0   54.34    3.91
   5   9   0   60.16    3.99
  -5  -9   0   52.00    3.87
  -5  -9   1  319.14   13.59
   5   9   1  333.09   13.79
  -5   9  -1  353.04   13.14
   5   9   1  367.77   13.00
  -5  -9   1  326.57   12.76
   5   9   2  321.69   12.90
  -5   9  -2  302.72   12.07
  -5  -9   2  287.78   12.72
  -5  -9   3  107.27    6.78
   5   9   3  112.10    6.49
  -5   9  -3  107.51    6.14
   5   9   4   68.66    4.86
  -5   9  -4   55.85    4.33
  -5  -9   4   55.51    4.87
  -5  -9   4   62.09    4.17
  -5   9  -5  441.68   16.37
  -5  -9   5  437.15   17.42
  -5  -9   5  425.07   15.44
  -5   9  -6  275.65   12.01
  -5  -9   6  292.58   13.28
  -5  -9   6  293.92   11.35
  -5   9  -7  283.28   12.02
  -5  -9   7  260.40   12.75
  -5  -9   7  273.04   10.83
  -5   9  -8  255.99   11.55
  -5  -9   8  271.71   12.86
  -5  -9   8  256.04   10.39
  -5   9  -9  516.35   19.57
  -5  -9   9  526.27   21.21
  -5  -9   9  541.01   18.21
  -5   9 -10  101.95    6.62
  -5  -9  10   99.47    7.56
  -5  -9  10  114.87    5.84
  -5   9 -11   42.01    4.18
  -5  -9  11   43.10    5.04
  -5  -9  11   37.66    3.17
  -5   9 -12   33.06    3.92
  -5  -9  12   30.33    4.49
  -5  -9  12   28.98    2.74
  -5   9 -13    8.04    2.31
  -5  -9  13    6.98    1.52
  -5  -9  13    8.24    3.10
  -5   9 -14  257.18   12.35
  -5  -9  14  266.46   10.22
  -5  -9  14  250.80   13.70
   5   9  15  172.21    9.68
   5   9  15  168.69    9.82
  -5   9 -15  181.90    9.86
  -5  -9  15  163.88    7.26
  -5  -9  15  172.02   10.90
   5   9  16   35.75    4.36
   5   9  16   32.80    4.42
  -5   9 -16   39.85    4.47
  -5  -9  16   36.63    5.07
   5   9  17  205.26   11.11
   5   9  17  213.61   11.48
  -5   9 -17  217.71   11.27
   5   9  18  199.01   10.59
   5   9  18  183.36   10.56
  -5   9 -18  185.22   10.41
   5   9  19  175.49    9.81
   5   9  19  161.37    9.70
  -5   9 -19  151.13    9.27
  -5  -9  19  161.08   10.85
   5   9  20   83.42    6.54
   5   9  20   81.72    6.61
  -5   9 -20   78.90    6.35
  -5  -9  20   83.05    7.51
   5   9  21   52.02    5.12
   5   9  21   49.63    5.17
  -5   9 -21   49.00    5.11
  -5  -9  21   55.06    6.01
   5   9  22  117.93    8.11
  -5   9 -22  126.70    8.17
  -5  -9  22  135.35    9.44
   5   9  23   78.92    6.23
  -5   9 -23   68.21    5.82
  -5  -9  23   80.55    6.94
   5   9  24    8.49    2.35
  -5   9 -24    3.42    1.97
  -5  -9  24    7.31    2.69
   5   9  25   51.80    4.79
  -5   9 -25   54.14    4.94
  -5  -9  25   56.01    5.41
  -5  -9  26  139.97    8.48
   5 -10  25   36.01    4.39
   5 -10  24    1.90    1.91
   5 -10  23    5.04    2.36
   5 -10  22   22.10    3.97
   5  10 -22   15.92    2.95
   5 -10  21   -0.54    2.03
   5  10 -21    1.98    1.89
   5 -10  20    0.54    2.18
   5  10 -20    6.51    2.24
   5  10 -19    4.54    2.13
   5  10 -18    0.83    1.81
   5  10 -17   60.79    5.45
   5  10 -16   11.47    2.51
   5  10 -15    9.69    2.56
   5  10 -14  105.42    7.16
   5  10 -13   15.90    2.90
  -5 -10 -13   13.04    1.90
   5  10 -12   88.31    6.25
  -5 -10 -12   83.43    4.89
   5  10 -11  171.29    9.32
  -5 -10 -11  182.03    8.02
   5  10 -10   11.87    2.57
  -5 -10 -10   10.56    1.87
   5  10  -9    8.04    2.14
  -5 -10  -9    8.73    1.66
   5  10  -8   44.60    4.24
  -5 -10  -8   46.88    3.65
   5  10  -7  320.20   13.09
  -5 -10  -7  284.51   11.61
   5  10  -6   68.70    5.23
  -5 -10  -6   83.33    5.01
   5  10  -5    2.74    1.55
  -5 -10  -5    7.54    1.76
   5  10  -4   13.81    2.36
   5  10  -4   17.72    3.09
  -5 -10  -4   13.25    2.20
   5  10  -3   91.42    6.49
   5  10  -3   87.57    5.63
  -5 -10  -3   92.68    5.50
   5  10  -2   14.14    2.29
  -5  10   2   14.55    2.31
   5  10  -2   13.07    2.84
  -5 -10  -2   13.87    2.21
   5  10  -1    5.00    1.86
  -5  10   1    6.95    1.82
   5  10  -1    6.91    2.07
  -5 -10  -1    6.20    1.65
  -5  10   0    4.48    1.54
   5  10   0    3.85    1.56
   5  10   0    3.90    1.93
  -5 -10   0    5.21    1.78
  -5  10  -1    6.84    1.78
   5  10   1    5.06    1.64
   5  10   1    6.90    2.13
  -5 -10   1    6.70    1.67
  -5  10  -2   13.36    2.36
   5  10   2   16.75    2.72
  -5 -10   2   11.26    2.40
  -5 -10   3   88.08    6.38
   5  10   3   95.77    6.23
  -5  10  -3   94.10    5.91
  -5  10  -4   12.89    2.37
  -5 -10   4   19.09    2.42
  -5 -10   4   10.79    2.41
  -5  10  -5    5.73    1.84
  -5 -10   5    3.62    1.89
  -5  10  -6   74.26    5.48
  -5 -10   6   75.17    4.90
  -5 -10   6   83.57    6.45
  -5  10  -7  293.61   12.81
  -5 -10   7  284.94   13.77
  -5 -10   7  295.67   11.71
  -5  10  -8   35.12    3.86
  -5 -10   8   41.61    4.75
  -5 -10   8   40.63    3.44
  -5  10  -9    6.96    2.15
  -5 -10   9    7.11    2.66
  -5 -10   9    8.72    1.81
  -5  10 -10    7.55    2.34
  -5 -10  10   14.14    2.14
  -5 -10  10   10.36    3.05
  -5  10 -11  175.42    9.47
  -5 -10  11  161.61   10.37
  -5 -10  11  160.81    7.65
  -5  10 -12   93.88    6.62
  -5 -10  12   94.62    7.62
  -5 -10  12   82.10    5.00
  -5  10 -13   17.63    3.10
  -5 -10  13   16.10    2.22
  -5 -10  13   14.14    3.16
  -5  10 -14  114.46    7.66
  -5 -10  14  103.77    5.58
  -5 -10  14  121.46    8.95
   5  10  15    7.08    2.60
   5  10  15    7.15    2.40
  -5  10 -15    5.98    2.40
  -5 -10  15    5.68    2.88
  -5 -10  15   12.15    1.79
   5  10  16    8.47    2.72
   5  10  16    6.74    2.29
  -5  10 -16   10.83    2.54
  -5 -10  16    5.19    3.09
   5  10  17   63.73    5.62
   5  10  17   61.92    5.73
  -5  10 -17   59.02    5.48
   5  10  18    0.41    1.67
   5  10  18    1.33    2.02
  -5  10 -18    3.94    2.26
   5  10  19    5.29    2.11
   5  10  19   10.44    2.76
  -5  10 -19   13.94    3.04
   5  10  20    4.67    2.30
   5  10  20    1.58    1.73
  -5  10 -20    5.15    2.21
  -5 -10  20    3.39    2.75
   5  10  21   -0.82    2.00
   5  10  21    2.29    1.90
  -5  10 -21   -0.42    1.77
  -5 -10  21   -1.09    2.06
   5  10  22   20.27    3.40
  -5  10 -22   20.47    3.25
  -5 -10  22   21.42    3.98
   5  10  23    6.21    2.12
  -5  10 -23   12.15    2.60
  -5 -10  23    7.38    2.59
  -5 -10  24   15.49    3.17
  -5 -10  25   40.89    4.57
   5 -11  23   78.68    6.50
   5 -11  22    6.52    2.53
   5 -11  21   40.00    5.01
   5 -11  20    6.01    2.45
   5  11 -20   10.42    2.45
   5 -11  19   10.63    2.93
   5  11 -19   10.34    2.59
   5  11 -18   25.19    3.78
   5  11 -17  955.75   32.89
   5  11 -16  180.31    9.95
   5  11 -15  172.07    9.71
   5  11 -14  279.22   13.12
   5  11 -13   43.13    4.50
   5  11 -12   10.33    2.59
  -5 -11 -12   12.27    2.03
   5  11 -11   41.26    4.42
  -5 -11 -11   34.56    3.19
   5  11 -10   57.44    5.17
  -5 -11 -10   65.67    4.43
   5  11  -9  660.55   23.38
  -5 -11  -9  615.02   21.34
   5  11  -8   60.36    5.18
  -5 -11  -8   62.82    4.46
   5  11  -7  338.77   14.15
  -5 -11  -7  321.65   12.88
   5  11  -6  479.12   19.73
   5  11  -6  456.76   18.03
  -5 -11  -6  483.74   17.25
   5  11  -5   67.92    6.03
   5  11  -5   60.60    4.96
  -5 -11  -5   63.52    4.57
   5  11  -4    9.91    2.31
   5  11  -4    9.09    2.55
  -5 -11  -4   12.59    2.17
   5  11  -3   59.05    5.52
   5  11  -3   54.54    4.55
  -5 -11  -3   59.14    4.44
   5  11  -2  211.31   11.07
   5  11  -2  201.79    9.66
  -5 -11  -2  215.99    9.58
   5  11  -1 1042.72   34.84
   5  11  -1 1015.27   33.08
  -5  11   1 1037.78   33.12
  -5 -11  -1 1016.36   32.85
   5  11   0  235.05   11.51
  -5  11   0  216.48   10.15
   5  11   0  255.45   10.65
  -5 -11   0  223.11   10.13
   5  11   1 1046.17   34.17
  -5  11  -1  968.74   32.55
  -5 -11   1 1022.28   32.42
  -5 -11   2  194.60   10.17
   5  11   2  200.82   10.15
  -5  11  -2  183.04    9.20
  -5 -11   3   55.81    5.05
   5  11   3   62.63    5.19
  -5  11  -3   53.34    4.54
  -5  11  -4   15.10    2.58
  -5 -11   4   12.97    2.88
  -5 -11   4   12.72    2.30
  -5  11  -5   73.11    5.47
  -5 -11   5   63.57    5.74
  -5 -11   5   65.17    4.66
  -5  11  -6  453.79   18.00
  -5 -11   6  496.40   19.71
  -5 -11   6  456.37   16.97
  -5  11  -7  343.29   14.50
  -5 -11   7  320.65   15.37
  -5 -11   7  334.58   13.16
  -5  11  -8   67.59    5.49
  -5 -11   8   75.29    6.52
  -5 -11   8   60.36    4.52
  -5  11  -9  605.69   23.13
  -5 -11   9  637.79   24.91
  -5 -11   9  640.57   21.61
  -5  11 -10   66.72    5.73
  -5 -11  10   77.26    6.93
  -5 -11  10   70.98    4.75
  -5  11 -11   37.44    4.41
  -5 -11  11   41.28    5.17
  -5 -11  11   39.07    3.41
  -5  11 -12   13.00    2.88
  -5 -11  12   13.83    2.17
  -5 -11  12    9.38    3.24
  -5  11 -13   46.95    4.90
  -5 -11  13   47.35    5.67
  -5 -11  13   39.86    3.48
   5  11  14  290.21   13.46
   5  11  14  276.73   13.48
  -5  11 -14  276.64   13.48
  -5 -11  14  281.74   11.10
  -5 -11  14  324.62   15.78
   5  11  15  173.24    9.58
   5  11  15  153.58    9.33
  -5  11 -15  151.62    9.35
  -5 -11  15  160.03    7.21
  -5 -11  15  161.35   10.76
   5  11  16  195.25   10.55
   5  11  16  193.30   10.70
  -5  11 -16  201.12   10.91
  -5 -11  16  229.82   12.96
   5  11  17  933.76   32.61
   5  11  17  906.34   32.81
  -5  11 -17 1004.76   33.74
  -5 -11  17 1012.60   35.81
   5  11  18   32.22    3.99
   5  11  18   29.42    3.89
  -5  11 -18   35.37    4.39
   5  11  19    8.03    2.37
   5  11  19   15.74    2.89
  -5  11 -19   11.84    2.87
   5  11  20   11.55    2.58
   5  11  20    5.74    2.16
  -5  11 -20    9.02    2.50
  -5 -11  20    4.35    2.55
   5  11  21   43.25    4.42
  -5  11 -21   46.66    4.77
  -5 -11  21   41.99    5.19
  -5  11 -22    2.22    1.69
  -5 -11  22    5.88    2.66
  -5 -11  23   68.79    6.12
  -5 -11  24   15.79    3.09
   5 -12  21    2.92    1.77
   5 -12  20    4.41    2.02
   5 -12  19   10.04    2.64
   5  12 -19    7.37    2.22
   5 -12  18    0.46    1.81
   5  12 -18   -0.38    1.67
   5  12 -17   13.73    2.94
   5  12 -16   19.55    3.36
   5  12 -15    6.04    2.15
   5  12 -14   77.12    6.15
   5  12 -13   88.20    6.58
   5  12 -12    9.21    2.49
  -5 -12 -12   14.18    2.20
   5  12 -11   19.03    3.12
  -5 -12 -11   23.22    2.65
   5  12 -10    1.95    1.74
  -5 -12 -10    1.54    1.30
   5  12  -9    2.31    1.59
  -5 -12  -9    5.85    1.72
   5  12  -8   30.17    3.84
   5  12  -8   24.57    4.04
  -5 -12  -8   27.94    3.07
   5  12  -7   11.80    2.53
   5  12  -7    9.89    3.02
  -5 -12  -7   10.89    2.20
   5  12  -6   14.36    2.84
   5  12  -6   13.59    3.39
  -5 -12  -6   10.50    2.08
   5  12  -5    6.98    2.17
   5  12  -5   14.73    3.48
  -5 -12  -5   12.93    2.26
   5  12  -4   25.09    3.26
   5  12  -4   18.14    3.59
  -5 -12  -4   23.81    2.90
   5  12  -3   68.77    5.20
  -5 -12  -3   62.35    4.74
   5  12  -2   27.54    4.05
   5  12  -2   31.51    3.62
  -5 -12  -2   30.18    3.31
   5  12  -1    0.63    1.44
   5  12  -1    1.73    1.79
  -5 -12  -1    1.46    1.33
  -5 -12  -1    3.22    1.46
  -5  12   0    3.83    1.79
   5  12   0    2.19    1.49
   5  12   0    2.94    2.05
  -5 -12   0    2.67    1.74
  -5 -12   0    3.80    1.87
  -5  12  -1   -0.32    1.64
   5  12   1    0.82    1.74
  -5 -12   1    1.99    1.85
  -5 -12   1    2.05    1.66
  -5  12  -2   31.05    3.56
  -5 -12   2   24.01    3.70
  -5 -12   3   48.61    5.10
  -5  12  -3   61.01    4.97
  -5  12  -4   20.26    3.10
  -5 -12   4   16.48    2.48
  -5 -12   4   21.42    3.54
  -5  12  -5    8.45    2.25
  -5 -12   5   10.39    2.08
  -5 -12   5   11.15    2.98
  -5  12  -6    8.69    2.46
  -5 -12   6   12.60    2.42
  -5 -12   6   12.51    3.02
  -5  12  -7    7.75    2.31
  -5 -12   7   10.51    2.20
  -5 -12   7   15.36    3.21
  -5  12  -8   23.02    3.48
  -5 -12   8   18.72    2.71
  -5 -12   8   23.01    3.96
  -5  12  -9    3.65    2.06
  -5 -12   9    5.51    1.74
  -5 -12   9    5.80    3.08
  -5  12 -10    0.41    1.71
  -5 -12  10    3.22    1.63
  -5 -12  10    1.63    2.18
  -5  12 -11   22.29    3.52
  -5 -12  11   17.13    2.51
  -5 -12  11   21.03    4.14
  -5  12 -12   11.52    2.75
  -5 -12  12   14.22    2.22
  -5 -12  12   15.19    3.69
   5  12  13   93.73    6.78
   5  12  13   91.32    6.89
  -5  12 -13   93.45    7.01
  -5 -12  13   96.18    8.12
  -5 -12  13   98.66    5.56
   5  12  14   81.77    6.26
   5  12  14   83.23    6.45
  -5  12 -14   83.48    6.55
  -5 -12  14   73.07    4.67
  -5 -12  14   80.67    7.40
   5  12  15    3.48    1.85
   5  12  15    2.05    1.79
  -5  12 -15    7.76    2.22
  -5 -12  15    0.58    2.38
   5  12  16   27.43    3.64
   5  12  16   33.61    4.08
  -5  12 -16   21.37    3.61
  -5 -12  16   28.11    4.60
   5  12  17   16.32    2.88
   5  12  17   15.87    3.03
  -5  12 -17   20.60    3.46
  -5 -12  17   12.45    3.52
   5  12  18    2.22    1.77
   5  12  18    0.35    1.35
  -5  12 -18    0.41    1.83
  -5  12 -19   13.03    2.58
  -5  12 -20    3.77    1.91
  -5  12 -21    2.48    1.95
  -5 -12  21    5.76    2.39
  -5 -12  22   17.87    3.32
  -5 -12  23   29.45    3.87
   5  13 -17  445.42   17.59
   5  13 -16   54.92    5.04
   5  13 -15  148.40    8.62
   5  13 -14  156.63    8.95
   5  13 -13   24.03    3.47
   5  13 -13   28.25    4.33
   5  13 -12   26.48    3.68
   5  13 -12   20.71    4.12
  -5 -13 -12   24.90    2.74
   5  13 -11   33.10    4.04
  -5 -13 -11   31.58    3.18
   5  13 -10   13.57    2.81
   5  13 -10   15.10    3.47
  -5 -13 -10   16.05    2.26
   5  13  -9  480.68   19.89
  -5 -13  -9  446.15   16.35
   5  13  -8   76.23    6.79
   5  13  -8   63.65    5.52
  -5 -13  -8   75.62    5.15
   5  13  -7  509.08   21.49
   5  13  -7  506.54   19.69
  -5 -13  -7  526.41   18.85
   5  13  -6  231.50   12.64
   5  13  -6  236.89   11.30
  -5 -13  -6  231.63   10.54
   5  13  -5    6.79    2.07
   5  13  -5    6.94    2.56
  -5 -13  -5    9.69    2.20
   5  13  -4    7.67    2.21
   5  13  -4    5.84    2.47
  -5 -13  -4    7.97    2.14
   5  13  -3   10.61    2.28
   5  13  -3   10.00    3.16
  -5 -13  -3   13.30    2.43
   5  13  -2   60.41    5.76
   5  13  -2   54.32    4.68
  -5 -13  -2   64.44    4.93
   5  13  -1  350.80   15.74
   5  13  -1  380.59   14.71
  -5 -13  -1  340.57   14.01
   5  13   0   65.97    5.85
  -5 -13   0   49.10    4.98
  -5 -13   0   64.27    4.89
   5  13   1  362.65   15.69
  -5  13  -1  356.33   14.50
  -5 -13   1  319.22   14.89
  -5 -13   1  329.37   13.88
  -5  13  -2   51.99    4.68
  -5 -13   2   68.07    5.83
  -5  13  -3    7.13    2.20
  -5 -13   3    5.42    2.29
  -5  13  -4    8.43    2.18
  -5 -13   4    2.42    1.73
  -5 -13   4    6.53    2.57
  -5  13  -5    4.14    1.98
  -5 -13   5    8.44    2.12
  -5 -13   5    6.29    2.36
  -5  13  -6  239.07   11.50
  -5 -13   6  230.31   12.49
  -5 -13   6  224.99   10.37
  -5  13  -7  512.66   19.96
  -5 -13   7  520.64   21.63
  -5 -13   7  509.57   18.69
  -5  13  -8   59.11    5.39
  -5 -13   8   64.42    6.34
  -5 -13   8   63.95    4.79
  -5  13  -9  430.99   17.96
  -5 -13   9  450.19   19.75
  -5 -13   9  439.50   16.43
  -5  13 -10   20.21    3.42
  -5 -13  10   18.91    2.58
  -5 -13  10   16.44    3.77
  -5  13 -11   37.42    4.43
  -5 -13  11   42.13    5.20
  -5 -13  11   35.82    3.43
  -5  13 -12   27.95    3.86
  -5 -13  12   29.79    4.61
  -5 -13  12   26.18    2.92
   5  13  13   25.71    3.60
   5  13  13   25.54    3.49
  -5  13 -13   24.99    3.65
  -5 -13  13   22.35    2.62
  -5 -13  13   28.17    4.48
   5  13  14  149.27    8.54
   5  13  14  143.33    8.59
  -5  13 -14  159.80    9.22
  -5 -13  14  157.47    7.27
  -5 -13  14  169.53   10.77
  -5  13 -15  152.10    8.93
  -5 -13  15  144.62   10.07
  -5  13 -16   56.48    5.33
  -5 -13  16   71.16    6.73
  -5  13 -17  448.62   18.18
  -5 -13  17  461.78   20.08
  -5  13 -18   16.26    2.96
  -5 -13  18    7.72    2.77
  -5  13 -19    2.80    1.77
  -5 -13  21    6.45    2.18
   5  14 -19   10.10    2.64
   5  14 -18    5.35    2.34
   5  14 -17   33.68    4.29
   5  14 -16   13.03    3.26
   5  14 -15   18.19    2.93
   5  14 -15   20.43    3.60
   5  14 -14   18.43    3.01
   5  14 -14   18.61    3.61
   5  14 -13   67.79    6.35
   5  14 -13   72.29    5.66
   5  14 -12   15.92    2.92
   5  14 -12   12.40    3.12
  -5 -14 -12   17.10    2.32
   5  14 -11    7.30    2.26
   5  14 -11   14.57    3.50
  -5 -14 -11    9.81    1.96
   5  14 -10    2.93    1.79
   5  14 -10    2.03    2.57
  -5 -14 -10    5.99    1.67
   5  14  -9   14.62    2.83
   5  14  -9   15.28    3.35
  -5 -14  -9   15.63    2.29
   5  14  -8    2.91    1.98
   5  14  -8    4.59    2.76
  -5 -14  -8    1.99    1.50
   5  14  -7    1.80    1.45
   5  14  -7    2.03    2.66
  -5 -14  -7    2.37    1.39
   5  14  -6    5.73    1.98
   5  14  -6    6.05    2.69
  -5 -14  -6    7.29    1.99
   5  14  -5    0.71    1.58
   5  14  -5    1.99    2.22
  -5 -14  -5    5.58    1.76
   5  14  -4    3.84    1.84
   5  14  -4    8.80    2.98
  -5 -14  -4    5.35    1.94
   5  14  -3    3.81    1.83
   5  14  -3    8.63    2.73
  -5 -14  -3    8.54    2.12
   5  14  -2   10.82    3.22
  -5 -14  -2   11.48    2.46
   5  14  -1   27.74    4.03
  -5 -14  -1   21.99    3.05
  -5 -14   0   -0.32    1.75
  -5 -14   0    1.65    1.65
  -5 -14   1   17.74    2.74
  -5 -14   1   18.86    3.45
  -5  14  -2   13.50    2.58
  -5 -14   2    6.23    2.43
  -5  14  -3    7.91    2.17
  -5 -14   3   11.94    2.66
  -5  14  -4    6.57    2.08
  -5 -14   4    9.28    2.12
  -5 -14   4    7.60    2.54
  -5  14  -5    1.11    1.62
  -5 -14   5    5.19    1.71
  -5 -14   5    1.46    2.13
  -5  14  -6    3.78    1.88
  -5 -14   6    8.71    2.21
  -5 -14   6    8.50    2.76
  -5  14  -7    3.07    1.95
  -5 -14   7    2.65    1.55
  -5 -14   7    1.53    1.99
  -5  14  -8    1.55    1.78
  -5 -14   8    2.59    1.51
  -5 -14   8    1.57    2.33
  -5  14  -9   13.74    2.89
  -5 -14   9   16.76    2.39
  -5 -14   9   14.87    3.42
  -5  14 -10    2.36    1.80
  -5 -14  10    2.68    1.63
  -5 -14  10    6.42    2.85
  -5  14 -11    5.51    2.25
  -5 -14  11    9.18    1.91
  -5  14 -12   17.19    3.12
  -5 -14  12   12.99    2.16
  -5 -14  12   21.01    3.98
  -5  14 -13   73.58    5.85
  -5 -14  13   69.00    4.47
  -5 -14  13   73.69    6.87
  -5  14 -14   10.56    2.48
  -5 -14  14   12.73    3.32
  -5  14 -15   16.48    2.93
  -5 -14  15   17.16    3.58
  -5  14 -16    8.45    2.36
  -5 -14  16    6.07    2.57
  -5  14 -17   24.82    3.33
  -5 -14  17   30.66    4.23
  -5 -14  18    7.41    2.52
   5  15 -17  238.42   11.57
   5  15 -16   41.94    4.55
   5  15 -15  193.25   10.47
   5  15 -14   73.05    6.15
   5  15 -13   30.46    4.32
   5  15 -12    3.79    1.82
   5  15 -12    0.91    2.12
   5  15 -11    0.64    1.37
   5  15 -11    4.64    2.39
  -5 -15 -11    2.97    1.22
   5  15 -10   23.62    3.19
   5  15 -10   27.85    4.22
  -5 -15 -10   24.25    2.75
   5  15  -9  219.76   11.82
   5  15  -9  185.41    9.73
  -5 -15  -9  217.94    9.48
   5  15  -8   97.65    7.56
   5  15  -8  110.00    6.80
  -5 -15  -8  102.99    6.13
   5  15  -7  227.88   12.47
   5  15  -7  243.44   11.25
  -5 -15  -7  252.19   10.85
   5  15  -6   10.74    2.38
   5  15  -6   13.90    3.22
  -5 -15  -6   13.60    2.42
   5  15  -5   69.56    6.32
   5  15  -5   59.96    5.04
  -5 -15  -5   70.69    5.14
   5  15  -4   79.74    6.72
  -5 -15  -4   83.16    5.67
   5  15  -3   28.95    4.20
  -5 -15  -3   29.94    3.49
   5  15  -2   97.96    7.45
  -5 -15  -2  102.37    6.40
  -5 -15  -1  249.13   11.22
  -5 -15   0   93.82    6.10
  -5 -15   1  220.95   11.50
  -5 -15   1  230.46   10.60
  -5 -15   2   85.27    6.73
  -5 -15   3   21.60    3.56
  -5  15  -4   64.96    5.32
  -5 -15   4   68.73    6.15
  -5 -15   4   73.64    5.27
  -5  15  -5   56.88    5.03
  -5 -15   5   69.87    6.26
  -5 -15   5   69.95    5.06
  -5  15  -6   14.23    2.73
  -5 -15   6   15.89    2.44
  -5  15  -7  254.63   11.80
  -5 -15   7  246.68   13.10
  -5 -15   7  251.92   10.98
  -5  15  -8   99.21    6.66
  -5 -15   8   89.63    5.65
  -5 -15   8   85.47    7.17
  -5  15  -9  213.39   10.67
  -5 -15   9  207.34   11.90
  -5 -15   9  228.04    9.84
  -5  15 -10   18.44    3.06
  -5 -15  10   20.20    2.51
  -5 -15  10   24.35    3.99
  -5  15 -11    2.10    1.68
  -5 -15  11    5.94    1.57
  -5 -15  11    4.54    2.56
  -5  15 -12    1.72    1.54
  -5 -15  12    4.43    1.43
  -5 -15  12    3.01    2.19
  -5  15 -13   20.13    3.00
  -5 -15  13   24.63    4.00
  -5  15 -14   69.53    5.40
  -5 -15  14   82.81    6.83
  -5 -15  15  211.74   11.58
  -5 -15  16   38.94    4.61
  -5 -15  17  241.11   12.13
   5  16 -14   -0.36    1.69
   5  16 -13   13.20    2.70
   5  16 -12   71.70    5.95
   5  16 -11   31.49    4.08
   5  16 -10    9.93    2.75
  -5 -16 -10   12.21    1.94
   5  16  -9   21.93    3.62
  -5 -16  -9   18.74    2.47
   5  16  -8    1.46    1.37
   5  16  -8   -0.43    1.96
  -5 -16  -8    3.24    1.52
   5  16  -7   13.86    3.09
  -5 -16  -7   10.97    2.08
   5  16  -6    3.93    2.25
  -5 -16  -6    3.55    1.71
   5  16  -5    0.44    1.86
  -5 -16  -5   -0.28    1.35
  -5 -16  -4   35.36    3.59
  -5 -16  -3    5.87    1.86
  -5 -16  -2   20.55    2.90
  -5 -16  -1    2.69    1.70
  -5 -16   0    0.60    1.37
  -5 -16   1    1.19    1.56
  -5 -16   2   11.36    2.73
  -5 -16   3    4.18    2.04
  -5 -16   4   28.15    3.24
  -5 -16   4   28.47    3.91
  -5 -16   5   -0.84    1.42
  -5 -16   5    0.44    1.72
  -5  16  -6    3.85    1.71
  -5 -16   6    2.46    1.38
  -5 -16   6    4.50    2.36
  -5  16  -7    5.72    1.95
  -5 -16   7    8.98    1.99
  -5 -16   7   12.30    3.11
  -5  16  -8    4.40    1.89
  -5 -16   8    2.03    1.33
  -5 -16   8    1.84    2.05
  -5  16  -9   15.44    2.61
  -5 -16   9   16.72    2.37
  -5 -16   9   15.56    3.18
  -5  16 -10   16.63    2.67
  -5 -16  10   15.49    2.25
  -5 -16  10   13.24    3.01
  -5 -16  11   27.96    2.75
  -5 -16  11   32.12    4.28
  -5 -16  12   70.95    6.16
  -5 -16  13   19.96    3.40
  -5 -16  14    2.93    1.87
   5  17 -11    1.99    1.62
   5  17 -10   89.52    6.24
   5  17  -9   74.24    5.73
   5  17  -8   39.78    4.30
  -5 -17  -8   43.21    3.38
  -5 -17  -7   95.38    5.40
  -5 -17  -6    0.24    1.23
  -5 -17  -5   38.35    3.50
  -5 -17  -4   13.01    2.22
  -5 -17  -3   31.43    3.25
  -5 -17  -2   49.49    4.02
  -5 -17  -1  102.85    6.02
  -5 -17   0   43.53    3.77
  -5 -17   1   94.34    5.73
  -5 -17   4   10.51    2.18
  -5 -17   4   10.15    2.45
  -5 -17   5   39.96    4.36
  -5 -17   5   47.20    3.80
  -5 -17   6   -1.22    1.44
  -5 -17   6    0.39    1.61
  -5 -17   7   79.18    6.28
  -5 -17   7   91.56    5.25
  -5 -17   8   44.09    4.60
  -5 -17   8   45.65    3.55
  -5 -17   9   62.15    4.09
  -5 -17   9   53.92    5.12
  -5 -17  10   68.26    5.79
  -5 -18  -4   20.86    2.48
  -5 -18  -3    6.94    1.61
  -5 -18  -2   13.76    2.12
  -5 -18  -1   75.84    4.74
  -5 -18   0   20.08    2.47
  -5 -18   1   78.71    4.82
  -5 -18   3    5.51    1.53
  -5 -18   4   20.59    2.45
  -6   0   0  270.16   13.69
  -6   0   0  300.90   10.48
  -6   0  -1   -0.15    0.80
  -6   0   1    3.14    1.63
  -6   0  -1    1.41    1.38
  -6   0   1    0.20    0.94
  -6   0   2  289.14   13.73
  -6   0  -2  274.37   13.93
  -6   0  -2  285.99   10.13
  -6   0   2  270.75   10.91
  -6   0   3  130.29    6.88
  -6   0   3  129.19    8.55
  -6   0  -3  145.41    9.39
  -6   0   3  140.43    6.02
  -6   0  -3  135.32    5.93
  -6   0   3  151.77    7.07
  -6   0   4 1261.02   38.73
  -6   0   4 1248.15   42.05
  -6   0  -4 1260.62   43.21
  -6   0   4 1214.97   37.10
  -6   0  -4 1286.24   37.26
  -6   0   4 1251.43   38.73
  -6   0   5  207.35    9.57
  -6   0   5  223.54   12.01
  -6   0  -5  228.92   12.95
  -6   0   5  226.99    8.51
  -6   0   5  221.04    9.80
  -6   0  -5  226.69    8.52
  -6   0   6  244.47   10.74
  -6   0   6  249.89   13.12
   6   0  -6  242.15   14.09
  -6   0  -6  258.51   14.31
  -6   0  -6  269.58    9.62
  -6   0   6  251.42   10.99
  -6   0   6  262.14    9.52
  -6   0   7    6.33    1.78
   6   0  -7    9.09    2.97
  -6   0   7    3.25    1.18
  -6   0  -7    6.29    1.27
  -6   0   7    3.09    1.59
  -6   0   7    4.99    1.67
  -6   0   8  153.85    7.96
  -6   0   8  147.31    9.97
   6   0  -8  166.19   11.53
  -6   0  -8  150.31    6.49
  -6   0   8  158.27    8.17
  -6   0   8  153.22    6.51
  -6   0   9   26.28    3.25
  -6   0  -9   30.71    2.45
  -6   0   9   29.91    4.46
   6   0  -9   31.47    5.16
  -6   0   9   33.13    2.54
  -6   0   9   36.06    3.78
  -6   0  10  152.62    8.28
  -6   0  10  149.45    6.51
  -6   0 -10  154.11    6.53
  -6   0  10  164.86    8.67
  -6   0  11  564.80   20.70
   6   0  11  533.79   19.47
  -6   0 -11  533.82   17.75
  -6   0  11  567.59   17.98
   6   0  11  548.65   19.72
  -6   0  11  564.15   20.90
  -6   0  12 2399.85   73.26
   6   0  12 2521.02   72.12
  -6   0 -12 2335.02   69.48
  -6   0  12 2449.28   69.79
   6   0  12 2417.75   72.17
  -6   0  12 2498.72   73.66
  -6   0  13  249.77   12.34
  -6   0  13  253.21    9.51
   6   0  13  244.94   11.29
   6   0  13  256.91   11.58
  -6   0  13  270.96   12.70
  -6   0  14  938.88   33.23
   6   0  14  965.22   31.70
   6   0  14  938.43   31.76
  -6   0  15   17.17    3.28
   6   0  15   14.99    2.85
   6   0  15   14.11    2.74
  -6   0  16    1.54    1.73
   6   0  16    0.74    1.52
   6   0  16    1.18    1.67
  -6   0  16    2.35    2.33
  -6   0  17   51.44    5.71
   6   0  17   44.82    4.63
   6   0  17   52.56    5.05
  -6   0  17   54.91    5.64
   6   0  18  315.25   13.88
   6   0  18  289.38   13.85
  -6   0  18  304.52   14.85
   6   0  19   46.36    4.93
   6   0  19   34.74    4.31
  -6   0  19   31.94    5.14
   6   0  19   32.94    4.60
  -6   0  19   38.86    4.98
   6   0  20  641.04   24.45
  -6   0  20  578.06   25.90
   6   0  20  617.49   25.20
  -6   0  20  662.98   25.54
   6   0  21  173.34   10.35
  -6   0  21  157.82   11.50
   6   0  21  162.98   10.86
  -6   0  21  184.83   11.14
   6   0  22  266.09   13.72
   6   0  22  270.73   14.67
  -6   0  22  273.22   15.85
   6   0  23   63.91    6.15
   6   0  23   62.38    6.59
  -6   0  23   46.28    6.42
   6   0  24   12.64    3.54
  -6   0  24   11.97    3.96
   6   0  24   16.12    3.42
   6   0  25   16.66    3.73
  -6   0  25   12.57    4.09
   6   0  25    8.93    2.92
   6   0  26    6.35    2.64
  -6   0  26    2.04    2.96
   6   0  26   10.11    3.04
   6   0  27   18.17    3.71
  -6   0  27   14.91    4.07
   6   0  27   19.79    3.53
   6   0  27   15.20    2.95
   6   0  28  260.81   12.82
   6   0  28  261.78   13.70
   6   0  28  258.32   12.01
  -6   0  28  253.63   14.33
   6   0  29   13.77    3.08
   6   0  29    9.51    2.54
   6   0  29    6.88    2.03
  -6   0  29   10.59    3.13
   6   0  30   33.47    3.94
   6   0  30   33.98    3.59
   6  -1  30    3.84    1.86
   6  -1  30    2.61    1.47
   6  -1  29   68.56    5.82
   6  -1  29   70.56    6.43
   6  -1  29   77.75    5.53
  -6   1  29   75.11    7.01
   6  -1  28   48.40    5.02
   6  -1  28   56.99    6.02
   6  -1  28   54.41    4.92
   6  -1  27    1.13    2.19
   6  -1  27    4.08    2.25
   6  -1  27    1.88    1.97
   6  -1  26    3.54    2.30
   6  -1  26    1.90    2.27
   6  -1  26    1.57    2.03
   6  -1  25   43.71    5.69
   6  -1  25   37.24    4.80
   6  -1  24   12.90    3.55
   6  -1  24    8.96    2.96
   6  -1  23  132.17    9.05
   6  -1  23  135.91    9.97
   6  -1  22    7.21    2.81
   6  -1  22    2.96    2.45
   6  -1  21  125.76    8.65
   6  -1  21  131.51    9.55
   6  -1  20  114.76    8.13
   6  -1  20  113.08    8.78
   6  -1  19   71.38    6.14
   6  -1  18   53.72    5.28
  -6   1  18   56.15    5.75
   6  -1  17   99.85    7.23
   6  -1  17  110.95    7.27
  -6   1  17  109.76    7.94
   6  -1  16   12.78    2.74
   6  -1  16   12.29    2.70
  -6   1  16    8.89    2.60
   6  -1  15  191.36    9.74
   6  -1  15  196.07   10.02
   6  -1  14    6.77    2.12
   6  -1  14   12.04    2.69
   6  -1  13  160.72    8.40
   6  -1  13  169.56    8.76
   6  -1  12  150.91    7.89
  -6  -1 -12  153.15    6.47
   6  -1  12  162.30    8.29
  -6   1  12  151.57    8.96
   6  -1  11  248.11   10.45
  -6   1  11  223.58    8.95
   6  -1  11  224.13   10.29
  -6   1  11  226.61   11.24
  -6  -1 -11  244.49    8.92
  -6   1  10  192.04    7.83
   6  -1  10  198.51    8.87
  -6   1  10  176.82   11.57
   6  -1  10  207.60    9.13
  -6  -1 -10  182.53    7.54
  -6   1  10  197.43    9.91
   6  -1   9  127.65    6.52
  -6   1   9  118.50    5.61
  -6   1   9  115.45    8.74
   6  -1   9  130.24    6.67
  -6   1   9  129.55    7.43
  -6  -1  -9  118.80    5.48
  -6  -1  -8    8.41    1.34
  -6   1   8    5.11    1.23
  -6   1   8    3.50    1.70
   6   1  -8    4.49    2.42
  -6   1   8    5.35    1.77
   6   1  -7   21.17    4.26
  -6   1   7   15.11    1.86
  -6   1   7   14.51    2.99
  -6   1   7   16.12    2.64
  -6  -1  -7   15.02    1.74
  -6   1   6  259.80    9.51
  -6   1   6  232.83   12.30
   6   1  -6  246.37   14.58
  -6  -1  -6  269.21   15.11
  -6   1   6  249.30   10.95
  -6  -1  -6  251.20    9.28
  -6   1   5  196.75   10.81
  -6  -1  -5  226.57   13.35
  -6   1   5  222.64    8.34
  -6  -1  -5  208.77    8.10
  -6   1   5  206.73    9.52
  -6   1   4  327.00   14.62
  -6  -1  -4  324.41   16.68
  -6   1   4  334.58   11.60
  -6  -1  -4  338.10   11.48
  -6   1   4  305.07   12.63
  -6   1   3  138.29    8.25
  -6  -1  -3  152.09   10.09
  -6  -1  -3  136.36    5.83
  -6   1   3  126.50    5.84
  -6   1   3  133.68    6.80
  -6   1   2   79.56    5.93
  -6  -1  -2   62.49    6.38
  -6  -1  -2   75.82    3.97
  -6   1   1    2.33    1.42
  -6  -1  -1    2.13    1.64
  -6  -1  -1    3.49    1.11
  -6  -1  -1    3.75    1.08
  -6   1   0   23.20    3.26
  -6  -1   0   24.26    3.94
  -6   1   0   22.98    2.17
  -6  -1   0   23.87    2.08
  -6  -1   0   18.25    2.12
  -6   1  -1    4.83    1.19
  -6  -1   1    4.03    1.97
  -6   1  -1    5.30    1.83
  -6  -1   1    6.36    1.52
  -6  -1   2   77.02    6.66
  -6   1  -2   84.60    6.38
  -6  -1   2   74.67    4.60
  -6   1  -2   78.93    4.19
  -6  -1   3  133.48    6.77
  -6  -1   3  113.79    8.50
  -6   1  -3  128.50    8.36
  -6  -1   3  131.97    5.67
  -6   1  -3  130.40    5.80
  -6  -1   3  125.06    6.49
  -6  -1   4  317.92   12.54
  -6   1  -4  343.41   11.58
  -6  -1   4  314.92   15.48
  -6   1  -4  333.98   15.34
  -6  -1   4  311.52   11.17
  -6  -1   4  306.29   12.38
  -6  -1   5  200.48    9.23
  -6  -1   5  231.94   12.42
  -6   1  -5  183.91   11.25
  -6   1  -5  225.36    8.36
  -6  -1   5  201.39    7.93
  -6  -1   5  211.68    9.38
  -6  -1   6  250.50   10.84
  -6   1  -6  275.02    9.77
  -6  -1   6  248.73   13.62
   6  -1  -6  239.90   13.51
  -6   1  -6  272.17   14.04
  -6  -1   6  267.90   11.19
  -6  -1   6  248.24    9.39
  -6  -1   7   14.05    2.30
   6  -1  -7   12.47    3.08
  -6  -1   7   10.74    1.60
  -6   1  -7   14.51    1.75
  -6  -1   7    8.42    2.53
  -6  -1   7   17.51    2.55
  -6  -1   8    4.37    1.66
  -6  -1   8    6.73    1.27
  -6   1  -8    5.62    1.23
  -6  -1   8    7.05    2.36
   6  -1  -8    3.18    1.96
  -6  -1   8    7.42    2.05
  -6  -1   9  129.38    7.18
  -6   1  -9  112.58    5.48
   6  -1  -9  124.47    9.96
  -6  -1   9  121.13    5.49
  -6  -1   9  126.72    7.29
  -6  -1  10  205.97   10.04
  -6   1 -10  205.93    8.08
   6  -1 -10  188.32   13.00
  -6  -1  10  199.82   10.08
  -6  -1  10  204.44    7.97
  -6  -1  11  219.75   10.85
  -6  -1  11  220.35   10.99
  -6  -1  11  229.05    8.66
  -6  -1  12  153.65    8.83
   6   1  12  154.82    8.19
   6   1  12  165.14    8.49
  -6  -1  12  156.49    6.63
  -6  -1  12  154.98    9.00
  -6  -1  13  171.91    9.59
   6   1  13  151.92    8.36
  -6  -1  13  170.08    6.90
   6   1  13  151.46    8.54
  -6  -1  13  166.02    9.41
  -6  -1  14    8.43    2.46
   6   1  14    8.49    2.35
   6   1  14   10.07    2.47
  -6  -1  14   10.04    1.45
  -6  -1  15  175.79   10.35
   6   1  15  178.24    9.33
   6   1  15  163.09    9.17
  -6  -1  16   10.23    2.92
   6   1  16   11.28    2.71
   6   1  16   14.02    3.04
  -6  -1  17  113.14    8.48
   6   1  17  107.81    7.28
  -6  -1  17  104.74    7.81
   6   1  18   49.90    5.15
   6   1  18   45.93    5.12
  -6  -1  18   51.41    6.09
   6   1  18   48.54    5.19
  -6  -1  18   49.00    5.55
   6   1  19   71.82    6.06
   6   1  19   60.44    5.78
  -6  -1  19   54.70    6.53
   6   1  19   60.42    6.06
  -6  -1  19   78.14    6.89
   6   1  20  114.28    8.14
   6   1  20  112.31    7.82
  -6  -1  20  121.38    9.49
   6   1  20  108.91    8.34
  -6  -1  20  101.81    8.24
   6   1  21  119.53    8.63
  -6  -1  21  122.49    9.99
   6   1  21  140.16    9.66
  -6  -1  21  146.09    9.70
   6   1  22    3.51    2.39
  -6  -1  22    0.69    2.76
   6   1  22    2.87    2.50
  -6  -1  22    3.34    2.48
   6   1  23  112.12    8.48
  -6  -1  23  124.77   10.11
   6   1  23  113.07    8.89
  -6  -1  23  136.34    9.45
   6   1  24    7.59    2.90
   6   1  24    6.08    2.71
  -6  -1  24    4.90    3.20
   6   1  25   36.77    5.23
  -6  -1  25   36.73    5.62
   6   1  25   39.45    5.00
   6   1  26    3.90    2.24
  -6  -1  26    6.74    3.15
   6   1  26    3.87    2.36
   6   1  27    1.06    1.93
  -6  -1  27   -0.64    2.73
   6   1  27    0.92    2.25
   6   1  28   63.65    5.79
   6   1  28   57.67    5.97
   6   1  28   66.96    5.40
  -6  -1  28   66.11    6.85
   6   1  29   71.10    5.86
   6   1  29   69.98    6.22
   6   1  29   73.89    5.46
  -6  -1  29   59.58    6.46
   6   1  30    2.85    1.74
   6   1  30    4.72    1.80
   6  -2  29   94.71    6.77
   6  -2  29  101.04    7.81
   6  -2  29  114.85    6.74
  -6   2  29   95.57    8.00
   6  -2  28  178.94   10.05
   6  -2  28  179.70   11.14
   6  -2  28  194.36    9.62
  -6   2  28  180.87   11.74
   6  -2  27   74.00    6.28
   6  -2  27   70.37    6.87
   6  -2  27   71.78    5.67
  -6   2  27   52.56    6.47
   6  -2  26    7.74    3.14
  -6   2  26   13.31    3.74
   6  -2  26   14.92    3.13
   6  -2  26   11.96    2.83
   6  -2  25   27.57    4.75
  -6   2  25   24.08    5.02
   6  -2  25   25.48    3.82
   6  -2  25   22.66    3.82
   6  -2  24    1.86    2.70
   6  -2  24    2.45    2.24
  -6   2  24    4.18    2.96
   6  -2  23   74.79    6.58
   6  -2  23   65.71    6.97
  -6   2  23   70.93    7.64
   6  -2  22  252.46   13.30
   6  -2  22  289.04   15.14
  -6   2  22  261.01   15.34
   6  -2  21  238.15   12.40
   6  -2  21  215.56   13.05
  -6   2  21  228.81   13.93
  -6   2  20  881.96   34.56
   6  -2  20  922.00   32.30
  -6   2  19   77.59    7.63
   6  -2  19   98.90    7.22
  -6   2  18  245.66   14.07
   6  -2  18  265.30   12.77
  -6   2  17  119.80    8.91
   6  -2  17  124.64    7.99
  -6   2  16   14.49    3.21
   6  -2  16   13.79    2.72
  -6   2  15    7.73    2.72
   6  -2  15    9.75    2.35
   6  -2  15   13.80    2.51
  -6   2  14  352.70   15.85
   6  -2  14  346.70   14.16
   6  -2  14  345.16   14.43
  -6   2  13  114.50    7.80
   6  -2  13  116.31    6.78
   6  -2  13  119.82    7.02
  -6   2  12 1501.54   48.15
   6  -2  12 1560.89   46.60
   6  -2  12 1555.31   46.88
  -6  -2 -12 1470.81   44.42
  -6   2  12 1529.93   48.39
  -6   2  11  127.19    7.75
   6  -2  11  133.67    6.94
   6  -2  11  126.83    6.92
  -6  -2 -11  125.16    5.65
  -6   2  11  134.93    8.05
  -6   2  10   95.90    6.27
   6  -2  10   86.42    5.35
  -6   2  10   94.22    7.77
   6  -2  10   96.09    5.68
  -6  -2 -10  100.02    4.74
  -6   2  10  101.41    6.64
  -6   2   9  124.10    7.14
   6  -2   9  128.72    6.44
  -6   2   9  121.70    8.65
   6  -2   9  112.88    6.26
  -6   2   9  131.46    7.54
  -6  -2  -9  126.17    5.59
  -6   2   8   18.27    2.56
   6  -2   8   20.86    2.34
  -6   2   8   24.31    2.28
   6  -2   8   23.51    2.55
  -6   2   8   21.30    3.52
  -6  -2  -8   23.81    2.12
  -6   2   7   65.59    4.63
   6  -2   7   51.45    3.60
  -6   2   7   60.43    5.47
   6  -2   7   59.63    3.93
  -6   2   7   61.77    3.69
   6   2  -7   47.52    6.49
  -6  -2  -7   57.99    3.42
  -6   2   6  474.19   17.34
  -6   2   6  481.82   16.00
  -6   2   6  476.46   18.96
  -6  -2  -6  447.38   22.35
   6   2  -6  456.85   22.58
  -6  -2  -6  489.82   15.73
  -6   2   5  278.62   11.64
  -6   2   5  291.93   10.68
  -6   2   5  272.52   12.82
  -6  -2  -5  298.31   16.39
  -6  -2  -5  299.46   10.41
  -6   2   4 1515.54   45.74
  -6   2   4 1520.70   44.40
  -6   2   4 1448.57   47.15
  -6  -2  -4 1522.78   52.18
  -6  -2  -4 1497.39   44.00
  -6   2   3  523.33   18.39
  -6   2   3  529.55   17.34
  -6   2   3  509.96   19.49
  -6  -2  -3  497.15   22.89
  -6  -2  -3  545.15   17.05
  -6   2   2  731.81   25.74
  -6  -2  -2  705.14   29.29
  -6  -2  -2  772.19   23.25
  -6   2   1  268.70   11.61
  -6  -2  -1  239.22   13.88
  -6  -2  -1  247.38    9.46
  -6  -2  -1  255.61    9.27
  -6   2   0  351.23   14.50
  -6   2   0  356.71   12.55
  -6  -2   0  376.84   17.81
  -6  -2   0  350.74   12.71
  -6  -2   0  365.78   12.27
  -6   2  -1  250.67    9.35
  -6   2  -1  246.86   11.24
  -6  -2   1  252.56   13.69
  -6  -2   1  231.31    9.54
  -6   2  -2  741.61   22.97
  -6  -2   2  685.15   27.98
  -6   2  -2  744.10   25.75
  -6  -2   2  720.19   23.60
  -6  -2   3  521.89   18.43
  -6   2  -3  514.88   17.34
  -6  -2   3  536.39   22.56
  -6   2  -3  557.55   20.53
  -6  -2   3  536.30   18.30
  -6  -2   3  528.90   17.03
  -6  -2   4 1429.66   45.85
  -6   2  -4 1510.67   44.73
  -6  -2   4 1534.44   51.02
  -6   2  -4 1534.66   48.59
  -6  -2   4 1507.98   45.93
  -6  -2   4 1560.05   44.40
  -6  -2   5  250.73   10.85
  -6   2  -5  261.33    9.94
  -6  -2   5  254.93   14.21
  -6   2  -5  278.00   13.19
  -6  -2   5  265.49   11.09
  -6  -2   5  273.60    9.69
  -6  -2   6  488.80   17.54
  -6   2  -6  491.78   16.26
  -6  -2   6  490.20   21.63
  -6   2  -6  492.22   20.23
   6  -2  -6  450.36   19.97
  -6  -2   6  481.75   15.83
  -6  -2   6  486.00   17.70
  -6  -2   7   56.27    4.28
  -6   2  -7   50.63    3.35
  -6  -2   7   52.38    5.92
   6  -2  -7   53.29    5.60
  -6  -2   7   54.20    3.29
  -6  -2   7   38.20    3.78
  -6  -2   8   23.77    2.94
   6  -2  -8   29.12    4.45
  -6  -2   8   27.12    3.20
  -6  -2   8   24.38    2.18
  -6  -2   9  130.27    7.36
   6  -2  -9  127.06    9.68
  -6  -2   9  121.66    7.22
  -6  -2   9  124.70    5.62
  -6  -2  10   75.30    5.68
   6  -2 -10   79.71    7.87
  -6  -2  10   83.67    6.01
  -6  -2  11  132.72    8.04
   6  -2 -11  148.08   11.18
  -6  -2  11  145.62    6.22
  -6  -2  11  141.02    8.22
  -6  -2  12 1572.02   50.05
  -6  -2  12 1612.97   46.50
  -6  -2  12 1525.66   50.08
  -6  -2  13  104.37    7.32
   6   2  13   96.66    6.50
   6   2  13  120.49    7.24
  -6  -2  13  100.84    4.97
  -6  -2  13  106.09    7.31
  -6  -2  14  343.30   15.57
   6   2  14  327.40   14.29
   6   2  14  334.75   14.58
  -6  -2  14  349.77   12.00
  -6  -2  14  342.93   15.48
   6   2  15    9.38    2.57
   6   2  15    8.86    2.35
   6   2  16   12.75    2.85
   6   2  16    9.28    2.52
  -6  -2  16   12.84    3.02
   6   2  17  129.47    8.07
   6   2  17  115.08    7.87
  -6  -2  17  116.71    8.98
   6   2  17  115.20    7.85
   6   2  18  253.49   12.53
   6   2  18  257.95   12.87
  -6  -2  18  233.34   13.68
   6   2  18  267.63   13.25
  -6  -2  18  262.67   13.71
   6   2  19   92.34    7.02
   6   2  19   85.78    6.90
  -6  -2  19   70.90    7.33
   6   2  19   86.01    7.08
  -6  -2  19   92.51    7.60
   6   2  20  923.91   32.11
   6   2  20  892.64   32.42
  -6  -2  20  862.63   34.20
   6   2  20  908.23   32.96
  -6  -2  20  903.76   33.34
   6   2  21  240.53   12.74
  -6  -2  21  222.46   13.99
   6   2  21  234.38   12.98
  -6  -2  21  238.37   13.32
   6   2  22  257.97   13.78
  -6  -2  22  265.88   15.58
   6   2  22  289.50   14.91
  -6  -2  22  307.27   15.23
   6   2  23   74.36    6.73
  -6  -2  23   69.02    7.52
   6   2  23   68.76    6.82
  -6  -2  23   84.19    7.37
  -6  -2  24    0.69    2.86
   6   2  24    1.02    1.98
   6   2  24    0.56    2.03
  -6  -2  24    1.09    2.05
   6   2  25   24.08    4.25
  -6  -2  25   26.64    5.11
   6   2  25   22.94    4.09
   6   2  26    9.52    3.01
  -6  -2  26   10.58    3.36
   6   2  26    7.72    2.95
   6   2  27   64.65    6.02
   6   2  27   67.22    6.30
  -6  -2  27   52.25    6.45
   6   2  28  187.96   10.39
   6   2  28  181.03    9.48
  -6  -2  28  185.86   11.78
   6   2  29  105.48    7.31
   6   2  29  124.02    7.17
  -6  -2  29  124.69    8.97
   6  -3  29   38.12    4.21
   6  -3  29   41.50    4.83
   6  -3  29   44.49    4.04
  -6   3  29   39.29    5.15
   6  -3  28   36.47    4.29
   6  -3  28   40.51    5.14
   6  -3  28   45.91    4.30
  -6   3  28   38.40    5.28
   6  -3  27   38.08    4.45
   6  -3  27   32.18    4.76
  -6   3  27   31.12    5.20
   6  -3  27   35.15    3.95
   6  -3  26   50.67    5.30
   6  -3  26   55.75    6.28
   6  -3  26   54.61    5.03
  -6   3  26   47.77    6.23
   6  -3  25   63.96    6.09
   6  -3  25   67.96    7.18
   6  -3  25   83.56    6.19
  -6   3  25   72.40    7.54
   6  -3  24   54.83    5.66
   6  -3  24   71.54    7.23
   6  -3  24   72.75    5.86
  -6   3  24   58.07    6.95
   6  -3  23  190.13   10.97
   6  -3  23  204.42   12.50
   6  -3  23  184.03   10.13
  -6   3  23  175.85   12.28
   6  -3  22  101.90    7.67
   6  -3  22  112.02    8.88
  -6   3  22   86.16    8.34
   6  -3  21  154.37    9.53
   6  -3  21  155.92   10.50
  -6   3  21  131.40   10.36
   6  -3  20   24.34    3.85
  -6   3  20   23.18    4.30
  -6   3  19   56.68    6.53
   6  -3  19   67.99    5.92
  -6   3  18   18.25    3.85
   6  -3  18    6.33    2.26
  -6   3  17   16.18    3.71
   6  -3  17   15.99    3.00
  -6   3  16   69.11    6.53
   6  -3  16   65.16    5.38
  -6   3  15  376.90   16.83
   6  -3  15  355.04   14.97
  -6   3  14   36.35    4.49
   6  -3  14   40.44    3.91
  -6   3  13   78.31    6.28
   6  -3  13   81.04    5.57
   6  -3  13   82.43    5.47
  -6   3  12  157.85    9.10
   6  -3  12  164.87    7.96
   6  -3  12  143.10    7.79
  -6  -3 -12  164.49    6.66
  -6   3  11   26.96    3.49
   6  -3  11   26.84    2.84
   6  -3  11   30.85    3.13
  -6  -3 -11   28.24    2.31
  -6   3  10   28.90    3.49
   6  -3  10   33.17    3.07
   6  -3  10   32.18    3.12
  -6  -3 -10   31.47    2.46
  -6   3   9   14.64    2.50
   6  -3   9   10.00    1.79
   6  -3   9   11.33    1.92
  -6  -3  -9   13.23    1.63
  -6   3   8    4.19    1.37
   6  -3   8    0.78    1.11
   6  -3   8    1.04    1.08
  -6  -3  -8    1.83    0.95
  -6   3   7   29.67    3.23
   6  -3   7   28.39    2.56
  -6   3   7   28.36    3.52
   6  -3   7   33.18    2.78
  -6  -3  -7   32.48    2.45
  -6   3   6  143.09    7.43
   6  -3   6  141.35    6.30
  -6   3   6  138.71    7.99
   6  -3   6  146.51    6.50
  -6  -3  -6  143.00   11.47
  -6  -3  -6  156.05    6.32
  -6   3   5  154.06    7.44
   6  -3   5  131.59    5.95
  -6   3   5  162.48    8.12
   6  -3   5  129.37    6.02
  -6  -3  -5  148.00   11.42
  -6  -3  -5  146.70    6.12
  -6   3   4  439.63   16.07
  -6   3   4  445.73   16.58
  -6  -3  -4  474.18   22.15
  -6  -3  -4  434.19   14.59
  -6   3   3   98.84    5.84
  -6   3   3  105.81    6.03
  -6  -3  -3  117.74    9.61
  -6  -3  -3  107.00    4.97
  -6   3   2   41.29    3.56
  -6   3   2   44.59    3.54
  -6  -3  -2   48.29    6.00
  -6  -3  -2   40.30    2.81
  -6   3   1  192.55    8.40
  -6  -3  -1  182.15   12.02
  -6  -3  -1  185.86    7.22
  -6  -3  -1  165.76    7.29
  -6   3   0  595.24   20.57
  -6  -3   0  621.53   26.03
  -6  -3   0  576.24   19.77
  -6  -3   0  647.90   19.48
  -6   3  -1  217.42    9.19
  -6  -3   1  196.64   12.48
  -6  -3   1  197.22    8.48
  -6  -3   2   45.06    3.58
  -6   3  -2   43.95    3.65
  -6  -3   2   39.42    5.26
  -6  -3   2   39.97    3.28
  -6  -3   3  100.33    5.74
  -6  -3   3  116.45    8.98
  -6   3  -3  108.98    6.27
  -6  -3   3   97.12    5.59
  -6  -3   3   98.38    4.79
  -6  -3   4  458.62   16.35
  -6  -3   4  439.35   20.61
  -6   3  -4  427.05   17.01
  -6  -3   4  448.28   16.22
  -6  -3   4  453.18   14.85
  -6  -3   5  146.96    7.39
  -6  -3   5  145.70   10.46
  -6   3  -5  134.37    8.05
  -6  -3   5  148.23    7.49
  -6  -3   5  149.68    6.26
  -6  -3   6  152.24    7.67
  -6   3  -6  149.16    8.80
  -6  -3   6  152.28    7.81
  -6  -3   6  154.46    6.44
  -6  -3   7   30.91    3.24
   6  -3  -7   29.08    3.95
  -6   3  -7   31.20    3.97
  -6  -3   7   31.90    3.39
  -6  -3   7   32.64    2.47
  -6  -3   8    3.57    1.48
  -6  -3   8    1.41    0.91
  -6  -3   8   -0.32    1.35
  -6  -3   9   10.74    2.13
  -6  -3   9   11.53    1.56
  -6  -3   9   13.50    2.42
  -6  -3  10   30.33    3.57
  -6   3 -10   33.44    4.10
  -6  -3  10   29.93    2.42
  -6  -3  10   28.58    3.63
  -6  -3  11   24.55    3.34
  -6   3 -11   23.03    3.61
  -6  -3  11   24.79    2.22
  -6  -3  11   21.54    3.34
  -6  -3  12  176.21    9.51
  -6  -3  12  158.30    6.68
  -6  -3  13   91.88    6.66
  -6  -3  13   79.36    4.29
  -6  -3  13   85.27    6.55
  -6  -3  14   43.68    4.87
   6   3  14   46.09    4.45
   6   3  14   34.96    4.17
  -6  -3  14   46.79    5.18
  -6  -3  14   45.39    3.02
   6   3  15  359.34   15.32
   6   3  15  375.95   15.73
  -6  -3  15  349.51   16.31
   6   3  15  342.13   14.91
  -6  -3  15  353.39   16.23
   6   3  16   75.87    6.09
   6   3  16   84.66    6.58
   6   3  16   80.91    6.16
  -6  -3  16   73.80    6.74
   6   3  17   17.45    3.30
   6   3  17   19.48    3.43
  -6  -3  17   17.05    3.67
   6   3  17   17.06    3.17
   6   3  18   13.40    3.02
   6   3  18    8.29    2.85
  -6  -3  18    9.31    3.06
   6   3  18    9.96    2.77
  -6  -3  18    7.46    2.99
   6   3  19   68.33    6.12
   6   3  19   77.23    6.62
  -6  -3  19   73.61    7.23
   6   3  19   80.97    6.74
  -6  -3  19   70.34    6.78
   6   3  20   23.10    4.07
   6   3  20   25.69    3.89
  -6  -3  20   31.08    4.72
   6   3  20   21.88    3.73
  -6  -3  20   36.60    5.05
   6   3  21  156.46    9.68
   6   3  21  172.53   10.37
  -6  -3  21  152.00   11.04
   6   3  21  159.67   10.10
  -6  -3  21  138.00   10.01
   6   3  22   97.72    7.68
  -6  -3  22   88.78    8.43
   6   3  22   96.26    7.72
  -6  -3  22   90.14    7.83
   6   3  23  191.81   11.13
  -6  -3  23  182.46   12.30
   6   3  23  176.25   10.98
  -6  -3  23  175.98   11.31
   6   3  24   60.08    6.06
  -6  -3  24   59.60    7.03
   6   3  24   61.63    6.25
  -6  -3  24   65.09    6.53
   6   3  25   64.70    6.35
  -6  -3  25   78.43    7.75
   6   3  25   68.47    6.49
  -6  -3  25   80.09    7.03
  -6  -3  26   53.79    6.47
  -6  -3  27   25.44    4.81
  -6  -3  28   43.23    5.52
  -6  -3  29   36.61    4.83
   6  -4  28  176.73    8.74
  -6   4  28  164.80   10.53
   6  -4  28  152.20    8.93
  -6   4  27  151.57   10.56
   6  -4  27  161.33    8.75
   6  -4  27  177.93    9.69
  -6   4  26   36.34    5.61
   6  -4  26   45.68    4.58
   6  -4  26   52.41    5.20
  -6   4  25   11.59    3.78
   6  -4  25   12.68    3.08
   6  -4  25   14.62    2.78
  -6   4  24   13.25    3.99
   6  -4  24   10.39    2.50
   6  -4  24    9.31    2.85
   6  -4  23  161.53    9.10
  -6   4  23  157.60   11.31
   6  -4  23  160.44    9.83
   6  -4  22  191.76   10.16
  -6   4  22  190.68   12.66
   6  -4  22  195.83   11.04
  -6   4  21  427.35   20.74
   6  -4  21  443.55   17.79
   6  -4  21  445.06   18.75
  -6   4  20  276.13   15.39
   6  -4  20  278.43   13.53
  -6   4  19   26.85    4.80
   6  -4  19   36.33    4.41
  -6   4  18   56.13    6.28
   6  -4  18   58.29    5.32
  -6   4  17   38.97    5.00
   6  -4  17   40.69    4.33
  -6   4  16   74.50    6.72
   6  -4  16   82.06    6.01
   6  -4  15    9.29    2.24
  -6   4  15   10.34    2.93
  -6   4  14  490.10   20.07
   6  -4  14  476.67   18.10
  -6   4  13  166.31    9.73
   6  -4  13  173.95    8.61
  -6   4  12 1234.20   40.82
   6  -4  12 1195.16   38.71
  -6  -4 -12 1279.07   37.14
  -6   4  11  403.24   16.64
   6  -4  11  391.09   15.01
  -6  -4 -11  431.29   14.05
  -6   4  10  194.56    9.84
   6  -4  10  199.16    8.67
  -6  -4 -10  195.14    7.75
  -6   4   9   72.96    5.26
   6  -4   9   64.95    4.07
   6  -4   9   57.96    3.98
  -6  -4  -9   63.79    3.66
  -6   4   8   16.13    2.51
   6  -4   8   13.78    1.80
   6  -4   8   14.12    1.82
  -6  -4  -8   11.74    1.61
  -6   4   7  686.48   23.95
  -6  -4  -7  713.98   22.11
  -6   4   6  534.85   18.79
  -6  -4  -6  516.78   17.03
  -6   4   5  326.11   12.79
  -6  -4  -5  317.41   11.32
  -6   4   4 1688.93   50.41
  -6  -4  -4 1654.42   48.72
  -6   4   3  752.96   24.00
  -6  -4  -3  694.42   30.34
  -6  -4  -3  698.27   22.33
  -6   4   2  439.44   15.79
  -6   4   2  415.09   14.09
  -6  -4  -2  412.91   21.26
  -6  -4  -2  451.47   14.57
  -6   4   1  517.38   16.96
  -6  -4  -1  576.62   25.35
  -6  -4  -1  562.92   17.73
  -6  -4  -1  571.13   18.13
  -6   4   0  143.97    5.61
  -6  -4   0  137.51   10.67
  -6  -4   0  152.94    6.34
  -6  -4   0  142.74    6.67
  -6   4  -1  520.75   16.40
  -6  -4   1  551.83   24.32
  -6  -4   1  517.20   17.15
  -6  -4   1  562.87   18.26
  -6  -4   2  407.42   15.17
  -6   4  -2  407.56   13.47
  -6  -4   2  437.93   20.69
  -6  -4   2  426.81   15.13
  -6  -4   3  732.18   24.22
  -6   4  -3  717.55   22.74
  -6  -4   3  736.73   22.89
  -6  -4   3  750.53   24.29
  -6  -4   4 1599.60   49.06
  -6   4  -4 1604.50   48.14
  -6  -4   4 1666.04   47.61
  -6  -4   4 1607.64   49.42
  -6  -4   5  324.00   12.51
  -6   4  -5  290.17   11.93
  -6  -4   5  318.81   11.09
  -6  -4   5  298.36   12.47
  -6  -4   6  489.97   18.08
  -6   4  -6  482.86   17.59
  -6   4  -6  523.11   18.59
  -6  -4   6  515.02   16.64
  -6  -4   6  523.71   18.70
  -6  -4   7  670.18   23.58
  -6   4  -7  700.29   23.61
  -6   4  -7  681.85   24.46
  -6  -4   7  705.49   24.18
  -6  -4   7  705.52   21.89
  -6  -4   8   11.77    2.20
  -6  -4   8   17.27    1.87
  -6  -4   8   19.15    2.89
  -6  -4   9   59.50    4.80
  -6  -4   9   57.41    5.01
  -6  -4   9   64.74    3.70
  -6  -4  10  179.64    9.35
  -6   4 -10  180.46    7.61
  -6  -4  10  179.98    9.69
  -6  -4  10  193.65    7.61
  -6  -4  11  425.55   16.65
  -6   4 -11  374.28   13.89
  -6  -4  11  422.55   16.94
  -6  -4  11  408.37   13.80
  -6  -4  12 1200.42   40.95
  -6   4 -12 1208.02   38.13
  -6  -4  12 1319.38   37.76
  -6  -4  12 1288.67   41.60
  -6  -4  13  166.09    9.54
  -6   4 -13  146.97    7.18
   6   4  13  151.55    8.03
  -6  -4  13  163.41    6.79
  -6  -4  13  161.58    9.48
  -6  -4  14  495.90   20.36
  -6   4 -14  473.57   17.31
   6   4  14  494.69   18.62
  -6  -4  14  517.48   20.53
  -6  -4  14  506.82   16.45
   6   4  15    5.84    2.67
   6   4  15    5.95    2.57
  -6  -4  15    6.86    2.58
   6   4  15   10.63    2.32
  -6  -4  15    6.72    2.44
   6   4  16   79.18    6.34
   6   4  16   81.14    6.54
   6   4  16   69.83    5.69
  -6  -4  16   73.07    6.74
   6   4  17   41.88    4.74
   6   4  17   39.49    4.76
   6   4  17   36.00    4.23
  -6  -4  17   39.88    5.06
   6   4  18   69.27    6.11
   6   4  18   66.30    6.07
  -6  -4  18   49.45    5.89
   6   4  18   53.46    5.27
   6   4  19   44.03    4.99
   6   4  19   27.13    4.31
  -6  -4  19   26.70    4.65
   6   4  19   43.52    4.83
  -6  -4  19   48.04    5.67
  -6  -4  20  277.09   15.59
   6   4  20  295.96   14.23
  -6  -4  20  302.62   15.46
  -6  -4  21  439.04   20.99
   6   4  21  436.92   19.10
  -6  -4  21  487.96   20.85
  -6  -4  22  170.27   11.74
  -6   4 -22  163.76    9.03
   6   4  22  195.93   10.92
  -6  -4  22  171.26   11.10
  -6  -4  23  163.12   11.38
  -6   4 -23  159.04    8.80
   6   4  23  160.63   10.05
  -6  -4  23  180.84   11.18
  -6  -4  24   14.46    4.01
  -6   4 -24   11.37    2.37
  -6  -4  24    9.30    3.03
  -6  -4  25   18.54    4.19
  -6  -4  25   10.91    3.14
  -6  -4  26   50.76    6.21
  -6  -4  26   44.14    5.23
   6   4  27  156.34    9.56
  -6  -4  27  173.52   11.08
   6   4  28  151.33    9.04
  -6  -4  28  168.74   10.49
   6   4  29   31.21    3.42
   6   4  29   20.70    3.30
   6  -5  28   34.12    4.62
   6  -5  28   27.61    3.48
   6  -5  28   30.46    3.33
   6  -5  27   11.81    3.27
   6  -5  27   10.21    2.59
   6  -5  27    6.36    2.04
  -6   5  27    5.82    2.74
   6  -5  26   31.36    4.73
  -6   5  26   31.44    4.93
   6  -5  26   31.64    4.08
   6  -5  26   30.92    3.74
   6  -5  25   20.83    4.14
  -6   5  25   15.74    3.77
   6  -5  25   24.34    3.78
   6  -5  25   19.92    3.11
   6  -5  24   36.69    5.29
  -6   5  24   32.04    5.08
   6  -5  24   26.51    3.94
   6  -5  24   29.34    3.72
   6  -5  23   76.34    6.49
   6  -5  23   81.28    7.70
   6  -5  23   90.69    6.36
  -6   5  23   74.98    7.54
   6  -5  22   -0.61    2.52
  -6   5  22    2.57    2.50
   6  -5  22    0.37    1.66
   6  -5  22    1.80    1.91
   6  -5  21   64.83    5.49
  -6   5  21   65.71    6.98
   6  -5  21   75.82    6.39
  -6   5  20  264.74   14.95
   6  -5  20  281.49   12.48
   6  -5  20  261.33   13.02
  -6   5  19   89.76    8.09
   6  -5  19   98.76    6.49
   6  -5  19   92.88    6.95
  -6   5  18   47.58    5.65
   6  -5  18   39.00    3.93
   6  -5  18   38.86    4.34
  -6   5  17   20.54    3.83
   6  -5  17   22.47    3.32
   6  -5  16   16.51    2.91
  -6   5  16   12.67    3.28
  -6   5  15  400.38   17.86
   6  -5  15  400.35   15.83
  -6   5  14  218.90   11.75
   6  -5  14  218.00   10.07
  -6   5  13   51.24    5.07
   6  -5  13   49.79    4.07
  -6   5  12  162.03    9.07
  -6  -5 -12  157.93    6.52
  -6   5  11   36.71    4.02
   6  -5  11   37.22    3.24
  -6  -5 -11   38.68    2.84
  -6   5  10    9.50    2.29
  -6  -5 -10    7.72    1.46
  -6   5   9   31.69    3.55
  -6  -5  -9   33.10    2.59
  -6   5   8  123.70    7.17
  -6  -5  -8  130.69    5.89
  -6   5   7   42.99    3.86
  -6  -5  -7   41.08    2.93
  -6   5   6    9.43    2.02
  -6  -5  -6    9.77    1.54
  -6   5   5  133.52    7.01
  -6  -5  -5  132.41    6.03
  -6   5   4  408.86   15.17
  -6  -5  -4  407.51   14.00
  -6   5   3   86.45    5.21
  -6  -5  -3   81.18    4.42
  -6   5   2   69.33    4.60
  -6  -5  -2   73.27    4.11
  -6   5   1   10.75    1.89
  -6  -5  -1    9.75    1.53
  -6  -5  -1   10.21    1.73
   6   5   0    9.15    1.58
  -6  -5   0    6.88    1.36
  -6  -5   0   10.09    1.74
  -6  -5   1    7.80    1.64
  -6  -5   1    8.05    1.47
  -6  -5   1    6.95    1.67
  -6  -5   2   73.05    4.71
  -6  -5   2   70.51    4.66
  -6  -5   3   78.56    4.96
  -6  -5   3   74.66    4.20
  -6  -5   3   81.30    5.16
  -6  -5   4  362.25   14.26
  -6  -5   4  403.17   13.41
  -6  -5   4  378.84   14.74
  -6  -5   5  138.22    7.09
  -6  -5   5  140.68    6.19
  -6  -5   5  128.73    7.25
  -6  -5   6   10.48    2.04
  -6  -5   6    9.06    2.23
  -6  -5   6    7.49    1.43
  -6  -5   7   45.96    3.98
  -6  -5   7   49.61    3.26
  -6  -5   7   37.39    3.86
  -6  -5   8  130.87    7.33
  -6  -5   8  135.61    6.07
  -6  -5   8  127.29    7.69
  -6  -5   9   35.21    3.67
  -6   5  -9   29.67    2.63
  -6  -5   9   27.56    3.64
  -6  -5   9   31.94    2.59
  -6  -5  10    8.43    2.23
  -6   5 -10    9.28    1.66
  -6  -5  10    8.58    1.49
  -6  -5  10    9.29    2.40
  -6  -5  11   38.20    4.09
  -6   5 -11   37.33    3.11
  -6  -5  11   41.58    4.55
  -6  -5  11   39.13    2.93
  -6  -5  12  142.23    8.75
  -6   5 -12  150.30    7.25
  -6  -5  12  163.52    9.47
  -6  -5  12  155.03    6.70
  -6  -5  13   54.82    5.36
  -6   5 -13   67.76    4.51
  -6  -5  13   61.27    3.75
  -6  -5  13   69.56    6.09
  -6  -5  14  218.91   11.77
  -6   5 -14  211.39    9.59
  -6  -5  14  224.09    8.67
  -6  -5  14  219.72   11.94
  -6  -5  15  417.66   18.09
  -6   5 -15  382.76   15.08
  -6  -5  15  414.72   18.05
  -6  -5  16   14.23    3.22
  -6   5 -16   12.41    2.27
  -6  -5  16   11.37    3.24
  -6  -5  17   17.19    3.58
  -6   5 -17   19.56    2.77
  -6  -5  18   40.54    5.23
  -6   5 -18   40.30    3.91
  -6  -5  19   93.00    8.04
  -6   5 -19   84.71    6.00
  -6  -5  19   88.85    7.65
  -6  -5  20  264.00   14.72
  -6   5 -20  260.15   11.94
  -6  -5  20  266.80   14.47
  -6  -5  21   75.70    7.56
  -6   5 -21   66.97    5.47
  -6  -5  21   74.33    7.11
   6   5  22    2.02    2.20
   6   5  22    0.94    2.24
  -6  -5  22    0.64    2.65
  -6   5 -22   -0.36    1.59
  -6  -5  22   -0.58    2.45
   6   5  23   85.11    7.05
  -6  -5  23   63.99    7.05
  -6   5 -23   81.74    5.96
  -6  -5  23   80.20    7.26
   6   5  24   34.94    4.62
  -6  -5  24   31.97    5.02
  -6   5 -24   24.22    3.41
  -6  -5  24   24.96    4.20
  -6  -5  25   25.35    4.51
   6   5  25   22.01    3.88
  -6  -5  25   16.40    3.36
  -6  -5  26   29.65    4.73
   6   5  26   31.11    4.29
  -6  -5  26   33.66    4.37
   6   5  27    3.73    2.02
  -6  -5  27    5.29    2.47
  -6  -5  27    5.15    2.17
   6   5  28   34.85    4.10
   6  -6  28   27.08    4.18
   6  -6  27   32.35    3.78
   6  -6  27   37.83    4.81
   6  -6  27   29.84    3.36
   6  -6  26   37.29    4.25
   6  -6  26   39.46    5.20
   6  -6  26   42.61    4.11
  -6   6  26   31.33    4.73
   6  -6  25   77.53    6.14
   6  -6  25   73.83    7.10
   6  -6  25   91.49    6.05
  -6   6  25   67.29    6.89
   6  -6  24    1.79    2.33
  -6   6  24    1.74    2.12
   6  -6  24    2.03    1.82
   6  -6  24    2.72    1.82
   6  -6  23  169.39    9.63
   6  -6  23  150.46   10.73
   6  -6  23  172.77    9.05
  -6   6  23  171.09   11.31
   6  -6  22  229.13   11.51
   6  -6  22  222.02   13.14
   6  -6  22  219.20   10.62
  -6   6  22  207.94   12.88
   6  -6  21  265.74   11.77
  -6   6  21  233.06   13.92
   6  -6  21  249.60   12.31
   6  -6  20  365.95   14.86
  -6   6  20  355.88   17.75
   6  -6  20  365.74   15.68
  -6   6  19  129.89    9.87
   6  -6  19  157.54    8.19
   6  -6  19  142.22    8.49
  -6   6  18  257.08   14.15
   6  -6  18  262.96   11.43
   6  -6  18  257.32   12.10
  -6   6  17  113.58    8.56
   6  -6  17  117.41    6.66
   6  -6  17  102.74    6.81
  -6   6  16  140.49    9.39
   6  -6  16  125.56    6.89
   6  -6  16  137.88    7.70
  -6   6  15   62.11    5.92
   6  -6  15   60.63    4.32
   6  -6  15   59.17    4.69
  -6   6  14  260.43   12.81
   6  -6  14  229.60    9.72
   6  -6  14  228.41   10.27
  -6   6  13  146.54    9.05
  -6   6  12  202.16   10.84
  -6  -6 -12  212.91    8.41
  -6   6  11   69.55    5.67
  -6  -6 -11   70.48    4.10
  -6   6  10  206.75   10.38
  -6  -6 -10  213.64    8.49
  -6   6   9   82.34    5.84
  -6  -6  -9   83.43    4.53
  -6   6   8  181.38    8.95
  -6  -6  -8  165.77    7.24
  -6   6   7  280.19   11.87
  -6  -6  -7  276.74   10.43
  -6   6   6  118.36    6.60
  -6  -6  -6  112.23    5.56
  -6   6   5  107.74    6.20
  -6  -6  -5  111.77    5.50
  -6   6   4  581.84   20.18
  -6  -6  -4  584.08   19.14
  -6   6   3  813.64   27.32
  -6  -6  -3  869.11   26.51
  -6   6   2  387.64   14.46
  -6  -6  -2  386.59   13.66
  -6   6   1  153.92    7.39
   6   6  -1  147.57    7.06
  -6  -6  -1  145.14    6.95
  -6  -6  -1  148.74    6.67
  -6  -6   0   64.87    4.31
  -6   6   0   58.63    4.18
   6   6   0   57.60    3.95
  -6  -6   0   50.62    3.92
  -6  -6   0   57.01    3.69
  -6  -6   1  150.93    7.33
   6   6   1  140.64    6.82
  -6  -6   1  151.51    7.47
  -6  -6   1  153.83    6.80
  -6  -6   2  351.59   13.95
  -6  -6   2  376.86   14.48
  -6  -6   3  806.48   26.45
   6   6   3  816.24   25.47
  -6  -6   3  857.56   27.21
  -6  -6   3  778.60   25.32
  -6  -6   4  627.82   20.59
  -6  -6   4  558.02   20.79
  -6  -6   4  584.66   19.35
  -6  -6   5  115.54    6.38
  -6  -6   5  109.91    5.49
  -6  -6   5  108.24    6.69
  -6  -6   6  113.02    6.54
  -6  -6   6  118.14    5.73
  -6  -6   6  124.76    7.29
  -6  -6   7  264.58   11.43
  -6   6  -7  254.11   10.09
  -6  -6   7  264.42   10.05
  -6  -6   7  270.17   12.12
  -6  -6   8  153.28    8.29
  -6   6  -8  162.08    7.34
  -6  -6   8  166.05    7.15
  -6  -6   8  160.66    8.94
  -6  -6   9   81.81    5.78
  -6   6  -9   79.27    4.79
  -6  -6   9   81.90    4.54
  -6  -6   9   74.93    5.99
  -6  -6  10  215.83   10.53
  -6   6 -10  198.42    8.93
  -6  -6  10  217.56   11.08
  -6  -6  10  208.87    8.47
  -6  -6  11   58.46    5.29
  -6   6 -11   64.09    4.47
  -6  -6  11   66.49    5.88
  -6  -6  11   68.99    4.07
  -6  -6  12  175.41    9.98
  -6   6 -12  187.26    8.72
  -6  -6  12  191.34   10.82
  -6  -6  12  194.79    7.96
  -6  -6  13  130.55    8.55
  -6   6 -13  135.67    7.22
  -6  -6  13  131.00    8.85
  -6  -6  13  146.09    6.43
  -6  -6  14  259.78   13.15
  -6   6 -14  238.79   10.94
  -6  -6  14  265.72   13.46
  -6  -6  14  265.80    9.89
  -6  -6  15   49.33    5.27
  -6   6 -15   53.63    4.45
  -6  -6  15   50.83    3.37
  -6  -6  15   52.98    5.76
   6   6  16  133.26    8.68
   6   6  16  139.00    9.03
  -6  -6  16  115.97    8.72
  -6   6 -16  134.14    7.56
  -6  -6  16  148.15    9.70
   6   6  17  134.58    8.74
   6   6  17  119.83    8.55
  -6   6 -17  138.27    7.71
  -6  -6  17  136.57    9.50
   6   6  18  262.28   13.04
   6   6  18  257.46   13.25
  -6   6 -18  244.47   11.58
  -6  -6  18  271.74   14.39
   6   6  19  170.57   10.13
   6   6  19  188.65   10.78
  -6  -6  19  178.47   11.42
  -6   6 -19  159.93    8.95
   6   6  20  345.45   16.17
   6   6  20  361.87   16.81
  -6  -6  20  351.65   17.81
  -6   6 -20  356.13   15.14
   6   6  21  274.72   13.30
   6   6  21  265.54   13.44
  -6  -6  21  234.06   14.01
  -6   6 -21  238.57   11.71
  -6  -6  21  257.37   14.09
   6   6  22  254.12   12.70
   6   6  22  247.22   12.80
  -6  -6  22  229.25   13.66
  -6   6 -22  217.64   11.03
  -6  -6  22  241.84   13.51
   6   6  23  162.63   10.08
  -6  -6  23  148.41   10.69
  -6   6 -23  163.73    8.97
  -6  -6  24    3.51    2.42
   6   6  24    4.67    2.58
  -6  -6  24    5.33    2.65
  -6  -6  25   61.66    6.52
   6   6  25   79.95    6.51
  -6  -6  25   81.00    6.93
  -6  -6  26   42.45    5.29
   6   6  26   36.51    4.34
  -6  -6  26   32.09    4.28
   6   6  27   31.38    3.94
  -6  -6  27   36.96    4.30
   6   6  28   27.28    3.50
   6  -7  27   58.13    5.79
   6  -7  26    2.07    2.41
   6  -7  25    1.10    2.08
   6  -7  24   34.56    4.98
   6  -7  23   28.36    4.80
  -6   7  23   26.05    4.36
   6  -7  22    4.76    2.96
  -6   7  22    2.80    2.44
   6  -7  22    4.47    1.99
   6  -7  22    4.38    1.73
   6  -7  21   84.96    5.66
  -6   7  21   84.12    7.53
   6  -7  21   66.50    5.56
  -6   7  20   20.41    3.98
   6  -7  20   19.50    3.15
   6  -7  20   16.28    2.64
  -6   7  19    8.95    2.84
  -6   7  18   67.03    6.62
  -6   7  17   45.23    5.28
  -6   7  16  231.14   12.58
  -6   7  15   47.16    5.11
  -6   7  14   19.02    3.33
  -6   7  13  118.41    7.98
  -6  -7 -13  115.06    5.63
  -6   7  12   77.54    6.08
  -6  -7 -12   67.55    4.10
  -6   7  11   59.74    5.26
  -6  -7 -11   57.81    3.75
  -6   7  10   22.79    3.23
  -6  -7 -10   27.25    2.52
  -6   7   9   19.00    2.82
  -6  -7  -9   15.80    2.01
  -6   7   8   19.00    2.76
  -6  -7  -8   20.83    2.23
  -6   7   7   24.18    3.03
  -6  -7  -7   26.38    2.53
  -6   7   6   40.13    3.65
  -6  -7  -6   43.42    3.28
  -6   7   5   52.60    4.04
  -6  -7  -5   53.27    3.69
  -6   7   4  224.16    9.68
  -6  -7  -4  215.49    8.99
  -6   7   3   17.57    2.36
  -6  -7  -3   20.68    2.31
  -6   7   2   14.27    2.13
  -6  -7  -2   15.70    2.04
  -6   7   1  132.49    6.67
  -6  -7  -1  128.55    6.59
   6   7  -1  136.56    6.94
  -6  -7  -1  113.00    6.37
  -6  -7  -1  130.47    6.30
  -6  -7   0   22.88    2.52
  -6   7   0   19.00    2.30
   6   7   0   18.12    2.43
  -6  -7   0   20.25    2.52
  -6  -7   0   18.75    2.20
  -6  -7   1  131.89    6.76
  -6   7  -1  130.39    6.73
   6   7   1  129.59    6.70
  -6  -7   1  146.59    7.36
  -6  -7   1  139.82    6.60
  -6  -7   2   13.63    2.03
   6   7   2   12.81    1.95
  -6  -7   2   13.57    2.40
  -6  -7   3   17.00    2.28
   6   7   3   16.46    2.16
  -6  -7   3   20.27    2.92
  -6  -7   4  225.74    9.95
  -6   7  -4  227.41    9.15
  -6  -7   4  241.81   11.00
  -6  -7   4  237.69    9.46
  -6  -7   5   53.01    4.10
  -6   7  -5   55.74    3.77
  -6  -7   5   59.70    4.90
  -6  -7   5   55.81    3.84
  -6  -7   6   52.56    4.17
  -6   7  -6   43.01    3.41
  -6  -7   6   43.78    4.47
  -6  -7   6   47.26    3.43
  -6  -7   7   25.98    3.13
  -6   7  -7   22.74    2.56
  -6  -7   7   32.04    3.78
  -6  -7   7   22.53    2.47
  -6  -7   8   27.38    3.30
  -6   7  -8   27.82    2.79
  -6  -7   8   29.18    2.70
  -6  -7   8   27.18    3.73
  -6  -7   9   14.63    2.65
  -6   7  -9   14.54    2.25
  -6  -7   9   19.70    2.17
  -6  -7   9   22.21    3.59
  -6  -7  10   19.84    3.05
  -6   7 -10   28.14    3.04
  -6  -7  10   26.59    2.55
  -6  -7  10   29.01    4.01
  -6  -7  11   65.96    5.49
  -6   7 -11   57.56    4.42
  -6  -7  11   60.78    3.94
  -6  -7  11   64.67    5.83
  -6  -7  12   58.78    5.49
  -6   7 -12   65.48    4.79
  -6  -7  12   74.42    6.44
  -6  -7  12   74.72    4.33
  -6  -7  13  108.21    7.67
  -6   7 -13  103.10    6.40
  -6  -7  13  117.42    8.41
  -6  -7  13  107.61    5.50
  -6  -7  14   16.79    3.39
  -6   7 -14   16.27    2.62
  -6  -7  14   14.85    1.95
  -6  -7  14   13.52    3.46
   6   7  15   51.50    5.30
   6   7  15   55.02    5.46
  -6  -7  15   49.82    5.39
  -6   7 -15   45.12    4.26
  -6  -7  15   47.78    5.51
  -6  -7  15   42.21    3.18
   6   7  16  249.53   12.38
   6   7  16  235.79   12.33
  -6  -7  16  236.93   12.91
  -6   7 -16  210.34   10.65
  -6  -7  16  235.92   13.28
   6   7  17   43.08    4.88
   6   7  17   41.27    4.98
  -6  -7  17   51.03    5.72
  -6   7 -17   46.14    4.37
  -6  -7  17   52.85    5.94
   6   7  18   70.92    6.28
   6   7  18   81.37    6.83
  -6   7 -18   64.35    5.38
  -6  -7  18   72.48    6.97
   6   7  19    9.67    2.97
   6   7  19   15.21    3.43
  -6  -7  19   14.44    3.49
  -6   7 -19   15.55    2.70
   6   7  20   12.41    3.16
   6   7  20   20.12    3.75
  -6  -7  20   13.45    3.62
  -6   7 -20   13.82    2.89
  -6  -7  20   11.15    3.20
   6   7  21   90.90    6.92
   6   7  21   85.25    6.99
  -6  -7  21   71.68    7.12
  -6   7 -21   77.64    5.97
  -6  -7  21   94.23    7.96
   6   7  22    4.31    2.34
   6   7  22    4.01    2.38
  -6  -7  22    4.59    2.31
  -6   7 -22    6.61    2.03
  -6  -7  22    5.68    2.54
  -6  -7  23   22.75    4.23
   6   7  23   31.07    4.33
  -6  -7  23   34.42    4.83
  -6  -7  24   26.35    4.25
   6   7  24   32.30    4.19
  -6  -7  24   29.52    4.38
  -6  -7  25    1.96    2.03
   6   7  25    0.84    1.78
  -6  -7  25    2.40    1.87
   6   7  26    3.49    2.11
  -6  -7  26    0.44    1.85
   6   7  27   48.79    4.66
  -6  -7  27   59.56    5.20
   6  -8  26   78.85    6.75
   6  -8  25   23.57    4.11
   6  -8  24   99.36    8.02
   6  -8  23  206.18   12.30
   6  -8  22  113.41    8.80
   6  -8  21  303.93   15.73
  -6   8  20   40.48    4.99
  -6   8  19   43.67    5.27
  -6   8  18  188.08   11.08
  -6   8  17  150.36    9.62
  -6   8  16  198.84   11.28
  -6   8  15   49.81    5.25
  -6   8  14  130.33    8.52
  -6   8  13   79.95    6.49
  -6  -8 -13   95.10    5.02
  -6   8  12   57.92    5.28
  -6  -8 -12   66.33    4.12
  -6   8  11  221.96   11.05
  -6  -8 -11  220.82    9.08
  -6   8  10  663.34   23.99
  -6  -8 -10  671.22   21.87
  -6   8   9  248.85   11.50
  -6  -8  -9  262.10   10.29
  -6   8   8  472.34   17.63
  -6  -8  -8  462.25   16.26
  -6   8   7  263.98   11.54
  -6  -8  -7  276.98   10.77
  -6   8   6  168.10    8.33
  -6  -8  -6  173.42    7.76
  -6   8   5   87.99    5.46
  -6  -8  -5   88.69    5.11
  -6   8   4    0.75    1.01
  -6  -8  -4    1.78    1.15
  -6   8   3  497.18   17.89
  -6  -8  -3  530.99   17.95
  -6   8   2  136.16    6.91
   6   8  -2  150.94    7.88
  -6  -8  -2  150.39    7.10
  -6   8   1  280.65   11.13
   6   8  -1  292.17   12.08
  -6  -8  -1  262.05   11.42
  -6  -8  -1  295.51   11.31
  -6   8   0  272.75   11.00
   6   8   0  284.48   11.81
  -6   8   0  286.88   10.54
  -6  -8   0  274.23   11.78
  -6  -8   0  281.66   11.14
  -6   8  -1  267.15   10.75
   6   8   1  270.25   11.40
  -6   8  -1  281.04   10.43
  -6  -8   1  265.97   11.73
  -6  -8   1  273.01   10.93
  -6   8  -2  166.16    7.64
   6   8   2  170.25    8.06
  -6   8  -2  158.56    7.19
  -6  -8   2  158.70    8.45
  -6   8  -3  461.85   16.89
   6   8   3  501.20   17.46
  -6   8  -3  491.31   16.69
  -6  -8   3  480.03   18.47
  -6   8  -4    0.22    1.02
  -6  -8   4    2.26    1.25
  -6  -8   4    3.23    1.44
  -6   8  -5   80.59    4.98
  -6  -8   5   86.10    6.21
  -6  -8   5   89.81    5.13
  -6   8  -6  183.13    8.45
  -6  -8   6  194.68   10.19
  -6  -8   6  187.19    8.29
  -6   8  -7  278.56   11.52
  -6  -8   7  290.27   13.41
  -6  -8   7  282.06   11.12
  -6   8  -8  464.74   17.37
  -6  -8   8  462.97   19.46
  -6  -8   8  511.83   17.03
  -6   8  -9  272.90   11.66
  -6  -8   9  277.35   11.02
  -6  -8   9  296.37   13.88
  -6  -8  10  631.13   23.78
  -6   8 -10  628.90   22.68
  -6  -8  10  699.00   21.96
  -6  -8  10  672.94   25.49
  -6  -8  11  216.58   11.23
  -6   8 -11  232.25   10.55
  -6  -8  11  232.25    9.52
  -6  -8  11  232.56   12.44
  -6  -8  12   71.36    6.00
  -6   8 -12   73.89    5.34
  -6  -8  12   65.00    4.27
  -6  -8  12   75.03    6.72
  -6  -8  13   69.76    6.13
  -6   8 -13   75.07    5.56
  -6  -8  13   81.85    7.28
  -6  -8  13   87.01    4.85
  -6  -8  14  139.44    8.95
  -6   8 -14  121.26    7.49
  -6  -8  14  152.16   10.06
  -6  -8  14  134.42    6.44
   6   8  15   43.23    4.84
   6   8  15   53.84    5.44
  -6  -8  15   44.10    5.16
  -6   8 -15   43.22    4.26
  -6  -8  15   51.68    5.95
  -6  -8  15   43.62    3.25
   6   8  16  209.29   11.38
   6   8  16  221.71   11.80
  -6  -8  16  198.81   11.78
  -6   8 -16  207.16   10.52
  -6  -8  16  220.65   12.76
   6   8  17  145.93    9.16
   6   8  17  155.09    9.60
  -6  -8  17  123.73    9.13
  -6   8 -17  151.38    8.57
  -6  -8  17  138.56   10.01
   6   8  18  179.71   10.31
   6   8  18  157.45   10.07
  -6   8 -18  174.93    9.55
  -6  -8  18  190.07   11.15
   6   8  19   66.64    5.98
   6   8  19   70.05    6.25
  -6   8 -19   55.40    5.06
   6   8  20   38.05    4.66
   6   8  20   33.94    4.51
  -6   8 -20   38.14    4.23
   6   8  21  337.59   15.36
   6   8  21  350.10   15.87
  -6   8 -21  325.56   14.47
  -6  -8  21  354.34   17.14
   6   8  22  104.83    7.65
   6   8  22  108.63    7.51
  -6  -8  22  103.73    8.36
   6   8  23  218.37   11.39
  -6  -8  23  207.26   12.03
   6   8  24   99.48    7.11
  -6  -8  24  107.99    8.01
   6   8  25   19.93    3.30
  -6  -8  25   20.03    3.45
   6   8  26   65.48    5.42
  -6  -8  26   91.10    6.61
   6  -9  25   19.89    3.42
   6  -9  24   72.61    6.61
   6  -9  23   18.40    3.62
   6  -9  22   11.98    3.24
   6  -9  21   32.15    4.85
  -6  -9 -13   83.57    4.82
  -6  -9 -12  367.96   13.46
  -6  -9 -11   95.45    5.33
  -6  -9 -10  111.12    5.91
  -6  -9  -9   52.65    3.83
  -6  -9  -8  109.62    5.96
  -6  -9  -7  155.35    7.45
  -6  -9  -6    4.31    1.38
  -6  -9  -5   50.62    3.89
  -6  -9  -4   57.88    4.19
   6   9  -3    4.23    1.85
  -6  -9  -3    3.70    1.44
   6   9  -2   45.41    4.39
  -6  -9  -2   47.53    3.83
   6   9  -1  112.84    6.86
  -6  -9  -1  106.90    6.10
  -6   9   0    9.83    1.73
   6   9   0   12.19    2.48
  -6  -9   0    9.73    1.90
  -6  -9   0    9.17    2.17
   6   9   1  105.72    6.62
  -6   9  -1  114.64    6.00
  -6  -9   1  116.62    6.39
   6   9   2   43.93    4.02
  -6   9  -2   47.84    3.62
  -6  -9   2   44.39    4.38
  -6   9  -3    3.35    1.37
   6   9   3    4.65    1.77
  -6  -9   3    8.17    2.20
  -6   9  -4   44.98    3.74
  -6  -9   4   49.96    4.79
  -6  -9   4   54.26    4.01
  -6   9  -5   48.68    3.98
  -6  -9   5   61.10    5.38
  -6  -9   5   56.00    4.13
  -6   9  -6    3.30    1.45
  -6  -9   6    4.19    1.63
  -6  -9   6    6.84    2.32
  -6   9  -7  156.41    8.04
  -6  -9   7  161.90    9.66
  -6  -9   7  171.41    7.92
  -6   9  -8  104.85    6.37
  -6  -9   8   99.40    5.81
  -6   9  -9   55.30    4.60
  -6  -9   9   63.87    6.09
  -6  -9   9   54.08    4.06
  -6   9 -10  112.33    6.90
  -6  -9  10  119.85    6.27
  -6  -9  10  121.06    8.57
  -6   9 -11  115.27    7.04
  -6  -9  11  120.70    6.23
  -6  -9  11  104.40    8.24
  -6   9 -12  368.76   15.30
  -6  -9  12  371.03   13.83
  -6  -9  12  400.09   17.96
  -6   9 -13   85.78    6.12
  -6  -9  13   89.38    5.13
  -6  -9  13   86.97    7.61
  -6   9 -14   45.54    4.51
  -6  -9  14   49.13    3.57
  -6  -9  14   50.74    5.76
   6   9  15    4.50    2.15
   6   9  15    2.36    2.26
  -6   9 -15   -0.75    1.68
  -6  -9  15    1.02    0.97
  -6  -9  15    4.07    2.53
   6   9  16   38.07    4.66
   6   9  16   24.85    3.89
  -6   9 -16   27.88    3.64
  -6  -9  16   25.88    4.51
   6   9  17  239.43   12.23
   6   9  17  234.60   12.44
  -6   9 -17  236.64   11.56
  -6  -9  17  231.18   13.47
   6   9  18   15.59    3.23
   6   9  18    9.01    3.01
  -6   9 -18   10.06    2.52
  -6  -9  18   14.24    3.71
   6   9  19   36.81    4.47
   6   9  19   32.27    4.40
  -6   9 -19   33.46    4.13
   6   9  20    3.42    1.91
   6   9  20    0.46    1.73
  -6   9 -20    3.02    1.91
   6   9  21   33.09    4.12
   6   9  21   39.90    4.67
  -6  -9  21   42.96    5.42
   6   9  22   11.06    2.63
   6   9  22    8.91    2.57
  -6  -9  22   12.83    3.09
   6   9  23   22.78    3.48
  -6  -9  23   26.13    4.03
   6   9  24   68.71    5.73
  -6  -9  24   82.95    6.78
   6   9  25   16.98    2.88
  -6  -9  25   13.96    2.97
   6 -10  24   78.22    6.50
   6 -10  23  144.61    9.31
   6 -10  22   72.97    6.64
   6 -10  21  125.59    8.91
   6 -10  20    6.84    2.86
  -6 -10 -13    3.51    1.30
  -6 -10 -12   41.08    3.31
  -6 -10 -11  320.49   12.36
  -6 -10 -10  106.25    5.88
  -6 -10  -9  368.20   13.91
  -6 -10  -8  437.21   16.02
  -6 -10  -7  264.00   11.01
  -6 -10  -6  207.50    9.32
   6  10  -5   14.38    3.05
  -6 -10  -5   17.69    2.47
   6  10  -4   33.21    4.04
  -6 -10  -4   32.84    3.26
   6  10  -3  165.76    9.34
  -6 -10  -3  174.40    8.37
   6  10  -2   68.26    5.60
  -6 -10  -2   73.33    4.96
   6  10  -1  383.26   15.91
  -6 -10  -1  387.88   14.82
   6  10   0  700.28   25.64
  -6  10   0  766.70   24.38
  -6 -10   0  710.97   25.53
  -6 -10   0  749.81   24.87
   6  10   1  338.44   14.55
  -6  10  -1  355.12   13.56
  -6 -10   1  347.34   14.90
  -6 -10   1  385.61   14.22
   6  10   2   72.24    5.42
  -6  10  -2   67.46    4.65
  -6 -10   2   80.90    6.02
  -6  10  -3  159.29    7.74
  -6 -10   3  146.92    8.92
  -6  10  -4   24.57    2.96
  -6 -10   4   34.03    3.28
  -6 -10   4   23.63    3.57
  -6  10  -5   16.44    2.49
  -6 -10   5   19.74    2.58
  -6 -10   5   11.86    2.84
  -6  10  -6  192.04    9.22
  -6 -10   6  183.17   10.69
  -6 -10   6  194.92    8.97
  -6  10  -7  278.09   12.06
  -6 -10   7  266.06   13.72
  -6 -10   7  292.93   11.74
  -6  10  -8  410.99   16.69
  -6 -10   8  466.74   19.48
  -6 -10   8  453.70   16.32
  -6  10  -9  360.71   15.05
  -6 -10   9  373.39   17.29
  -6 -10   9  385.78   14.34
  -6  10 -10  109.34    6.97
  -6 -10  10  119.79    6.36
  -6 -10  10  104.84    8.26
  -6  10 -11  316.87   13.58
  -6 -10  11  316.48   12.30
  -6 -10  11  283.67   15.20
  -6  10 -12   52.10    4.81
  -6 -10  12   46.78    3.66
  -6 -10  12   39.20    5.22
  -6  10 -13    4.10    1.89
  -6 -10  13    5.86    1.50
  -6 -10  13    4.60    2.97
  -6  10 -14  119.40    7.59
  -6 -10  14  113.99    8.79
  -6 -10  14  116.87    6.01
   6  10  15  100.44    7.51
   6  10  15  104.17    7.75
  -6  10 -15  103.51    7.13
  -6 -10  15  127.69    9.33
  -6 -10  15  107.37    5.59
   6  10  16  314.93   14.61
   6  10  16  309.51   14.78
  -6  10 -16  311.30   13.91
  -6 -10  16  309.26   16.17
   6  10  17   59.76    5.52
   6  10  17   47.65    5.24
  -6  10 -17   46.17    4.84
  -6 -10  17   49.80    5.91
   6  10  18  260.37   12.70
   6  10  18  253.93   12.84
  -6  10 -18  254.32   12.20
  -6 -10  18  278.29   14.70
   6  10  19   60.87    5.54
   6  10  19   59.67    5.68
   6  10  20    6.82    2.20
   6  10  20    2.39    1.78
   6  10  21  133.39    8.00
   6  10  21  124.95    8.09
   6  10  22   61.58    5.40
  -6 -10  22   70.08    6.45
   6  10  23  144.95    8.42
  -6 -10  23  169.65    9.98
  -6 -10  24   78.40    6.37
   6 -11  22    1.75    1.81
   6 -11  21   13.46    3.02
   6 -11  20   25.51    4.01
   6 -11  19   22.62    3.94
  -6 -11 -12   92.44    5.38
  -6 -11 -11   17.75    2.41
  -6 -11 -10   10.96    1.99
  -6 -11  -9   94.19    5.67
  -6 -11  -8   11.60    2.14
   6  11  -7   23.59    3.88
  -6 -11  -7   23.10    2.74
   6  11  -6   17.23    3.39
  -6 -11  -6   16.22    2.48
   6  11  -5   21.69    3.75
  -6 -11  -5   29.52    3.13
   6  11  -4   63.37    5.65
  -6 -11  -4   63.23    4.71
   6  11  -3   48.37    4.90
  -6 -11  -3   46.53    4.15
   6  11  -2    3.68    1.78
  -6 -11  -2    3.50    1.73
   6  11  -1   77.49    6.20
  -6 -11  -1   85.83    5.64
   6  11   0   29.21    3.81
  -6 -11   0   30.88    3.32
  -6 -11   0   28.16    3.61
   6  11   1   72.39    5.75
  -6  11  -1   76.18    5.05
  -6 -11   1   76.51    5.91
  -6 -11   1   74.40    5.32
  -6  11  -2    2.78    1.48
   6  11   2    1.82    1.59
  -6 -11   2    2.06    1.79
  -6  11  -3   38.44    3.66
  -6 -11   3   41.59    4.67
  -6  11  -4   50.50    4.34
  -6 -11   4   60.06    5.56
  -6 -11   4   65.63    4.74
  -6  11  -5   20.60    2.89
  -6 -11   5   25.58    3.82
  -6 -11   5   26.32    3.05
  -6  11  -6    9.90    2.27
  -6 -11   6   15.49    2.49
  -6 -11   6   14.46    3.13
  -6  11  -7   23.07    3.15
  -6 -11   7   23.09    3.85
  -6 -11   7   25.85    2.99
  -6  11  -8    7.80    2.05
  -6 -11   8    9.27    2.09
  -6 -11   8    5.71    2.44
  -6  11  -9   81.87    5.99
  -6 -11   9   90.05    7.52
  -6 -11   9   95.97    5.74
  -6  11 -10   10.36    2.46
  -6 -11  10   13.50    2.13
  -6 -11  10   13.17    3.35
  -6  11 -11   11.68    2.65
  -6 -11  11   18.11    2.48
  -6 -11  11   17.45    3.82
  -6  11 -12   88.37    6.38
  -6 -11  12   88.52    5.37
  -6 -11  12   90.35    7.79
  -6  11 -13   30.13    3.87
  -6 -11  13   33.68    3.16
  -6 -11  13   37.93    5.29
   6  11  14    4.81    2.45
   6  11  14    3.21    2.05
  -6  11 -14    3.80    1.78
  -6 -11  14    5.21    1.45
  -6 -11  14    2.96    2.58
   6  11  15   60.36    5.57
   6  11  15   51.32    5.34
  -6  11 -15   62.76    5.45
  -6 -11  15   53.31    6.20
   6  11  16   11.17    2.80
   6  11  16   10.97    2.77
  -6  11 -16   10.57    2.51
  -6 -11  16   11.77    3.64
   6  11  17   17.61    3.19
   6  11  17   23.55    3.72
  -6  11 -17   19.33    3.18
  -6 -11  17   20.28    4.11
   6  11  18   24.10    3.64
   6  11  18   23.61    3.70
   6  11  19   21.15    3.18
   6  11  19   21.80    3.42
  -6 -11  19   26.86    4.28
   6  11  20   32.89    3.92
   6  11  20   32.19    4.02
   6  11  21   16.47    2.89
  -6 -11  22    1.39    1.86
  -6 -11  23    8.50    2.49
   6 -12  20   20.59    3.52
   6 -12  19    1.75    1.86
   6 -12  18   17.12    3.23
  -6 -12 -12    0.24    1.12
  -6 -12 -11   49.96    3.92
   6  12 -10  197.18   11.28
  -6 -12 -10  192.88    8.92
   6  12  -9   69.22    6.43
  -6 -12  -9   64.76    4.74
   6  12  -8  615.83   24.46
  -6 -12  -8  635.22   21.87
   6  12  -7  103.19    7.80
  -6 -12  -7  107.44    6.37
   6  12  -6   61.10    5.88
  -6 -12  -6   61.19    4.67
   6  12  -5   19.98    3.78
  -6 -12  -5   21.65    2.96
   6  12  -4    7.73    2.59
  -6 -12  -4    4.88    1.84
   6  12  -3  172.28   10.01
  -6 -12  -3  168.84    8.65
   6  12  -2   67.81    5.90
  -6 -12  -2   64.36    4.97
   6  12  -1  135.89    8.36
  -6 -12  -1  116.74    7.02
   6  12   0  715.84   25.80
  -6 -12   0  693.59   24.26
   6  12   1  126.64    7.97
  -6 -12   1  123.67    7.98
  -6 -12   1  122.70    7.21
  -6  12  -2   71.55    5.08
  -6 -12   2   65.39    5.81
  -6  12  -3  159.09    8.17
  -6 -12   3  150.03    9.31
  -6  12  -4   10.51    2.23
  -6 -12   4    9.75    2.29
  -6 -12   4    6.05    2.37
  -6  12  -5   16.88    2.75
  -6 -12   5   15.48    3.31
  -6 -12   5   24.58    3.07
  -6  12  -6   65.23    5.15
  -6 -12   6   59.94    6.10
  -6 -12   6   66.61    4.92
  -6 -12   7  114.89    8.27
  -6 -12   7  103.32    6.27
  -6  12  -8  580.06   22.07
  -6 -12   8  644.51   24.98
  -6 -12   8  628.12   21.63
  -6  12  -9   53.30    4.86
  -6 -12   9   64.70    6.39
  -6 -12   9   62.15    4.63
  -6  12 -10  185.74    9.81
  -6 -12  10  181.90   11.59
  -6 -12  10  204.32    9.21
  -6  12 -11   49.72    4.78
  -6 -12  11   57.44    4.35
  -6 -12  11   64.61    6.41
  -6  12 -12   -0.37    1.47
  -6 -12  12   -0.57    2.30
  -6 -12  12    1.02    1.22
  -6  12 -13    3.30    1.89
  -6 -12  13    6.25    1.76
  -6 -12  13    6.94    3.09
   6  12  14   31.39    4.00
   6  12  14   45.62    4.79
  -6  12 -14   33.22    3.94
  -6 -12  14   47.95    5.69
  -6 -12  14   38.75    3.27
   6  12  15   76.59    6.25
   6  12  15   86.11    6.68
  -6  12 -15   84.69    6.20
  -6 -12  15   89.85    7.77
   6  12  16  170.11    9.52
   6  12  16  178.21    9.93
  -6 -12  16  195.94   11.73
   6  12  17   15.52    2.93
   6  12  17   13.78    2.87
  -6 -12  17   15.99    3.67
   6  12  18   26.26    3.51
   6  12  18   28.41    3.68
  -6 -12  19    0.51    2.16
  -6 -12  22   19.48    3.30
   6  13 -20    2.24    1.79
   6  13 -19    1.19    1.82
   6  13 -18    6.70    2.49
   6  13 -17    0.87    2.21
   6  13 -16    3.61    2.45
   6  13 -15   12.98    3.02
   6  13 -14    5.21    2.61
   6  13 -13    5.30    2.53
   6  13 -12   28.77    4.30
  -6 -13 -12   30.91    3.01
   6  13 -11   35.38    4.77
  -6 -13 -11   36.74    3.45
   6  13 -10   66.03    6.15
  -6 -13 -10   64.78    4.59
   6  13  -9   37.41    4.76
  -6 -13  -9   37.24    3.52
   6  13  -8   31.34    4.51
  -6 -13  -8   33.58    3.54
   6  13  -7    4.87    2.47
  -6 -13  -7   10.64    2.26
   6  13  -6   23.07    3.83
  -6 -13  -6   23.95    3.02
   6  13  -5   16.56    3.37
  -6 -13  -5   11.44    2.32
   6  13  -4   13.46    3.26
  -6 -13  -4   18.23    2.76
   6  13  -3  186.75   10.65
  -6 -13  -3  197.61    9.58
   6  13  -2   41.04    4.71
  -6 -13  -2   31.27    3.54
   6  13  -1  102.23    7.27
  -6 -13  -1   94.58    6.21
   6  13   0    3.80    1.94
  -6 -13   0    6.75    2.03
  -6 -13   1   89.81    6.77
  -6 -13   1   96.42    6.24
  -6 -13   2   24.13    3.66
  -6  13  -3  201.93    9.63
  -6 -13   3  189.66   10.83
  -6  13  -4   17.57    2.73
  -6 -13   4   20.67    2.81
  -6 -13   4   19.35    3.63
  -6  13  -5   10.21    2.24
  -6 -13   5   11.43    2.29
  -6 -13   5   11.24    2.87
  -6  13  -6   16.92    2.78
  -6 -13   6   21.29    2.89
  -6 -13   6   22.12    3.83
  -6  13  -7    8.94    2.20
  -6 -13   7   11.65    2.27
  -6 -13   7    6.19    2.57
  -6  13  -8   32.74    3.72
  -6 -13   8   29.00    4.47
  -6 -13   8   30.40    3.36
  -6  13  -9   30.15    3.63
  -6 -13   9   32.79    4.72
  -6 -13   9   39.93    3.63
  -6  13 -10   56.63    4.94
  -6 -13  10   58.75    4.47
  -6 -13  10   68.78    6.55
  -6  13 -11   29.44    3.69
  -6 -13  11   34.11    3.37
  -6 -13  11   38.64    5.04
  -6  13 -12   33.51    3.86
  -6 -13  12   32.57    3.18
  -6 -13  12   33.91    4.90
   6  13  13    8.52    2.62
   6  13  13    5.40    2.13
  -6 -13  13    4.16    1.43
  -6 -13  13    6.65    2.91
   6  13  14    5.88    2.20
   6  13  14    6.67    2.20
  -6 -13  14    6.06    2.79
   6  13  15   15.78    2.98
   6  13  15   16.28    2.77
  -6 -13  15   12.43    3.40
  -6 -13  16    6.83    2.81
  -6 -13  17   -0.51    1.78
  -6 -13  18   11.61    3.07
  -6 -13  19    1.37    1.73
  -6 -13  20    2.56    1.95
   6  14 -18   30.93    3.83
   6  14 -17   40.80    4.50
   6  14 -16  233.07   11.76
   6  14 -15   18.87    3.46
   6  14 -14    2.17    2.15
   6  14 -13   16.01    3.18
   6  14 -12   58.58    5.72
   6  14 -11   26.80    4.02
  -6 -14 -11   27.09    2.85
   6  14 -10   72.05    6.45
  -6 -14 -10   76.58    4.99
   6  14  -9   67.37    6.20
  -6 -14  -9   74.92    5.04
   6  14  -8  428.28   18.83
  -6 -14  -8  458.47   16.78
   6  14  -7   83.37    6.96
  -6 -14  -7   92.29    5.87
   6  14  -6   71.44    6.33
  -6 -14  -6   73.72    5.20
   6  14  -5    8.31    2.59
  -6 -14  -5    6.17    1.86
   6  14  -4   53.56    5.54
  -6 -14  -4   70.08    5.13
   6  14  -3    5.36    2.22
  -6 -14  -3    8.29    2.20
   6  14  -2  113.68    7.91
  -6 -14  -2  124.52    7.24
  -6 -14  -1   80.08    5.75
  -6 -14   0  423.59   16.48
  -6 -14   1   75.46    5.48
  -6 -14   2  106.49    7.50
  -6 -14   3    4.04    2.05
  -6  14  -4   59.62    4.78
  -6 -14   4   49.71    5.36
  -6 -14   4   63.07    4.85
  -6  14  -5    5.26    1.79
  -6 -14   5    5.20    1.84
  -6 -14   5    7.63    2.51
  -6  14  -6   61.05    4.86
  -6 -14   6   56.93    5.81
  -6 -14   6   64.70    4.85
  -6  14  -7   71.55    5.44
  -6 -14   7   88.58    7.26
  -6 -14   7   84.81    5.58
  -6  14  -8  431.59   16.81
  -6 -14   8  422.26   18.98
  -6 -14   8  453.07   16.55
  -6 -14   9   59.97    4.59
  -6 -14   9   69.00    6.48
  -6 -14  10   78.36    5.15
  -6 -14  10   82.54    7.09
  -6 -14  11   31.33    3.14
  -6 -14  11   29.18    4.56
  -6 -14  12   54.89    4.03
  -6 -14  12   65.23    6.24
  -6 -14  13   13.34    3.30
  -6 -14  14    0.50    2.02
  -6 -14  15   34.80    4.61
  -6 -14  16  231.31   12.27
  -6 -14  17   63.30    5.90
  -6 -14  18   24.55    3.70
   6  15 -15   11.19    2.65
   6  15 -14   13.96    2.82
   6  15 -13   69.72    5.80
   6  15 -12   37.98    4.38
   6  15 -11    2.07    1.94
  -6 -15 -11    0.21    1.12
   6  15 -10   16.90    3.30
  -6 -15 -10   15.33    2.18
   6  15  -9  149.86    9.11
  -6 -15  -9  144.10    7.24
   6  15  -8   39.71    4.73
  -6 -15  -8   52.43    4.09
   6  15  -7    8.64    2.80
  -6 -15  -7    5.23    1.83
   6  15  -6    3.46    2.19
  -6 -15  -6    5.13    1.74
   6  15  -5    9.04    2.79
  -6 -15  -5   10.27    2.32
   6  15  -4   11.56    2.87
  -6 -15  -4    8.71    2.15
  -6 -15  -3   39.42    3.87
  -6 -15  -2    2.15    1.59
  -6 -15  -1    4.34    1.79
  -6 -15   0   41.77    4.08
  -6 -15   1    5.85    1.81
  -6 -15   3   31.19    3.99
  -6 -15   4    5.35    1.88
  -6 -15   4    6.98    2.29
  -6 -15   5    9.29    2.13
  -6 -15   5    8.94    2.55
  -6 -15   6    7.36    1.98
  -6 -15   6    3.67    2.15
  -6 -15   7    5.78    1.77
  -6 -15   7    7.91    2.49
  -6 -15   8   48.37    4.08
  -6 -15   8   52.16    5.36
  -6 -15   9  142.23    7.23
  -6 -15   9  144.76    9.30
  -6 -15  10   10.90    2.80
  -6 -15  10   18.06    2.30
  -6 -15  11    4.24    2.15
  -6 -15  11    1.35    1.24
  -6 -15  12   44.10    5.00
  -6 -15  13   75.61    6.48
  -6 -15  14   10.58    2.73
  -6 -15  15    8.50    2.42
   6  16 -12    4.38    1.89
   6  16 -11    0.70    1.40
   6  16 -10   29.47    3.69
  -6 -16 -10   32.81    2.88
   6  16  -9   11.03    2.63
  -6 -16  -9   10.90    1.80
   6  16  -8  157.01    8.93
  -6 -16  -8  161.57    7.59
   6  16  -7   66.53    5.60
  -6 -16  -7   73.66    4.79
   6  16  -6    0.38    1.71
  -6 -16  -6    1.29    1.20
  -6 -16  -5   14.40    2.37
  -6 -16  -4   21.08    2.84
  -6 -16  -3    6.71    1.88
  -6 -16  -2   68.59    4.94
  -6 -16  -1   52.75    4.34
  -6 -16   0  322.94   13.15
  -6 -16   1   58.74    4.53
  -6 -16   4   23.69    2.91
  -6 -16   5    9.82    2.05
  -6 -16   5    9.13    2.46
  -6 -16   6    2.58    1.46
  -6 -16   6    0.81    1.53
  -6 -16   7   60.44    4.37
  -6 -16   7   60.68    5.42
  -6 -16   8  159.23    7.51
  -6 -16   8  141.86    8.90
  -6 -16   9   11.62    2.61
  -6 -16   9   11.93    2.04
  -6 -16  10   33.37    2.98
  -6 -16  10   33.01    4.16
  -6 -16  11    0.81    1.53
  -6 -16  12    7.94    2.33
  -6 -17  -6   16.59    2.23
  -6 -17  -5   18.89    2.38
  -6 -17  -4    6.36    1.69
  -6 -17  -3   33.35    3.25
  -6 -17  -2    1.48    1.29
  -6 -17  -1   10.92    2.10
  -6 -17   0   34.33    3.27
  -6 -17   1    9.43    2.04
  -6 -17   3   34.82    3.23
  -6 -17   4    6.65    1.65
  -6 -17   5   18.21    2.38
  -6 -17   6    8.01    1.69
  -6 -17   7   12.15    1.93
  -7   0   0    1.11    1.11
  -7   0   0   -1.09    1.98
  -7   0  -1   13.76    1.83
  -7   0   1   12.88    2.98
  -7   0  -1    9.44    2.67
  -7   0   2  449.36   16.96
  -7   0   2  443.03   19.84
  -7   0  -2  453.44   20.40
  -7   0   2  438.16   16.30
  -7   0  -2  467.41   15.57
  -7   0   3  163.03    8.32
  -7   0   3  160.13   10.30
  -7   0  -3  157.01   10.66
  -7   0  -3  170.10    7.23
  -7   0   3  156.01    7.89
  -7   0   3  154.32    7.01
  -7   0   4   30.01    3.36
  -7   0   4   35.58    4.76
  -7   0  -4   27.20    4.40
  -7   0   4   31.86    2.73
  -7   0  -4   33.59    2.80
  -7   0   4   31.36    3.34
  -7   0   5   26.02    3.17
  -7   0   5   18.99    3.57
  -7   0  -5   20.64    4.07
  -7   0   5   32.23    2.70
  -7   0   5   30.09    3.26
  -7   0  -5   31.31    2.67
  -7   0   6   59.80    4.91
  -7   0   6   69.09    6.72
  -7   0  -6   62.06    7.13
  -7   0   6   65.81    5.10
  -7   0   6   76.84    4.36
  -7   0  -6   75.52    4.37
  -7   0   7   46.89    4.30
  -7   0  -7   33.67    5.42
  -7   0  -7   39.77    3.17
  -7   0   7   31.71    4.75
  -7   0   7   36.58    3.92
  -7   0   7   44.24    3.26
  -7   0   8  106.13    6.74
  -7   0   8   91.13    5.11
  -7   0  -8  104.32    5.37
  -7   0   8   98.19    6.62
  -7   0   9   37.75    3.96
  -7   0   9   32.44    2.87
  -7   0  -9   36.91    2.94
  -7   0   9   32.14    3.79
  -7   0  10  134.85    8.13
  -7   0 -10  132.78    6.26
  -7   0  10  129.27    6.25
  -7   0  10  118.84    7.84
  -7   0  11  142.83    8.56
   7   0  11  139.18    7.73
  -7   0  11  136.38    6.51
  -7   0 -11  130.37    6.37
   7   0  11  147.17    8.01
  -7   0  11  151.95    8.93
  -7   0  12    0.86    1.92
   7   0  12    2.80    1.56
   7   0  12    1.99    1.58
  -7   0  12    3.46    1.22
  -7   0  12    0.88    1.91
  -7   0  13   57.78    5.65
   7   0  13   59.02    4.93
   7   0  13   58.49    5.08
  -7   0  13   56.85    5.61
  -7   0  14  637.78   25.64
   7   0  14  694.27   24.46
   7   0  14  676.87   24.58
  -7   0  14  687.40   25.97
  -7   0  15    1.05    2.16
   7   0  15   -0.38    1.66
   7   0  15    0.81    1.85
  -7   0  15    0.50    1.95
  -7   0  16  258.66   14.33
   7   0  16  275.07   12.95
   7   0  16  295.17   13.54
  -7   0  17  114.80    9.21
   7   0  17  115.30    7.69
   7   0  17  123.05    8.16
  -7   0  18  236.59   14.20
   7   0  18  266.03   12.89
   7   0  18  279.35   13.42
  -7   0  19   61.03    6.92
   7   0  19   50.02    5.43
   7   0  19   65.56    5.87
  -7   0  19   76.32    7.13
   7   0  20   50.21    5.31
   7   0  20   38.51    5.09
  -7   0  20   44.31    6.06
   7   0  21    0.49    2.02
   7   0  21   -3.41    2.35
  -7   0  21    0.68    2.80
   7   0  22  442.93   18.80
   7   0  22  428.46   19.61
  -7   0  22  400.46   20.37
   7   0  23   43.22    5.56
  -7   0  23   39.32    5.78
   7   0  23   27.96    4.41
   7   0  24    4.54    2.47
  -7   0  24    4.76    2.89
   7   0  24    4.34    2.26
   7   0  25   69.95    6.27
   7   0  25   77.97    7.18
  -7   0  25   84.18    7.95
   7   0  26  125.20    8.34
  -7   0  26  108.46    9.36
   7   0  27   29.69    4.27
  -7   0  27   22.61    4.39
   7   0  27   27.47    3.89
   7   0  27   23.04    3.27
   7   0  28   52.76    4.91
   7   0  28   43.10    4.91
   7   0  28   44.00    4.16
  -7   0  28   46.52    5.66
  -7   0  29    1.97    1.92
  -7   1  29  121.03    8.61
   7  -1  28   36.34    4.07
   7  -1  28   28.53    4.07
  -7   1  28   24.43    4.25
   7  -1  28   30.69    3.49
   7  -1  27  147.10    8.78
   7  -1  27  140.92    9.50
   7  -1  27  150.19    8.25
   7  -1  26  123.77    8.22
   7  -1  26  119.88    8.83
   7  -1  26  129.71    7.78
   7  -1  25   47.75    5.15
   7  -1  25   41.75    5.58
   7  -1  24    0.58    2.04
   7  -1  24    3.80    2.31
   7  -1  23   11.22    3.32
   7  -1  23   14.06    3.36
   7  -1  22   10.61    3.31
   7  -1  22    9.26    2.86
   7  -1  21  346.37   16.29
   7  -1  21  371.93   17.67
   7  -1  20   33.34    4.50
   7  -1  20   43.55    5.29
   7  -1  19  134.82    8.87
   7  -1  18   41.94    4.83
   7  -1  17   77.78    6.21
   7  -1  17   79.99    6.48
   7  -1  16   13.74    2.86
   7  -1  16   10.88    2.64
   7  -1  15  183.41    9.52
   7  -1  15  157.47    9.22
   7  -1  14   49.56    4.64
   7  -1  14   49.45    4.71
  -7   1  14   40.90    5.02
   7  -1  13  354.60   14.65
   7  -1  13  347.88   14.82
  -7   1  13  363.06   16.25
   7  -1  12  216.29   10.26
  -7  -1 -12  220.06    8.87
   7  -1  12  221.38   10.54
  -7   1  12  210.85   11.46
   7  -1  11  516.03   18.60
  -7  -1 -11  495.50   16.93
   7  -1  11  505.27   18.74
  -7   1  11  482.01   19.93
   7  -1  10  106.20    6.41
  -7  -1 -10  111.35    5.63
  -7   1  10  112.82    5.78
   7  -1  10  123.34    6.89
  -7   1  10  119.04    7.74
   7  -1   9   14.28    2.30
  -7   1   9   19.41    2.25
   7  -1   9   16.71    2.54
  -7   1   9   13.81    2.79
  -7  -1  -9   21.32    2.20
  -7   1   8    7.34    1.45
  -7  -1  -8    7.10    1.38
  -7   1   8    1.71    1.68
  -7   1   8    6.95    2.23
  -7   1   7    8.88    1.59
  -7  -1  -7   10.81    1.69
  -7   1   7   14.06    3.08
  -7   1   7    7.67    2.11
  -7   1   6    1.99    1.05
  -7  -1  -6    0.75    0.84
  -7   1   6    3.61    1.74
  -7   1   6    3.32    1.65
  -7   1   5  388.07   13.70
  -7   1   5  365.27   17.03
  -7  -1  -5  363.44   19.40
  -7  -1  -5  386.78   13.55
  -7   1   4  167.26    7.52
  -7   1   4  156.49    9.96
  -7  -1  -4  195.34   12.69
  -7  -1  -4  187.22    7.63
  -7   1   3  270.14   10.41
  -7   1   3  265.81   13.44
  -7  -1  -3  252.11   15.00
  -7  -1  -3  279.12   10.37
  -7   1   2  154.92    9.62
  -7  -1  -2  149.87   10.82
  -7  -1  -2  169.86    7.18
  -7   1   1   58.67    5.52
  -7  -1  -1   48.92    5.96
  -7  -1  -1   54.62    3.56
  -7  -1   0   13.78    1.82
  -7   1   0   13.98    1.87
  -7   1   0   16.09    3.11
  -7  -1   0   11.55    2.98
  -7  -1   0   10.65    1.79
  -7   1  -1   55.29    3.74
  -7  -1   1   51.71    5.92
  -7   1  -1   61.40    5.78
  -7  -1   1   48.84    3.75
  -7  -1   2  164.28    8.39
  -7   1  -2  167.80    7.35
  -7  -1   2  174.24   11.16
  -7   1  -2  170.40   10.30
  -7  -1   2  157.11    7.76
  -7  -1   3  270.35   11.75
  -7   1  -3  279.92   10.61
  -7  -1   3  250.60   14.35
  -7   1  -3  268.20   14.05
  -7  -1   3  279.29   11.45
  -7  -1   3  270.49   10.31
  -7  -1   4  168.01    8.67
  -7   1  -4  175.14    7.64
  -7  -1   4  173.48   11.36
  -7   1  -4  170.28   10.88
  -7  -1   4  176.76    8.56
  -7  -1   4  170.11    7.41
  -7  -1   5  374.66   15.18
  -7   1  -5  401.38   13.99
  -7  -1   5  373.21   18.50
  -7   1  -5  372.72   18.24
  -7  -1   5  392.52   13.68
  -7  -1   5  384.88   15.17
  -7  -1   6    0.32    1.32
  -7  -1   6    1.31    0.93
  -7   1  -6    2.04    1.12
  -7   1  -6   -0.63    1.61
  -7  -1   6    0.97    1.41
  -7  -1   7   12.59    2.61
  -7   1  -7   12.05    3.15
  -7   1  -7   14.35    1.97
  -7  -1   7   12.88    1.84
  -7  -1   7   13.29    2.51
  -7  -1   8    3.81    1.73
  -7   1  -8    5.72    2.51
  -7  -1   8    4.02    1.23
  -7   1  -8    5.56    1.39
  -7  -1   8    3.95    1.92
  -7  -1   9   18.58    2.98
  -7   1  -9   21.00    2.32
  -7  -1   9   19.26    2.14
  -7  -1   9   20.81    3.26
  -7  -1  10  102.07    6.92
  -7  -1  10  100.15    5.20
  -7  -1  10   83.63    6.46
  -7  -1  11  497.70   19.83
  -7  -1  11  513.71   17.13
  -7  -1  11  484.28   19.90
  -7  -1  12  220.35   11.55
   7   1  12  220.63   10.69
  -7  -1  12  235.39    9.21
   7   1  12  212.56   10.79
  -7  -1  12  223.64   11.71
  -7  -1  13  304.92   15.23
   7   1  13  358.58   14.75
  -7  -1  13  350.41   12.60
   7   1  13  345.37   14.81
  -7  -1  13  348.64   15.82
  -7  -1  14   45.21    5.26
   7   1  14   35.55    4.13
  -7  -1  14   46.05    3.34
   7   1  14   52.69    4.87
  -7  -1  14   47.24    5.27
  -7  -1  15  159.21   10.27
   7   1  15  170.59    9.48
   7   1  15  171.18    9.70
  -7  -1  15  170.33   10.48
  -7  -1  16   14.40    3.60
   7   1  16   14.19    2.90
   7   1  16    9.93    2.78
  -7  -1  17   75.96    7.27
   7   1  17   70.27    5.94
   7   1  17   72.71    6.21
  -7  -1  18   26.41    4.80
   7   1  18   32.54    4.50
   7   1  18   38.63    4.68
   7   1  19  156.35    9.44
   7   1  19  137.99    9.29
  -7  -1  19  150.43   10.83
   7   1  19  150.68    9.84
  -7  -1  19  155.15   10.37
   7   1  20   45.04    5.09
   7   1  20   42.43    4.84
  -7  -1  20   38.85    5.71
   7   1  20   38.69    5.07
  -7  -1  20   42.68    5.54
   7   1  21  317.41   15.68
  -7  -1  21  353.20   18.09
   7   1  21  344.65   16.68
  -7  -1  21  360.55   17.30
   7   1  22   11.93    3.12
   7   1  22   10.57    3.13
  -7  -1  22   13.71    3.85
   7   1  23   16.33    3.53
   7   1  23   23.30    4.23
  -7  -1  23   29.48    5.21
   7   1  24    2.18    2.25
   7   1  24    1.46    1.95
  -7  -1  24    2.03    2.55
   7   1  25   42.78    5.02
   7   1  25   46.66    5.52
  -7  -1  25   47.38    6.31
   7   1  26  120.29    8.27
   7   1  26  129.19    8.90
  -7  -1  26  125.85    9.72
   7   1  27  141.43    8.76
   7   1  27  153.59    9.44
   7   1  27  145.61    8.19
  -7  -1  27  126.24    9.66
   7   1  28   39.29    4.35
  -7  -1  28   27.66    4.44
   7   1  28   29.64    3.46
  -7  -1  29  130.50    8.90
   7  -2  28    1.86    2.22
  -7   2  28   -0.53    2.24
   7  -2  28    0.72    1.57
   7  -2  28    3.30    1.78
   7  -2  27   96.25    6.95
   7  -2  27  117.49    8.47
   7  -2  27  105.50    6.65
  -7   2  27   97.00    8.24
   7  -2  26  189.29   10.43
   7  -2  26  185.11   11.47
   7  -2  26  192.24    9.79
  -7   2  26  197.33   12.40
   7  -2  25   93.91    7.16
   7  -2  25   96.55    8.07
   7  -2  25   94.76    6.65
  -7   2  25   87.79    8.22
   7  -2  24    8.84    3.05
  -7   2  24    9.38    3.59
   7  -2  24   13.87    2.92
   7  -2  24   12.56    3.15
   7  -2  23   13.18    3.62
   7  -2  23   17.61    3.61
  -7   2  23   12.26    4.00
   7  -2  22  410.93   17.78
   7  -2  22  393.62   18.94
  -7   2  22  387.69   19.75
   7  -2  21   91.27    7.31
   7  -2  21  100.95    8.30
  -7   2  21   93.87    8.60
  -7   2  20   63.98    7.00
   7  -2  20   57.84    5.72
  -7   2  19   75.76    7.61
   7  -2  19   75.63    6.47
  -7   2  18   49.49    6.07
   7  -2  18   61.15    5.61
  -7   2  17   16.50    4.05
   7  -2  17   17.07    3.28
  -7   2  16   13.43    3.20
   7  -2  16   12.66    2.86
  -7   2  15    6.86    2.67
   7  -2  15    2.72    2.08
   7  -2  15    0.73    1.58
  -7   2  14  307.27   15.42
   7  -2  14  320.81   13.92
  -7   2  13   12.99    3.03
   7  -2  13   15.64    2.55
   7  -2  13   17.40    2.91
  -7   2  12   84.57    6.72
   7  -2  12   86.24    5.70
   7  -2  12   88.67    5.95
  -7  -2 -12   82.19    4.66
  -7   2  11  163.22    9.45
   7  -2  11  183.99    8.69
   7  -2  11  161.24    8.49
  -7  -2 -11  171.86    7.42
  -7   2  10  141.01    8.52
   7  -2  10  155.58    7.76
   7  -2  10  157.61    7.96
  -7  -2 -10  148.58    6.75
  -7   2   9   23.45    3.21
   7  -2   9   25.86    2.84
   7  -2   9   22.44    2.81
  -7  -2  -9   27.64    2.52
  -7   2   8  179.64    9.54
   7  -2   8  189.75    8.54
   7  -2   8  197.83    8.81
  -7  -2  -8  193.25    7.92
  -7   2   7  212.63   10.36
  -7   2   7  219.60    9.08
   7  -2   7  210.27    9.18
  -7   2   7  218.24   11.91
   7  -2   7  224.71    9.46
  -7  -2  -7  214.00    8.69
  -7   2   6  254.11   11.56
  -7   2   6  278.47   10.46
  -7   2   6  242.83   12.74
  -7  -2  -6  254.10    9.93
  -7   2   5   11.49    2.40
  -7   2   5   10.19    1.76
  -7   2   5    7.30    2.07
  -7  -2  -5   11.44    1.72
  -7   2   4   58.66    4.66
  -7   2   4   67.61    4.21
  -7   2   4   53.84    5.14
  -7  -2  -4   62.98    3.85
  -7   2   3  179.57    8.80
  -7   2   3  177.38    7.72
  -7   2   3  167.32    9.45
  -7  -2  -3  169.71    7.36
  -7   2   2  664.22   22.87
  -7   2   2  636.77   23.98
  -7  -2  -2  607.20   27.61
  -7  -2  -2  672.60   21.14
  -7   2   1  167.37    9.19
  -7  -2  -1  150.33   11.20
  -7  -2  -1  161.46    7.04
  -7   2   0    0.20    1.04
  -7   2   0    1.97    1.21
  -7  -2   0    2.03    1.86
  -7  -2   0    1.51    1.11
  -7  -2   0    0.36    0.95
  -7   2  -1  166.82    7.54
  -7   2  -1  184.84    9.76
  -7  -2   1  150.72   11.02
  -7  -2   1  165.59    7.14
  -7  -2   1  165.29    7.76
  -7  -2   2  676.78   22.53
  -7   2  -2  620.65   20.82
  -7  -2   2  614.29   26.55
  -7   2  -2  610.18   23.64
  -7  -2   2  637.48   21.55
  -7  -2   3  166.11    8.56
  -7   2  -3  192.71    7.94
  -7   2  -3  167.27    9.86
  -7  -2   3  166.10    7.23
  -7  -2   3  159.51    8.07
  -7  -2   4   56.73    4.59
  -7   2  -4   60.43    3.99
  -7   2  -4   57.24    5.63
  -7  -2   4   62.59    3.83
  -7  -2   4   59.52    4.57
  -7  -2   5    6.88    2.10
  -7   2  -5    6.82    1.59
  -7   2  -5    7.54    2.25
  -7  -2   5    9.05    1.57
  -7  -2   5    8.59    2.04
  -7  -2   6  231.18   11.11
  -7   2  -6  263.06   10.20
  -7   2  -6  230.58   13.10
  -7  -2   6  257.02    9.74
  -7  -2   6  245.42   11.26
  -7  -2   7  223.23   10.43
  -7   2  -7  190.68   12.04
  -7  -2   7  211.15   10.33
  -7  -2   7  215.77    8.67
  -7  -2   8  178.41    9.41
  -7  -2   8  198.49    9.89
  -7  -2   8  181.48    7.79
  -7  -2   9   24.53    3.32
  -7  -2   9   23.53    2.39
  -7  -2   9   28.63    3.63
  -7  -2  10  141.82    8.54
  -7  -2  10  153.84    6.84
  -7  -2  10  146.76    8.75
  -7  -2  11  174.86    9.67
  -7  -2  11  165.23    9.61
  -7  -2  11  168.26    7.42
  -7  -2  12   75.49    6.38
  -7  -2  12   83.07    6.66
  -7  -2  12   92.39    4.94
  -7  -2  13   12.45    3.01
   7   2  13   11.52    2.64
  -7  -2  13   15.62    2.02
   7   2  13   14.83    2.97
  -7  -2  13   17.69    3.36
  -7  -2  14  318.14   15.35
   7   2  14  319.07   14.23
  -7  -2  14  335.80   12.00
   7   2  14  301.69   14.28
  -7  -2  14  326.41   15.51
  -7  -2  15    4.17    2.21
   7   2  15    1.28    2.07
   7   2  15    0.80    1.75
  -7  -2  15    2.54    2.53
  -7  -2  16   16.11    3.36
   7   2  16   12.84    3.08
   7   2  16   15.40    3.11
  -7  -2  16   14.80    3.51
   7   2  17    9.47    2.68
   7   2  17   17.89    3.65
   7   2  17   18.97    3.51
  -7  -2  17   12.29    3.44
   7   2  18   62.96    5.65
   7   2  18   61.98    5.86
   7   2  18   52.08    5.40
  -7  -2  18   44.85    5.79
   7   2  19   90.33    6.92
   7   2  19   78.27    6.72
  -7  -2  19   74.60    7.61
   7   2  19   81.11    6.93
   7   2  20   57.83    5.70
   7   2  20   63.03    6.05
  -7  -2  20   40.62    5.94
   7   2  20   59.81    6.01
  -7  -2  20   52.83    6.07
   7   2  21  108.83    8.11
   7   2  21  101.44    7.61
  -7  -2  21   85.21    8.34
   7   2  21  104.66    8.05
  -7  -2  21   97.28    8.23
   7   2  22  415.59   18.21
  -7  -2  22  380.53   19.55
   7   2  22  415.22   18.60
  -7  -2  22  399.05   18.84
   7   2  23   16.87    3.48
  -7  -2  23   15.58    3.93
   7   2  23   15.73    3.46
  -7  -2  23   16.94    3.84
   7   2  24   12.26    3.13
   7   2  24   16.05    3.40
  -7  -2  24   12.00    3.86
   7   2  25   95.51    7.56
  -7  -2  25   81.58    8.12
   7   2  26  203.98   11.11
  -7  -2  26  188.08   12.16
   7   2  27   96.59    7.06
  -7  -2  27   88.77    7.92
  -7  -2  28    0.53    2.18
   7   2  28    1.53    1.70
   7   2  28    1.90    1.63
   7  -3  28   70.42    6.19
  -7   3  28   51.26    5.76
   7  -3  27   86.87    6.35
   7  -3  27   94.76    7.58
   7  -3  27   89.41    5.96
  -7   3  27   73.07    7.10
   7  -3  26   68.99    5.96
   7  -3  26   81.44    7.26
   7  -3  26   90.19    6.13
  -7   3  26   82.30    7.61
   7  -3  25    8.56    3.16
  -7   3  25   11.99    3.70
   7  -3  25    8.22    2.54
   7  -3  25   10.38    2.57
   7  -3  24   14.76    3.67
  -7   3  24   21.57    4.57
   7  -3  24   20.31    3.63
   7  -3  24   18.67    3.13
   7  -3  23   37.51    4.63
   7  -3  23   33.00    5.20
  -7   3  23   37.34    5.57
   7  -3  23   43.59    4.50
   7  -3  22   56.55    5.74
   7  -3  22   68.73    7.00
  -7   3  22   63.22    7.20
  -7   3  21  276.69   15.69
   7  -3  21  277.98   13.68
   7  -3  20    4.15    2.25
  -7   3  20    3.27    2.70
  -7   3  19   84.21    8.01
   7  -3  19  106.03    7.52
  -7   3  18  151.88   10.75
   7  -3  18  158.01    9.34
  -7   3  17   98.59    8.29
   7  -3  17  111.51    7.47
  -7   3  16   28.06    4.36
   7  -3  16   24.17    3.54
  -7   3  15   27.10    4.16
   7  -3  15   20.67    3.25
  -7   3  14   29.56    4.36
   7  -3  14   38.35    4.00
  -7   3  13  393.75   17.82
   7  -3  13  441.64   16.65
   7  -3  13  411.31   16.10
  -7   3  12  203.96   11.17
   7  -3  12  195.42    9.51
   7  -3  12  213.95   10.01
  -7  -3 -12  218.80    8.65
  -7   3  11  305.50   14.19
   7  -3  11  317.04   12.65
   7  -3  11  322.60   12.90
  -7  -3 -11  305.40   11.48
  -7   3  10  154.42    8.97
   7  -3  10  155.29    7.60
   7  -3  10  144.92    7.57
  -7  -3 -10  162.12    7.02
  -7   3   9   10.38    2.32
   7  -3   9    7.34    1.67
   7  -3   9    7.57    1.77
  -7  -3  -9    5.51    1.37
  -7   3   8   45.15    4.37
   7  -3   8   46.21    3.52
   7  -3   8   39.10    3.35
  -7  -3  -8   48.94    3.34
  -7   3   7   22.91    3.22
   7  -3   7   18.41    2.22
   7  -3   7   23.86    2.53
  -7  -3  -7   26.53    2.53
  -7   3   6   29.44    3.37
   7  -3   6   23.14    2.40
  -7  -3  -6   30.78    2.69
  -7   3   5  769.36   26.06
  -7  -3  -5  754.84   24.06
  -7   3   4  323.57   13.82
  -7  -3  -4  364.00   12.60
  -7   3   3  301.38   12.79
  -7  -3  -3  314.90   11.44
  -7   3   2  117.37    6.75
  -7   3   2  106.35    6.46
  -7  -3  -2  118.57    5.66
  -7   3   1  170.41    8.69
  -7  -3  -1  194.81    7.85
  -7   3   0   74.38    5.13
  -7  -3   0   73.62    4.60
  -7  -3   0   79.14    4.39
  -7   3  -1  176.93    8.89
  -7  -3   1  184.83    8.38
  -7  -3   1  191.86    7.85
  -7   3  -2  104.05    6.52
  -7  -3   2  107.03    6.17
  -7  -3   3  328.89   13.44
  -7  -3   3  327.09   13.08
  -7  -3   3  322.81   11.80
  -7  -3   4  322.41   13.36
  -7  -3   4  317.97   13.10
  -7  -3   4  325.50   11.82
  -7  -3   5  804.82   27.27
  -7  -3   5  850.01   25.51
  -7  -3   6   27.58    3.25
  -7  -3   6   25.40    2.39
  -7  -3   6   25.27    3.24
  -7  -3   7   20.22    2.98
  -7  -3   7   21.12    2.30
  -7  -3   7   22.11    3.15
  -7  -3   8   45.42    4.36
  -7  -3   8   41.67    3.19
  -7  -3   8   47.01    4.56
  -7  -3   9    9.24    2.26
  -7  -3   9    5.65    1.30
  -7  -3   9    9.74    2.35
  -7  -3  10  147.72    8.62
  -7  -3  10  146.78    8.77
  -7  -3  10  142.38    6.64
  -7  -3  11  326.90   14.62
  -7  -3  11  313.47   14.66
  -7  -3  11  321.74   11.92
  -7  -3  12  221.58   11.69
  -7  -3  12  220.44    9.01
  -7  -3  12  227.27   11.90
  -7  -3  13  387.10   17.56
  -7  -3  13  418.10   18.02
  -7  -3  13  418.66   14.51
  -7  -3  14   28.66    4.30
   7   3  14   34.09    4.20
   7   3  14   33.29    4.31
  -7  -3  14   32.87    2.85
  -7  -3  14   42.04    4.88
   7   3  15   31.58    4.01
  -7  -3  15   25.26    4.02
   7   3  15   30.69    3.77
  -7  -3  15   23.73    4.23
   7   3  16   23.64    3.95
   7   3  16   20.58    3.62
  -7  -3  16   24.46    4.30
   7   3  16   21.76    3.44
  -7  -3  16   18.23    3.63
   7   3  17  105.40    7.60
   7   3  17  100.56    7.65
  -7  -3  17  100.57    8.30
   7   3  17   92.36    7.08
  -7  -3  17  119.59    8.80
   7   3  18  154.50    9.55
   7   3  18  153.48    9.67
   7   3  18  150.58    9.35
  -7  -3  18  162.67   10.89
   7   3  19   96.58    7.37
   7   3  19   92.73    7.44
  -7  -3  19   85.95    8.06
   7   3  19   97.50    7.42
   7   3  20    1.50    2.34
   7   3  20    0.47    2.04
  -7  -3  20    0.65    2.44
   7   3  20    0.49    1.70
  -7  -3  20    2.93    2.74
   7   3  21  267.38   13.54
   7   3  21  296.19   14.42
  -7  -3  21  247.06   15.05
   7   3  21  290.14   14.22
  -7  -3  21  282.33   14.87
   7   3  22   55.88    5.92
  -7  -3  22   76.02    7.61
   7   3  22   62.33    6.12
  -7  -3  22   68.28    6.90
   7   3  23   28.22    4.40
  -7  -3  23   27.79    5.22
   7   3  23   29.96    4.29
  -7  -3  23   38.91    5.19
  -7  -3  24   16.22    4.03
   7   3  24   25.60    4.18
  -7  -3  24   14.62    3.41
  -7  -3  25    8.78    3.24
   7   3  25   10.22    2.94
   7   3  26   85.33    6.73
  -7  -3  26   81.94    7.63
   7   3  27   86.22    6.66
  -7  -3  27   86.70    7.62
   7   3  28   58.88    5.25
   7   3  28   61.78    4.88
  -7  -3  28   60.72    6.10
   7  -4  28   41.55    4.79
   7  -4  27   99.67    6.66
   7  -4  27  103.28    7.82
   7  -4  27   99.47    6.21
  -7   4  27   95.73    7.70
   7  -4  26   27.24    4.39
  -7   4  26   34.40    4.91
   7  -4  26   31.02    3.97
   7  -4  26   41.41    4.04
   7  -4  25   36.43    4.38
   7  -4  25   36.67    5.11
  -7   4  25   35.49    5.15
   7  -4  25   41.78    4.18
   7  -4  24    4.69    2.62
  -7   4  24    0.63    2.46
   7  -4  24    6.00    2.33
   7  -4  24    3.90    2.02
   7  -4  23   44.20    4.96
   7  -4  23   31.03    4.90
  -7   4  23   29.72    4.98
   7  -4  23   42.73    4.42
   7  -4  22  151.10    9.14
   7  -4  22  125.88    9.54
   7  -4  22  129.46    7.93
  -7   4  22  132.30   10.14
   7  -4  21   34.53    4.33
  -7   4  21   25.57    4.72
   7  -4  21   27.76    3.66
  -7   4  20   40.72    5.64
   7  -4  20   30.93    4.21
   7  -4  19   28.02    3.93
  -7   4  19   30.90    5.20
   7  -4  18   24.60    3.65
  -7   4  18   25.15    4.64
  -7   4  17   28.97    4.87
   7  -4  17   35.52    4.19
  -7   4  16   26.49    4.43
   7  -4  16   31.05    3.81
  -7   4  15   60.53    6.08
   7  -4  15   53.90    4.85
  -7   4  14  160.63   10.08
   7  -4  14  159.31    8.51
  -7   4  13  225.40   12.04
   7  -4  13  205.14   10.05
  -7  -4 -13  232.35    9.01
  -7   4  12   89.82    6.94
   7  -4  12   98.09    5.91
  -7  -4 -12   84.03    4.76
  -7   4  11   74.12    6.10
   7  -4  11   69.55    4.83
  -7  -4 -11   76.05    4.37
  -7   4  10    1.19    1.60
   7  -4  10    0.92    1.05
   7  -4  10    1.23    1.17
  -7  -4 -10   -0.19    0.89
  -7   4   9   46.32    4.53
  -7  -4  -9   56.96    3.75
  -7   4   8   77.59    5.81
  -7  -4  -8   75.59    4.43
  -7   4   7  113.46    7.06
  -7  -4  -7  118.57    5.78
  -7   4   6  233.74   11.23
  -7  -4  -6  268.01   10.03
  -7   4   5  496.80   18.40
  -7  -4  -5  487.45   16.65
  -7   4   4  193.78    9.36
  -7  -4  -4  190.78    8.07
  -7   4   3  357.27   14.08
  -7  -4  -3  335.67   12.45
  -7   4   2   75.65    5.31
  -7  -4  -2   88.16    4.78
  -7   4   1  335.15   13.32
  -7  -4  -1  310.29   11.71
  -7  -4   0  175.65    8.06
  -7  -4   0  186.67    7.84
  -7  -4   1  320.83   13.05
  -7  -4   1  313.70   12.37
  -7  -4   1  310.36   11.62
  -7  -4   2   74.60    5.21
  -7  -4   2   76.91    5.07
  -7  -4   3  351.54   14.16
  -7  -4   3  324.97   13.68
  -7  -4   3  370.33   12.86
  -7  -4   4  197.67    9.56
  -7  -4   4  208.72    9.66
  -7  -4   4  191.93    8.19
  -7  -4   5  475.76   17.76
  -7  -4   5  463.77   17.77
  -7  -4   5  465.17   15.99
  -7  -4   6  240.49   11.20
  -7  -4   6  222.77   11.11
  -7  -4   7  108.25    7.04
  -7  -4   7  126.15    7.61
  -7  -4   7  132.24    6.15
  -7  -4   8   81.06    5.91
  -7  -4   8   75.97    5.87
  -7  -4   8   76.62    4.52
  -7  -4   9   41.87    4.31
  -7  -4   9   41.59    3.21
  -7  -4   9   49.68    4.83
  -7  -4  10    2.76    1.58
  -7  -4  10    1.01    1.04
  -7  -4  10    0.84    1.84
  -7  -4  11   77.60    6.11
  -7  -4  11   57.09    3.90
  -7  -4  11   69.78    6.05
  -7  -4  12   96.45    7.20
  -7  -4  12   98.58    7.51
  -7  -4  12  105.27    5.43
  -7  -4  13  210.85   11.70
   7   4  13  211.30   10.18
  -7  -4  13  232.81    9.18
  -7  -4  13  224.24   12.15
   7   4  14  163.40    9.54
   7   4  14  179.46   10.10
  -7  -4  14  164.44   10.26
   7   4  14  163.38    8.84
  -7  -4  14  177.92    7.57
  -7  -4  14  178.09   10.65
   7   4  15   48.12    5.01
   7   4  15   51.52    5.26
  -7  -4  15   44.82    5.17
   7   4  15   39.25    4.19
  -7  -4  15   57.34    5.94
   7   4  16   30.03    4.19
   7   4  16   38.77    4.83
  -7  -4  16   27.18    4.41
   7   4  16   31.95    3.87
  -7  -4  16   31.62    4.65
   7   4  17   38.90    4.68
   7   4  17   33.14    4.42
  -7  -4  17   30.83    4.80
   7   4  17   29.49    3.87
   7   4  18   30.44    4.25
   7   4  18   28.01    4.15
   7   4  18   23.97    3.57
  -7  -4  18   23.60    4.43
   7   4  19   28.09    4.17
   7   4  19   24.48    4.11
   7   4  19   29.48    3.94
  -7  -4  19   26.11    4.55
  -7  -4  20   23.52    4.57
   7   4  20   22.72    4.09
   7   4  20   34.41    4.60
  -7  -4  21   24.56    4.72
   7   4  21   19.74    3.91
   7   4  21   31.61    4.26
  -7  -4  21   22.37    4.42
  -7  -4  22  126.12    9.87
   7   4  22  125.01    8.90
   7   4  22  116.39    8.30
  -7  -4  23   38.91    5.60
   7   4  23   39.80    4.89
  -7  -4  23   40.89    5.29
  -7  -4  24    0.62    2.19
   7   4  24    2.85    2.17
  -7  -4  24    3.21    2.55
  -7  -4  25   47.09    5.97
   7   4  25   47.23    5.09
  -7  -4  25   45.21    5.29
  -7  -4  26   32.56    4.85
  -7  -4  27  104.84    8.23
  -7   5  27   45.02    5.09
   7  -5  26   98.42    6.15
  -7   5  26  107.17    8.09
   7  -5  26   99.77    6.69
   7  -5  25   43.79    4.14
  -7   5  25   45.23    5.55
   7  -5  25   44.91    4.51
  -7   5  24   17.14    3.89
   7  -5  24   12.65    2.94
   7  -5  24   17.09    2.80
  -7   5  23   15.34    3.86
   7  -5  23   18.02    3.20
   7  -5  23   17.67    2.85
  -7   5  22   16.90    4.12
   7  -5  22   18.76    3.28
   7  -5  22   16.55    2.81
  -7   5  21  143.45   10.48
   7  -5  21  139.84    8.07
   7  -5  21  146.67    8.82
  -7   5  20   48.44    6.03
   7  -5  20   45.73    4.36
   7  -5  20   51.17    5.02
  -7   5  19   67.85    7.05
   7  -5  19   67.22    5.26
   7  -5  19   68.07    5.73
  -7   5  18   29.48    4.76
   7  -5  18   25.63    3.26
   7  -5  18   37.22    4.13
   7  -5  17   12.94    2.70
  -7   5  17   20.46    3.93
   7  -5  16   24.48    3.28
  -7   5  16   25.26    4.22
  -7   5  15   52.96    5.68
   7  -5  15   57.37    4.73
  -7   5  14  108.33    8.03
   7  -5  14  101.65    6.32
  -7   5  13  467.83   20.33
  -7  -5 -13  513.04   16.99
  -7   5  12  124.99    8.36
  -7  -5 -12  129.10    6.16
  -7   5  11  109.06    7.63
  -7  -5 -11  125.05    6.01
  -7   5  10   67.24    5.60
  -7  -5 -10   61.03    3.95
  -7   5   9   62.55    5.24
  -7  -5  -9   59.12    3.92
  -7   5   8   48.56    4.65
  -7  -5  -8   61.32    3.88
  -7   5   7  125.51    7.47
  -7  -5  -7  127.20    6.20
  -7   5   6  341.04   14.01
  -7  -5  -6  328.43   12.27
  -7   5   5  333.44   13.92
  -7  -5  -5  342.42   12.54
  -7   5   4  125.36    7.11
  -7  -5  -4  119.29    6.02
  -7   5   3  222.56   10.51
  -7  -5  -3  248.11    9.68
  -7   5   2  348.50   13.79
  -7  -5  -2  329.77   12.40
  -7   5   1  281.53   12.16
  -7  -5  -1  298.39   11.24
  -7  -5   0  103.97    6.47
  -7   5   0  121.60    6.84
  -7  -5   0  114.66    5.75
  -7  -5   0  115.86    6.21
  -7  -5   1  298.91   12.39
  -7  -5   1  308.93   11.28
  -7  -5   2  352.56   14.10
  -7  -5   2  365.29   14.16
  -7  -5   3  244.11   10.79
  -7  -5   3  229.02    9.40
  -7  -5   3  239.17   10.69
  -7  -5   4  108.28    6.57
  -7  -5   4  112.01    6.75
  -7  -5   4  110.23    5.63
  -7  -5   5  333.88   13.64
  -7  -5   5  316.59   13.75
  -7  -5   5  332.26   12.23
  -7  -5   6  341.41   14.06
  -7  -5   6  329.48   14.31
  -7  -5   6  338.63   12.47
  -7  -5   7  123.97    7.57
  -7  -5   7  141.64    8.29
  -7  -5   7  142.41    6.57
  -7  -5   8   57.54    4.99
  -7  -5   8   50.17    4.88
  -7  -5   8   67.96    4.15
  -7  -5   9   63.55    5.40
  -7  -5   9   66.51    5.75
  -7  -5   9   68.29    4.22
  -7  -5  10   67.47    5.62
  -7  -5  10   71.34    6.17
  -7  -5  10   61.26    4.05
  -7  -5  11  124.18    8.05
  -7  -5  11  114.43    5.94
  -7  -5  11  124.57    8.35
  -7  -5  12  121.48    8.12
  -7  -5  12  114.50    5.90
  -7  -5  12  125.85    8.52
  -7  -5  13  460.54   20.23
  -7  -5  13  516.10   21.14
  -7  -5  13  511.65   17.15
  -7  -5  14  106.49    8.06
  -7  -5  14  113.56    5.79
  -7  -5  15   56.82    5.92
   7   5  15   45.22    5.11
   7   5  15   50.78    5.45
  -7  -5  15   49.31    3.51
  -7  -5  15   50.18    5.75
  -7  -5  16   30.66    4.60
   7   5  16   22.50    4.00
   7   5  16   24.50    4.09
  -7  -5  16   28.98    4.40
  -7  -5  17   20.32    3.86
   7   5  17   13.71    3.43
   7   5  17   15.24    3.37
  -7  -5  17   14.88    3.85
  -7  -5  18   35.25    5.18
   7   5  18   38.83    4.76
   7   5  18   35.40    4.72
  -7  -5  18   43.18    5.34
  -7  -5  19   68.01    7.03
   7   5  19   72.19    6.42
   7   5  19   62.43    6.31
  -7  -5  20   43.75    5.80
  -7  -5  21  129.32    9.94
  -7  -5  21  152.84   10.33
  -7  -5  22   21.15    4.40
  -7  -5  22   17.25    3.91
  -7  -5  23   22.57    4.41
  -7  -5  23   21.04    4.15
  -7  -5  24   10.00    3.31
  -7  -5  24   15.21    3.48
  -7  -5  25   46.73    5.75
  -7  -5  25   52.82    5.48
  -7  -5  26   98.10    7.96
  -7  -5  26  108.95    7.77
   7   5  27   48.81    4.76
  -7  -5  27   52.95    5.44
   7  -6  27   54.70    5.44
   7  -6  26   39.00    4.90
  -7   6  25   48.57    5.51
   7  -6  25   42.89    5.38
  -7   6  24   19.36    3.81
   7  -6  24   18.98    3.88
  -7   6  23   27.22    4.49
   7  -6  23   31.04    4.75
  -7   6  22   70.39    7.03
   7  -6  22   62.92    6.75
  -7   6  21   98.41    8.37
  -7   6  20    6.60    3.15
  -7   6  19   52.49    6.15
  -7   6  18   53.14    6.19
  -7   6  17   50.08    5.87
  -7   6  16   39.80    5.03
  -7   6  15   48.85    5.49
  -7   6  14   84.06    7.10
  -7   6  13  496.06   20.94
  -7  -6 -13  523.25   17.48
  -7   6  12  199.49   11.08
  -7  -6 -12  212.02    8.71
  -7   6  11   22.79    3.51
  -7  -6 -11   22.03    2.41
  -7   6  10   10.56    2.71
  -7  -6 -10   15.53    2.06
  -7   6   9  456.96   18.41
  -7  -6  -9  469.06   16.18
  -7   6   8  109.73    7.11
  -7  -6  -8  115.59    5.90
  -7   6   7  228.43   10.85
  -7  -6  -7  225.14    9.31
  -7   6   6   63.79    4.94
  -7  -6  -6   51.87    3.74
  -7   6   5 1014.33   33.48
  -7  -6  -5 1033.95   31.99
  -7   6   4  431.97   16.57
  -7  -6  -4  433.01   15.37
  -7   6   3  607.64   21.44
  -7  -6  -3  601.67   20.18
  -7   6   2    7.80    1.90
  -7  -6  -2    6.10    1.61
  -7  -6  -1  213.48    9.87
  -7   6   1  220.79    9.91
  -7  -6  -1  200.68    8.77
  -7  -6   0   69.77    4.88
  -7   6   0   58.01    4.56
  -7  -6   0   69.37    4.35
  -7  -6   0   58.47    4.33
  -7  -6   1  228.12   10.06
  -7   6  -1  205.78    9.83
  -7  -6   1  203.15    8.93
  -7  -6   1  222.36    9.87
  -7  -6   2    6.28    1.63
  -7  -6   2    4.59    1.79
  -7  -6   3  566.27   20.43
  -7  -6   3  580.99   20.88
  -7  -6   4  450.66   17.03
  -7  -6   4  446.96   15.72
  -7  -6   4  440.34   17.39
  -7  -6   5  993.05   32.66
  -7  -6   5 1000.86   31.15
  -7  -6   5  988.14   33.37
  -7  -6   6   65.19    5.05
  -7  -6   6   69.91    4.34
  -7  -6   6   58.37    5.20
  -7  -6   7  221.96   10.85
  -7  -6   7  232.42   11.58
  -7  -6   7  238.23    9.62
  -7  -6   8  101.32    6.78
  -7  -6   8  111.22    7.51
  -7  -6   8  105.18    5.64
  -7  -6   9  474.09   18.45
  -7  -6   9  444.22   18.85
  -7  -6   9  458.69   16.12
  -7  -6  10   19.05    3.15
  -7  -6  10   17.47    2.22
  -7  -6  10   16.13    3.18
  -7  -6  11   33.07    4.18
  -7  -6  11   34.83    3.05
  -7  -6  11   32.65    4.41
  -7  -6  12  194.90   10.84
  -7  -6  12  203.29    8.53
  -7  -6  12  177.83   10.88
  -7  -6  13  477.55   20.41
  -7  -6  13  504.77   17.22
  -7  -6  13  516.54   21.44
  -7  -6  14   81.64    6.95
  -7  -6  14   87.24    4.95
  -7  -6  14   90.24    7.58
  -7  -6  15   50.54    5.68
  -7  -6  15   60.49    6.22
  -7  -6  15   58.93    3.89
  -7  -6  16   38.22    4.98
  -7  -6  16   42.25    5.27
  -7  -6  17   62.16    6.42
  -7  -6  17   61.85    6.51
  -7  -6  18   58.52    6.41
  -7  -6  18   70.97    7.02
  -7  -6  19   30.32    4.78
  -7  -6  20    8.38    2.98
  -7  -6  21   79.71    7.63
  -7  -6  22   53.79    6.19
   7   6  22   69.76    6.09
   7   6  22   70.08    6.33
  -7  -6  22   68.07    6.76
  -7  -6  23   28.90    4.68
   7   6  23   36.80    4.59
  -7  -6  23   38.53    5.08
  -7  -6  24   22.65    4.01
   7   6  24   25.21    4.02
  -7  -6  24   18.85    3.63
  -7  -6  25   62.30    6.17
   7   6  25   49.92    5.14
  -7  -6  25   65.95    6.04
  -7  -6  26   43.48    4.91
   7   6  26   41.18    4.41
  -7  -6  26   45.62    4.85
   7   6  27   50.31    4.72
   7  -7  26   66.83    6.05
   7  -7  25   75.86    6.71
   7  -7  24   21.25    4.15
   7  -7  23   42.07    5.24
  -7   7  22   29.06    4.49
   7  -7  22   37.94    5.34
  -7   7  21   68.94    6.76
  -7   7  20   27.25    4.46
  -7   7  19  131.41    9.42
  -7   7  18  117.94    8.97
  -7   7  17   92.27    7.63
  -7   7  16   39.31    5.00
  -7   7  15  122.37    8.73
  -7   7  14   96.11    7.54
  -7   7  13   25.22    3.94
  -7  -7 -13   24.28    2.55
  -7   7  12    9.98    2.78
  -7  -7 -12   12.69    1.97
  -7   7  11  134.15    8.53
  -7  -7 -11  141.58    6.75
  -7   7  10   55.78    5.15
  -7  -7 -10   60.53    4.11
  -7   7   9    8.09    2.14
  -7  -7  -9   11.20    1.90
  -7   7   8   76.85    5.81
  -7  -7  -8   79.61    4.85
  -7   7   7  833.76   28.82
  -7  -7  -7  855.51   27.18
  -7   7   6  251.83   11.52
  -7  -7  -6  257.77   10.44
  -7   7   5   47.71    4.24
  -7  -7  -5   47.44    3.68
  -7   7   4   79.13    5.50
  -7  -7  -4   77.69    4.83
  -7   7   3  213.80    9.93
   7   7  -3  199.02    9.56
  -7  -7  -3  231.75    9.46
  -7  -7  -2  336.39   13.95
  -7   7   2  353.74   14.14
   7   7  -2  367.72   13.99
  -7  -7  -2  368.63   13.58
  -7  -7  -1   54.44    4.30
  -7   7   1   53.03    4.27
   7   7  -1   49.65    4.03
  -7  -7  -1   62.16    4.16
  -7  -7   0    6.71    1.64
  -7   7   0    4.95    1.43
  -7  -7   0    5.67    1.63
  -7   7  -1   59.75    4.56
  -7  -7   1   68.06    4.81
  -7  -7   1   68.49    4.48
  -7  -7   1   59.17    4.69
  -7   7  -2  375.42   14.38
  -7  -7   2  354.72   14.13
  -7  -7   2  343.59   14.51
  -7  -7   3  223.75   10.15
  -7  -7   3  211.92   10.53
  -7  -7   4   74.17    5.24
  -7  -7   4   73.15    4.69
  -7  -7   4   70.77    5.63
  -7  -7   5   49.25    4.27
  -7  -7   5   44.39    3.61
  -7  -7   5   37.26    4.18
  -7  -7   6  226.77   10.96
  -7  -7   6  250.20   10.20
  -7  -7   6  252.08   12.20
  -7  -7   7  806.31   27.76
  -7  -7   7  804.61   26.01
  -7  -7   7  795.28   28.75
  -7  -7   8   76.29    5.87
  -7  -7   8   87.48    5.09
  -7  -7   8   78.84    6.48
  -7  -7   9   15.59    2.94
  -7  -7   9   14.64    2.14
  -7  -7   9   12.65    3.05
  -7  -7  10   62.31    5.56
  -7  -7  10   73.54    6.50
  -7  -7  10   70.14    4.50
  -7  -7  11  130.51    8.35
  -7  -7  11  137.51    9.33
  -7  -7  11  130.82    6.60
  -7  -7  12    9.63    2.73
  -7  -7  12    9.96    2.86
  -7  -7  12   10.67    1.86
  -7  -7  13   25.98    4.00
  -7  -7  13   19.78    2.41
  -7  -7  14   93.21    7.48
  -7  -7  14  102.31    5.49
  -7  -7  14  101.91    8.24
  -7  -7  15  123.09    8.95
  -7  -7  15  144.86    9.90
  -7  -7  15  128.53    6.30
  -7  -7  16   39.31    5.06
  -7  -7  16   39.12    5.26
  -7  -7  17   82.25    7.35
   7   7  17   98.14    7.46
   7   7  17   88.46    7.44
  -7  -7  17   89.59    7.89
  -7  -7  18  129.58    9.43
   7   7  18  121.87    8.49
   7   7  18  122.24    8.72
  -7  -7  18  134.50    9.74
  -7  -7  19  132.05    9.82
   7   7  19  156.04    9.64
   7   7  19  158.80    9.89
  -7  -7  19  155.58   10.75
   7   7  20   34.48    4.47
   7   7  20   27.97    4.20
  -7  -7  21   68.66    6.85
   7   7  21   89.14    6.82
   7   7  21   72.01    6.50
  -7  -7  22   25.71    4.26
   7   7  22   34.18    4.30
   7   7  22   35.78    4.59
  -7  -7  22   31.53    4.65
  -7  -7  23   31.02    4.51
   7   7  23   40.34    4.66
  -7  -7  23   38.31    4.98
   7   7  24   22.91    3.55
  -7  -7  24   24.95    4.12
   7   7  25   65.12    5.68
  -7  -7  25   75.55    6.29
   7   7  26   65.82    5.43
  -7  -7  26   69.64    5.75
   7  -8  25   22.97    3.77
   7  -8  24    7.92    2.56
   7  -8  23   37.66    5.02
   7  -8  22   10.83    3.04
  -7   8  18    5.05    2.31
  -7   8  17   33.77    4.67
  -7   8  16  146.26    9.54
  -7   8  15  125.53    8.57
  -7   8  14    4.71    2.30
  -7   8  13  112.35    7.99
  -7  -8 -13  127.25    6.25
  -7   8  12  372.89   16.20
  -7  -8 -12  362.55   13.50
  -7   8  11  278.60   13.40
  -7  -8 -11  294.99   11.43
  -7   8  10   33.79    4.04
  -7  -8 -10   35.22    3.22
  -7   8   9   75.31    5.79
  -7  -8  -9   72.09    4.68
  -7   8   8   69.84    5.43
  -7  -8  -8   68.39    4.62
  -7   8   7   57.61    4.87
  -7  -8  -7   64.91    4.42
  -7   8   6  160.97    8.57
  -7  -8  -6  170.20    7.95
  -7   8   5  391.63   15.56
  -7  -8  -5  406.92   14.96
  -7   8   4   56.91    4.52
   7   8  -4   50.61    4.52
  -7  -8  -4   60.17    4.37
  -7   8   3   96.07    5.93
   7   8  -3   93.73    6.13
  -7  -8  -3   98.94    5.72
  -7   8   2   32.47    3.34
   7   8  -2   35.16    3.66
  -7  -8  -2   34.25    3.28
  -7   8   1  136.75    7.28
   7   8  -1  135.06    7.35
  -7  -8  -1  138.72    7.14
  -7   8   0   67.78    4.83
   7   8   0   72.92    5.04
  -7  -8   0   77.86    4.95
  -7   8  -1  135.61    7.24
   7   8   1  139.97    7.24
  -7  -8   1  142.41    7.17
  -7  -8   1  135.84    7.76
  -7   8  -2   34.97    3.44
  -7  -8   2   34.56    3.81
  -7   8  -3   99.12    5.98
  -7  -8   3   93.25    6.63
  -7   8  -4   58.20    4.55
  -7  -8   4   66.49    4.57
  -7  -8   4   59.54    5.29
  -7  -8   5  443.37   16.11
  -7  -8   5  432.55   18.08
  -7  -8   6  150.48    8.28
  -7  -8   6  152.76    7.57
  -7  -8   6  160.83    9.45
  -7  -8   7   56.58    4.91
  -7  -8   7   63.77    4.47
  -7  -8   7   61.92    5.74
  -7  -8   8   54.39    4.98
  -7  -8   8   72.93    4.70
  -7  -8   8   67.77    6.08
  -7  -8   9   72.49    5.88
  -7  -8   9   85.41    5.13
  -7  -8   9   75.31    6.81
  -7  -8  10   40.82    4.37
  -7  -8  10   40.38    3.51
  -7  -8  10   36.97    4.77
  -7  -8  11  294.34   13.64
  -7  -8  11  288.80   14.61
  -7  -8  11  268.56   11.16
  -7  -8  12  384.37   17.39
  -7  -8  12  410.72   18.84
  -7  -8  12  433.93   15.24
  -7  -8  13  100.71    7.60
  -7  -8  13  102.52    5.72
  -7  -8  14    4.40    2.38
  -7  -8  14    5.35    1.45
  -7  -8  14    8.09    3.19
  -7  -8  15  126.88    8.85
   7   8  15  115.33    8.38
   7   8  15  128.59    8.90
  -7  -8  15  133.72    6.43
  -7  -8  15  149.12   10.14
  -7  -8  16  135.44    9.37
   7   8  16  130.70    8.96
   7   8  16  151.59    9.64
  -7  -8  16  163.95   10.84
   7   8  17   37.27    4.77
   7   8  17   33.31    4.47
  -7  -8  17   35.96    5.18
   7   8  18    3.45    2.26
   7   8  18    4.17    2.39
  -7  -8  18    5.98    3.09
   7   8  19  123.91    8.39
   7   8  19  131.06    8.87
  -7  -8  19  139.31    9.86
   7   8  20   47.02    5.02
   7   8  20   51.15    5.39
   7   8  21   79.11    6.34
   7   8  21   74.24    6.41
   7   8  22   12.28    2.83
   7   8  22   15.52    2.97
   7   8  23   38.83    4.40
  -7  -8  23   35.53    4.74
   7   8  24   12.66    2.80
  -7  -8  24   14.32    3.17
   7   8  25   24.30    3.37
  -7  -8  25   27.94    3.81
   7  -9  24   35.44    4.39
   7  -9  23   25.55    3.93
   7  -9  22   55.62    5.76
   7  -9  21   20.36    3.78
  -7  -9 -12    7.51    1.71
  -7  -9 -11   39.61    3.45
  -7  -9 -10  344.55   13.23
  -7  -9  -9   44.48    3.71
  -7  -9  -8   70.58    4.78
  -7  -9  -7  595.48   20.62
  -7  -9  -6   41.18    3.63
   7   9  -5   81.62    6.12
  -7  -9  -5   76.93    5.17
   7   9  -4   45.17    4.38
  -7  -9  -4   36.47    3.50
   7   9  -3  130.66    7.81
  -7  -9  -3  143.68    7.40
   7   9  -2  228.54   10.73
  -7  -9  -2  219.43    9.97
   7   9  -1   95.60    6.23
  -7  -9  -1  100.73    5.96
   7   9   0   37.16    3.73
  -7  -9   0   37.51    3.62
   7   9   1   85.72    5.72
  -7  -9   1   89.61    6.32
  -7  -9   1   99.54    5.91
   7   9   2  195.67    9.10
  -7  -9   2  177.59    9.72
  -7  -9   3  122.12    7.88
  -7  -9   4   45.10    3.91
  -7  -9   4   40.42    4.64
  -7  -9   5   69.35    4.88
  -7  -9   5   69.17    6.03
  -7  -9   6   50.03    4.03
  -7  -9   6   37.36    4.67
  -7  -9   7  589.49   20.75
  -7  -9   7  615.33   23.82
  -7  -9   8   65.81    4.69
  -7  -9   8   65.44    6.21
  -7  -9   9   42.22    3.73
  -7  -9   9   52.36    5.61
  -7  -9  10  310.72   12.52
  -7  -9  10  329.49   15.93
  -7  -9  11   51.26    5.78
  -7  -9  11   43.29    3.74
  -7  -9  12    7.48    1.76
  -7  -9  12    9.10    3.33
  -7  -9  13   29.55    2.95
  -7  -9  13   25.58    4.38
  -7  -9  14   67.47    6.89
  -7  -9  14   69.66    4.48
   7   9  15  255.08   13.11
   7   9  15  270.95   13.56
  -7  -9  15  248.66   10.16
  -7  -9  15  281.03   14.97
   7   9  16   72.74    6.28
   7   9  16   60.90    6.04
  -7  -9  16   74.45    7.22
   7   9  17  177.58   10.44
   7   9  17  181.32   10.83
   7   9  18  114.69    7.91
   7   9  18  107.92    8.02
  -7  -9  18  110.52    8.89
   7   9  19   61.80    5.75
   7   9  19   54.34    5.54
  -7  -9  19   72.94    6.91
   7   9  20   17.59    3.25
   7   9  20   21.49    3.69
  -7  -9  20   18.53    3.86
   7   9  21   21.40    3.58
   7   9  21   19.57    3.37
   7   9  22   55.74    5.24
   7   9  22   68.44    5.53
   7   9  23   23.61    3.50
  -7  -9  23   22.02    3.73
   7   9  24   29.49    3.62
  -7  -9  24   28.58    3.94
   7 -10  23   53.02    5.26
   7 -10  22   43.53    4.87
   7 -10  21   75.92    6.62
  -7 -10 -12   54.00    4.03
  -7 -10 -11   60.82    4.33
  -7 -10 -10   14.72    2.33
  -7 -10  -9    2.66    1.44
  -7 -10  -8    5.19    1.73
   7  10  -7  138.82    8.65
  -7 -10  -7  135.71    7.25
   7  10  -6   75.46    6.25
  -7 -10  -6   95.89    5.79
   7  10  -5  113.04    7.53
  -7 -10  -5  115.47    6.65
   7  10  -4  124.53    8.02
  -7 -10  -4  147.77    7.64
   7  10  -3   60.95    5.33
  -7 -10  -3   62.30    4.72
   7  10  -2  132.96    8.03
  -7 -10  -2  143.43    7.64
   7  10  -1   26.96    3.60
  -7 -10  -1   36.40    3.62
   7  10   0   21.47    3.06
  -7 -10   0   27.41    3.17
   7  10   1   30.24    3.58
  -7 -10   1   32.32    3.48
  -7 -10   2  143.51    8.65
  -7 -10   3   51.72    5.14
  -7 -10   4  173.22    8.49
  -7 -10   4  155.71    9.58
  -7 -10   5  110.83    6.57
  -7 -10   5  111.75    7.97
  -7 -10   6   93.05    5.88
  -7 -10   6   90.25    7.20
  -7 -10   7  146.68    7.63
  -7 -10   7  129.03    9.08
  -7 -10   8    5.25    2.51
  -7 -10   8    4.57    1.60
  -7 -10   9    0.54    2.24
  -7 -10   9    2.52    1.50
  -7 -10  10   16.20    2.46
  -7 -10  10   12.81    3.28
  -7 -10  11   73.05    6.88
  -7 -10  11   55.96    4.31
  -7 -10  12   58.24    6.30
  -7 -10  12   48.86    3.91
  -7 -10  13   51.43    6.06
  -7 -10  13   56.45    4.15
  -7 -10  14   49.33    5.86
  -7 -10  14   36.66    3.24
   7  10  15   11.10    3.06
   7  10  15    8.73    2.66
  -7 -10  15    9.55    3.19
   7  10  16   85.60    6.90
   7  10  16   93.67    7.29
  -7 -10  16  104.30    8.42
   7  10  17    4.18    2.44
   7  10  17    1.31    2.05
  -7 -10  17    3.52    2.49
   7  10  18   29.18    4.11
   7  10  18   42.37    4.81
  -7 -10  18   36.68    5.06
   7  10  19   98.16    7.02
   7  10  19   96.11    7.22
  -7 -10  19  102.67    8.20
   7  10  20   15.25    3.07
   7  10  20   17.69    3.18
   7  10  21   65.02    5.42
   7  10  21   66.34    5.65
   7  10  22   46.01    4.55
  -7 -10  23   66.30    5.82
   7 -11  21   20.87    3.49
   7 -11  20   36.28    4.56
  -7 -11 -12   10.45    1.97
  -7 -11 -11   14.01    2.18
  -7 -11 -10  117.13    6.47
   7  11  -9  136.42    8.84
  -7 -11  -9  135.48    7.17
   7  11  -8   78.19    6.51
  -7 -11  -8   82.63    5.43
   7  11  -7  304.29   14.27
  -7 -11  -7  290.68   12.29
   7  11  -6   67.20    5.84
  -7 -11  -6   63.12    4.80
   7  11  -5   21.31    3.50
  -7 -11  -5   23.23    2.99
   7  11  -4   10.38    2.78
  -7 -11  -4    8.87    2.16
   7  11  -3   85.09    6.44
  -7 -11  -3   86.94    5.85
   7  11  -2  136.19    8.31
  -7 -11  -2  144.21    7.85
   7  11  -1  123.36    7.69
  -7 -11  -1  124.70    7.23
   7  11   0   57.88    5.04
  -7 -11   0   63.36    4.94
  -7 -11   1  111.65    6.80
  -7 -11   2  121.28    7.98
  -7 -11   3   81.52    6.63
  -7 -11   4   15.50    2.70
  -7 -11   4   12.53    2.99
  -7 -11   5   20.60    2.92
  -7 -11   5   27.11    4.13
  -7 -11   6   54.16    4.50
  -7 -11   6   70.00    6.28
  -7 -11   7  298.11   12.46
  -7 -11   7  291.79   14.75
  -7 -11   8   87.76    5.68
  -7 -11   8   79.78    7.19
  -7 -11   9  137.48    7.29
  -7 -11   9  125.31    9.24
  -7 -11  10  115.87    6.60
  -7 -11  10  110.22    8.61
  -7 -11  11   17.61    2.38
  -7 -11  11   11.45    3.33
  -7 -11  12   15.03    2.32
  -7 -11  12   12.77    3.51
  -7 -11  13   15.93    2.32
  -7 -11  13   13.45    3.67
   7  11  14   10.72    2.79
  -7 -11  14    6.44    2.92
  -7 -11  14    5.00    1.55
   7  11  15   62.82    5.69
   7  11  15   55.60    5.57
  -7 -11  15   49.33    5.94
   7  11  16   33.53    4.50
   7  11  16   31.65    4.16
  -7 -11  16   43.96    5.39
   7  11  17  117.50    7.72
   7  11  17  110.00    7.74
  -7 -11  17  117.44    8.86
   7  11  18   79.14    6.16
   7  11  18   70.85    6.11
   7  11  19   34.99    4.01
   7  11  19   37.40    4.20
  -7 -11  19   33.14    4.64
   7  11  20   39.84    4.17
   7  11  20   45.99    4.58
  -7 -11  20   52.45    5.54
   7  11  21   26.02    3.27
   7  11  21   27.25    3.51
  -7 -11  21   26.94    4.02
   7  12 -20    8.40    2.37
   7 -12  19    8.15    2.39
   7  12 -15   18.29    3.46
   7  12 -14   15.43    3.19
   7  12 -13    2.30    2.10
   7  12 -12   46.79    5.17
  -7 -12 -12   48.12    3.82
   7  12 -11   34.42    4.52
  -7 -12 -11   34.91    3.33
   7  12 -10   65.51    6.10
  -7 -12 -10   70.75    4.84
   7  12  -9   19.40    3.66
  -7 -12  -9   16.41    2.54
   7  12  -8   15.55    3.26
  -7 -12  -8   12.16    2.32
   7  12  -7   43.83    4.89
  -7 -12  -7   38.99    3.77
   7  12  -6  191.35   10.76
  -7 -12  -6  196.38    9.50
   7  12  -5  112.95    7.82
  -7 -12  -5  118.91    6.99
   7  12  -4   91.97    6.87
  -7 -12  -4   78.75    5.62
   7  12  -3  100.54    7.34
  -7 -12  -3  131.56    7.34
   7  12  -2  485.88   19.48
  -7 -12  -2  504.62   18.73
   7  12  -1  104.93    7.11
  -7 -12  -1  104.11    6.59
  -7 -12   0   17.18    2.85
  -7 -12   1  105.85    6.63
  -7 -12   3  104.72    7.58
  -7 -12   4   82.36    5.65
  -7 -12   4   72.30    6.45
  -7 -12   5  122.94    7.19
  -7 -12   5  120.60    8.51
  -7 -12   6  209.62    9.82
  -7 -12   6  189.40   11.30
  -7 -12   7   47.54    4.18
  -7 -12   7   36.94    5.00
  -7 -12   8    8.53    2.99
  -7 -12   8    7.16    1.94
  -7 -12   9   18.50    3.89
  -7 -12   9   16.54    2.54
  -7 -12  10   75.99    5.13
  -7 -12  10   71.36    6.91
  -7 -12  11   34.29    3.39
  -7 -12  11   30.21    4.68
  -7 -12  12   48.40    5.62
  -7 -12  12   43.65    3.73
   7  12  13    1.71    1.95
   7  12  13    3.14    2.19
  -7 -12  13    2.61    1.42
  -7 -12  13    0.56    2.26
   7  12  14   13.52    2.97
   7  12  14   12.85    2.96
  -7 -12  14   15.01    3.53
   7  12  15   31.89    4.05
   7  12  15   37.11    4.44
  -7 -12  15   30.69    4.59
   7  12  16   14.14    2.93
   7  12  16   20.54    3.30
  -7 -12  16   16.01    3.67
   7  12  17    1.80    1.68
   7  12  17    7.66    2.36
  -7 -12  17    5.68    2.61
   7  12  18   15.50    2.70
   7  12  18   23.38    3.31
  -7 -12  18   19.25    3.60
   7  12  19    9.02    2.27
   7  12  19   11.53    2.27
  -7 -12  19   14.49    3.14
  -7 -12  20    5.68    2.33
   7  13 -18    1.80    1.60
   7  13 -17   76.47    6.00
   7  13 -16   17.78    3.28
   7  13 -15   54.39    5.27
   7  13 -14   38.68    4.65
   7  13 -13    6.01    2.52
   7  13 -12    2.62    1.81
   7  13 -11    2.21    2.24
  -7 -13 -11   -0.24    1.27
   7  13 -10   50.72    5.22
  -7 -13 -10   50.45    4.07
   7  13  -9  207.48   11.30
  -7 -13  -9  214.10    9.64
   7  13  -8   73.89    6.36
  -7 -13  -8   76.62    5.25
   7  13  -7  129.50    8.43
  -7 -13  -7  128.52    7.18
   7  13  -6   28.82    4.06
  -7 -13  -6   40.05    3.84
   7  13  -5    2.57    2.21
  -7 -13  -5    1.57    1.46
   7  13  -4    6.29    2.37
  -7 -13  -4   17.46    2.70
   7  13  -3   11.08    2.68
  -7 -13  -3   17.06    2.76
   7  13  -2    9.24    2.60
  -7 -13  -2    4.53    1.65
  -7 -13  -1  242.88   11.22
  -7 -13   0  135.00    7.75
  -7 -13   1  250.37   11.42
  -7 -13   4   12.02    2.41
  -7 -13   4   13.32    2.95
  -7 -13   5    2.80    1.72
  -7 -13   5    3.33    2.13
  -7 -13   6   35.77    3.58
  -7 -13   6   31.32    4.36
  -7 -13   7  133.11    7.35
  -7 -13   7  129.78    8.95
  -7 -13   8   80.22    5.39
  -7 -13   8   74.31    6.76
  -7 -13   9  211.21    9.60
  -7 -13   9  198.12   11.70
  -7 -13  10   54.99    4.34
  -7 -13  10   56.16    5.98
  -7 -13  11    0.51    1.24
  -7 -13  11    0.53    2.12
  -7 -13  12    5.74    1.62
  -7 -13  12    6.31    2.76
   7  13  13    4.84    2.16
   7  13  13    4.99    2.05
  -7 -13  13    5.73    2.44
   7  13  14   34.76    4.04
   7  13  14   37.92    4.32
  -7 -13  14   40.33    4.95
   7  13  15   47.05    4.50
   7  13  15   42.25    4.46
  -7 -13  15   43.86    5.19
   7  13  16   23.97    3.13
   7  13  16   21.74    3.10
  -7 -13  16   28.87    4.19
  -7 -13  17   70.38    6.22
  -7 -13  18    3.05    1.99
   7  14 -15   44.69    4.51
   7  14 -14   66.23    5.49
   7  14 -13   31.51    3.97
   7  14 -12    2.37    1.84
   7  14 -11   22.94    3.55
  -7 -14 -11   25.13    2.62
   7  14 -10   91.05    6.82
  -7 -14 -10   95.70    5.53
   7  14  -9   81.96    6.52
  -7 -14  -9   98.02    5.70
   7  14  -8   27.68    3.89
  -7 -14  -8   26.07    3.00
   7  14  -7   37.83    4.50
  -7 -14  -7   49.98    4.13
   7  14  -6  204.46   10.79
  -7 -14  -6  203.16    9.61
   7  14  -5   25.09    3.66
  -7 -14  -5   25.36    3.23
   7  14  -4    1.60    1.74
  -7 -14  -4    4.63    1.92
   7  14  -3   24.50    3.55
  -7 -14  -3   25.39    3.07
  -7 -14  -2  151.41    8.17
  -7 -14  -1   20.96    2.97
  -7 -14   0    1.59    1.48
  -7 -14   1   21.78    3.09
  -7 -14   4    3.05    1.63
  -7 -14   5   24.52    3.06
  -7 -14   5   18.71    3.30
  -7 -14   6  205.36    9.45
  -7 -14   6  177.85   10.56
  -7 -14   7   44.95    3.94
  -7 -14   7   43.90    5.01
  -7 -14   8   19.02    3.64
  -7 -14   8   23.39    2.89
  -7 -14   9   94.68    5.59
  -7 -14   9   65.66    6.27
  -7 -14  10  104.89    5.86
  -7 -14  10   88.86    7.23
   7  14  11   18.28    3.02
   7  14  11   15.43    2.95
  -7 -14  11   19.91    2.46
  -7 -14  11   12.44    3.02
   7  14  12    5.39    1.99
   7  14  12    5.13    1.95
  -7 -14  12    5.21    2.22
  -7 -14  13   28.25    4.18
  -7 -14  14   88.51    7.05
  -7 -14  15   42.68    4.81
  -7 -14  16   10.43    2.68
   7  15 -12    5.38    1.89
   7  15 -11    8.64    2.27
   7  15 -10    1.06    1.46
  -7 -15 -10    0.21    1.17
   7  15  -9   35.57    4.00
  -7 -15  -9   37.68    3.34
   7  15  -8   28.37    3.69
  -7 -15  -8   31.90    3.24
   7  15  -7   84.70    6.32
  -7 -15  -7   97.67    5.74
   7  15  -6   27.22    3.62
  -7 -15  -6   36.92    3.48
  -7 -15  -5    5.61    1.74
  -7 -15  -4    2.59    1.48
  -7 -15  -3   21.89    2.85
  -7 -15  -2    9.75    2.37
  -7 -15  -1  147.09    7.84
  -7 -15   0   87.07    5.77
  -7 -15   1  133.46    7.36
  -7 -15   4    5.09    1.66
  -7 -15   5    9.97    2.06
  -7 -15   6   36.12    3.40
  -7 -15   7   87.76    5.37
  -7 -15   7   67.83    6.05
  -7 -15   8   34.53    3.27
  -7 -15   8   28.37    3.91
  -7 -15   9   38.95    3.39
  -7 -15   9   31.94    4.15
  -7 -15  10   -0.22    1.12
  -7 -15  10    1.26    1.68
  -7 -15  11    7.04    2.39
  -7 -15  12    3.66    1.90
  -7 -16  -7   24.14    2.68
  -7 -16  -6  131.54    6.71
  -7 -16  -5   11.57    2.15
  -7 -16  -4    3.29    1.50
  -7 -16  -3   11.42    2.14
  -7 -16  -2   54.06    4.25
  -7 -16  -1   20.95    2.78
  -7 -16   1   20.06    2.64
  -7 -16   4    4.03    1.48
  -7 -16   5   10.26    2.13
  -7 -16   6  135.41    6.84
  -7 -16   7   22.61    2.64
  -7 -16   8    3.22    1.33
  -7 -17  -1   84.77    5.02
  -7 -17   0   11.86    1.92
  -7 -17   1   77.60    4.84
  -8   0   0  791.20   25.67
  -8   0   1  160.05    8.84
  -8   0   1  154.15    7.47
  -8   0  -1  164.56    7.71
  -8   0   2  141.15    8.23
  -8   0  -2  141.41    7.05
  -8   0   3    7.21    2.15
  -8   0   3    7.91    1.68
  -8   0  -3    8.20    1.78
  -8   0   4    3.65    1.82
  -8   0   4    8.64    1.81
  -8   0  -4    8.49    1.86
  -8   0   5   33.78    3.99
  -8   0  -5   38.00    3.28
  -8   0   5   42.07    3.44
  -8   0   6   14.50    2.81
  -8   0   6   16.57    2.17
  -8   0  -6   12.18    2.04
  -8   0   6   11.93    2.52
  -8   0   7    3.14    1.67
  -8   0   7    7.63    1.55
  -8   0  -7    6.97    1.61
  -8   0   7    2.35    1.71
  -8   0   8    3.67    2.14
  -8   0   8    5.30    1.45
  -8   0  -8    2.17    1.33
  -8   0   8    4.52    2.00
  -8   0   9   79.89    6.46
  -8   0   9   87.97    5.22
  -8   0  -9   81.05    5.04
  -8   0   9   91.71    6.76
  -8   0  10  194.26   10.91
   8   0  10  197.98    9.91
  -8   0  10  199.11    8.94
  -8   0 -10  202.84    8.95
   8   0  10  216.05   10.33
  -8   0  10  199.85   11.03
  -8   0  11   16.27    3.29
   8   0  11   14.55    2.86
   8   0  11   13.13    2.70
  -8   0  11   14.41    2.27
  -8   0 -11   13.09    2.08
  -8   0  11    9.87    2.81
  -8   0  12   33.21    4.47
   8   0  12   28.71    3.74
  -8   0  12   29.91    3.03
   8   0  12   31.90    3.90
  -8   0  12   34.73    4.40
  -8   0  13   -1.54    2.45
   8   0  13    2.02    1.93
   8   0  13    0.38    1.78
  -8   0  13   -0.51    2.16
  -8   0  14  164.00   10.68
   8   0  14  173.00    9.60
   8   0  14  174.88    9.88
  -8   0  14  180.94   10.95
  -8   0  15    7.39    2.98
   8   0  15    5.71    2.36
   8   0  15    1.31    1.99
  -8   0  15    6.54    2.66
  -8   0  16    4.76    2.46
   8   0  16    0.42    1.64
   8   0  16    1.80    2.10
  -8   0  16    0.56    2.32
   8   0  17   20.78    3.56
   8   0  17   24.58    3.75
  -8   0  17   16.73    3.86
   8   0  18   17.01    3.44
   8   0  18   18.93    3.38
  -8   0  18   14.75    3.93
   8   0  19   68.00    6.20
  -8   0  19   69.87    7.31
   8   0  20  162.71   10.00
   8   0  20  172.98   10.81
  -8   0  20  161.70   11.52
   8   0  21    2.88    2.14
   8   0  21   -1.64    2.26
  -8   0  21    7.38    2.85
   8   0  22  150.77    9.38
   8   0  22  145.67    9.81
  -8   0  22  137.44   10.54
   8   0  23   45.33    5.07
   8   0  23   47.78    5.44
  -8   0  23   42.17    5.91
   8   0  24   80.61    6.68
   8   0  24   92.36    7.54
  -8   0  24   98.11    8.52
   8   0  25   21.18    3.70
  -8   0  25   30.41    4.97
   8   0  25   27.82    3.92
   8   0  26   69.93    5.84
   8   0  26   72.95    6.31
   8   0  26   78.05    5.60
  -8   0  26   72.77    7.00
   8   0  27  107.91    7.01
   8   0  27  113.22    6.61
  -8   0  27   95.77    8.02
   8  -1  27   70.72    5.54
   8  -1  27   79.31    5.37
  -8   1  27   64.00    6.32
   8  -1  26   78.34    6.12
   8  -1  26   75.35    6.51
   8  -1  26   84.51    5.79
   8  -1  25    4.01    2.39
   8  -1  25    5.37    2.17
   8  -1  25    4.78    2.00
   8  -1  24    7.93    2.69
   8  -1  24    9.16    2.76
   8  -1  23  152.39    9.39
   8  -1  23  146.74   10.02
   8  -1  22   84.51    6.86
   8  -1  22   84.64    7.49
   8  -1  21  427.07   18.39
   8  -1  21  420.30   19.27
   8  -1  20   76.71    6.64
   8  -1  20   76.76    7.00
   8  -1  19  322.32   15.18
   8  -1  18   93.03    7.15
   8  -1  17   59.80    5.66
   8  -1  17   58.67    5.40
   8  -1  16    2.05    1.92
   8  -1  16    0.44    1.87
   8  -1  15  167.39    9.35
   8  -1  15  164.33    9.51
   8  -1  14  105.66    7.14
   8  -1  14  109.44    7.38
   8  -1  13  285.80   12.98
   8  -1  13  296.79   13.44
  -8  -1 -12   18.00    2.38
   8  -1  12   21.90    3.17
   8  -1  12   15.03    2.83
  -8  -1 -11   23.55    2.62
   8  -1  11   21.90    3.12
   8  -1  11   24.74    3.25
   8  -1  10  130.33    7.66
  -8  -1 -10  156.47    7.23
   8  -1  10  140.50    8.03
   8  -1   9  372.65   14.43
  -8  -1  -9  359.69   13.36
  -8   1   9  334.84   13.31
   8  -1   9  344.63   14.31
  -8   1   8   24.54    2.68
  -8  -1  -8   28.18    2.85
  -8   1   7  257.66   10.62
  -8  -1  -7  254.30   10.45
  -8   1   6  114.59    6.25
  -8  -1  -6  123.44    6.33
  -8   1   5   47.69    3.71
  -8  -1  -5   46.77    3.65
  -8  -1  -4    5.94    1.52
  -8   1   4    6.51    1.78
  -8   1   3  148.52    7.35
  -8  -1  -3  156.60    7.36
  -8  -1  -2  233.19    9.69
  -8  -1  -1  494.14   17.27
  -8   1   0  126.72    6.66
  -8  -1   0  133.05    6.60
  -8  -1   1  466.67   18.14
  -8   1  -1  492.92   16.75
  -8  -1   2  235.81   11.24
  -8   1  -2  233.95   10.02
  -8  -1   3  168.85    9.08
  -8   1  -3  163.61    7.86
  -8  -1   3  157.03    7.53
  -8  -1   3  170.85    8.60
  -8  -1   4    4.40    1.83
  -8  -1   4    5.45    1.47
  -8   1  -4    4.41    1.46
  -8  -1   4    7.27    2.04
  -8  -1   5   51.14    4.79
  -8   1  -5   57.97    4.15
  -8  -1   5   44.13    4.38
  -8  -1   5   54.28    3.94
  -8  -1   6  105.35    7.14
  -8   1  -6  106.17    6.00
  -8  -1   6  112.29    6.00
  -8  -1   6  111.36    7.09
  -8  -1   7  244.15   12.08
  -8   1  -7  261.40   10.65
  -8  -1   7  254.57   10.35
  -8  -1   7  239.38   11.85
  -8  -1   8   33.61    4.11
  -8   1  -8   30.75    3.12
  -8  -1   8   30.26    2.97
  -8  -1   8   41.34    4.46
  -8  -1   9  332.50   15.24
  -8  -1   9  353.97   15.55
  -8  -1   9  348.74   13.22
  -8  -1  10  153.23    7.18
  -8  -1  10  140.09    8.89
  -8  -1  11   19.60    3.56
  -8  -1  11   20.63    2.50
  -8  -1  11   16.89    3.37
  -8  -1  12   22.99    3.95
   8   1  12   24.06    3.59
   8   1  12   20.24    3.19
  -8  -1  12   20.34    2.59
  -8  -1  12   23.97    3.92
  -8  -1  13  243.67   13.49
   8   1  13  267.38   12.62
  -8  -1  13  271.98   10.88
   8   1  13  266.60   12.87
  -8  -1  13  284.10   14.17
  -8  -1  14  110.98    8.50
   8   1  14  103.02    7.23
   8   1  14  125.13    8.00
  -8  -1  14  109.71    8.33
  -8  -1  15  142.06   10.04
   8   1  15  144.90    8.82
   8   1  15  135.61    8.79
  -8  -1  15  161.23   10.27
  -8  -1  16    3.57    2.59
   8   1  16   -1.29    1.87
   8   1  16    5.96    2.57
  -8  -1  16    0.56    2.25
  -8  -1  17   65.54    6.84
   8   1  17   55.95    5.44
   8   1  17   50.77    5.34
  -8  -1  17   63.13    6.59
   8   1  18   90.05    6.97
   8   1  18  105.57    7.72
  -8  -1  18   87.64    8.05
   8   1  18   99.03    7.58
  -8  -1  18   95.15    8.11
   8   1  19  293.32   14.10
   8   1  19  305.61   14.64
   8   1  19  294.41   14.70
  -8  -1  19  281.86   15.83
   8   1  20   83.59    6.95
   8   1  20   74.78    6.88
  -8  -1  20   79.87    8.08
   8   1  21  396.02   18.06
   8   1  21  445.90   19.12
  -8  -1  21  424.02   20.41
   8   1  22   77.56    6.70
   8   1  22   72.51    6.85
   8   1  23  170.90   10.16
   8   1  23  166.73   10.38
  -8  -1  23  167.07   11.59
   8   1  24    9.63    2.79
   8   1  24   10.33    2.81
  -8  -1  24    9.50    3.50
  -8  -1  25    3.64    2.51
   8   1  25    6.82    2.56
   8   1  26   75.38    6.00
  -8  -1  26   64.27    6.75
   8   1  27   75.93    5.75
   8   1  27   71.59    5.21
  -8  -1  27   66.30    6.49
  -8   2  27   23.26    3.93
   8  -2  26    6.65    2.67
  -8   2  26    7.76    3.25
   8  -2  26   10.69    2.53
   8  -2  26   11.29    2.32
   8  -2  25   60.99    5.42
   8  -2  25   61.80    6.23
   8  -2  25   58.42    4.89
  -8   2  25   58.03    6.45
   8  -2  24   50.31    5.11
   8  -2  24   46.85    5.52
  -8   2  24   33.61    5.33
   8  -2  24   48.27    4.49
   8  -2  23   11.76    3.33
  -8   2  23    6.46    3.22
   8  -2  23    8.39    2.52
   8  -2  22   49.09    5.21
   8  -2  22   45.46    5.67
  -8   2  22   54.17    6.48
   8  -2  21    7.95    2.83
   8  -2  21    7.85    2.71
  -8   2  21   11.94    3.55
  -8   2  20  178.59   12.09
   8  -2  20  175.25   10.28
  -8   2  19   51.78    6.35
   8  -2  19   52.30    5.39
  -8   2  18   21.77    4.42
   8  -2  18   28.38    3.99
  -8   2  17   14.87    3.51
   8  -2  17   25.05    3.79
  -8   2  16   49.52    5.65
   8  -2  16   40.92    4.67
  -8   2  15    9.13    2.96
   8  -2  15   11.51    2.73
   8  -2  15   12.26    2.81
  -8   2  14  129.04    9.44
   8  -2  14  149.33    8.42
   8  -2  14  141.38    8.42
  -8   2  13   67.16    6.51
   8  -2  13   80.74    5.76
  -8  -2 -13   68.30    4.46
   8  -2  13   81.52    6.01
  -8   2  12   50.59    5.33
   8  -2  12   44.56    4.27
  -8  -2 -12   48.59    3.66
   8  -2  12   43.23    4.33
  -8   2  11   28.97    4.35
   8  -2  11   28.39    3.39
  -8  -2 -11   32.00    3.02
   8  -2  11   29.87    3.56
  -8   2  10   79.39    6.45
   8  -2  10   89.87    5.79
   8  -2  10   78.27    5.62
  -8  -2 -10   88.02    5.14
  -8   2   9  136.96    8.61
   8  -2   9  136.10    7.36
   8  -2   9  141.38    7.58
  -8  -2  -9  142.87    6.95
  -8   2   8   35.59    4.07
   8  -2   8   38.74    3.53
   8  -2   8   33.73    3.48
  -8  -2  -8   36.04    3.23
  -8   2   7   23.23    3.32
   8  -2   7   14.97    2.41
   8  -2   7   23.58    2.74
  -8  -2  -7   21.66    2.45
  -8   2   6   55.77    5.09
   8  -2   6   63.79    4.37
   8  -2   6   57.14    4.23
  -8  -2  -6   57.08    4.04
  -8   2   5   47.51    4.58
  -8   2   5   49.72    3.92
  -8  -2  -5   52.29    3.79
  -8   2   4   30.32    3.70
  -8   2   4   30.62    3.09
  -8  -2  -4   27.72    2.76
  -8   2   3   89.42    6.32
  -8   2   3   97.60    5.64
  -8  -2  -3   91.30    5.27
  -8   2   2  212.21   10.62
  -8  -2  -2  222.80    9.35
  -8   2   1  229.14   11.15
  -8  -2  -1  240.62    9.82
  -8   2   0  653.98   22.53
  -8  -2   0  689.82   22.34
  -8  -2   1  244.75   11.51
  -8   2  -1  238.29   10.20
  -8  -2   1  223.63   10.13
  -8  -2   1  245.05    9.91
  -8  -2   2  211.47   10.71
  -8   2  -2  225.37    9.77
  -8  -2   2  219.97   10.01
  -8  -2   3   98.13    6.62
  -8   2  -3   90.98    5.57
  -8  -2   3   94.61    6.04
  -8  -2   3   90.26    5.25
  -8  -2   4   28.82    3.54
  -8   2  -4   34.93    3.29
  -8  -2   4   27.86    3.48
  -8  -2   4   34.03    3.06
  -8  -2   5   42.01    4.43
  -8  -2   5   52.19    3.74
  -8  -2   5   45.77    4.36
  -8  -2   6   66.70    5.50
  -8  -2   6   64.48    4.27
  -8  -2   6   61.86    5.26
  -8  -2   7   22.62    3.38
  -8  -2   7   19.83    2.43
  -8  -2   7   26.74    3.74
  -8  -2   8   31.29    3.99
  -8  -2   8   37.37    3.22
  -8  -2   8   28.10    3.84
  -8  -2   9  129.48    8.35
  -8  -2   9  132.12    8.45
  -8  -2   9  135.39    6.76
  -8  -2  10   88.17    6.97
  -8  -2  10   96.47    5.51
  -8  -2  10   92.02    7.03
  -8  -2  11   33.24    4.38
  -8  -2  11   32.67    3.11
  -8  -2  11   25.10    3.87
  -8  -2  12   46.56    5.13
  -8  -2  12   44.17    3.57
  -8  -2  12   41.87    4.83
  -8  -2  13   72.83    6.60
  -8  -2  13   69.14    4.54
   8   2  13   61.79    5.76
  -8  -2  13   64.56    6.38
  -8  -2  14  153.38   10.23
   8   2  14  154.72    9.10
  -8  -2  14  154.87    7.31
   8   2  14  143.25    9.11
  -8  -2  14  153.81   10.01
  -8  -2  15    7.97    3.00
  -8  -2  15    9.10    1.72
   8   2  15    6.47    2.50
  -8  -2  15    6.02    2.78
  -8  -2  16   47.04    5.67
   8   2  16   55.97    5.40
   8   2  16   48.36    5.29
  -8  -2  16   45.58    5.70
   8   2  17   14.38    3.09
   8   2  17   15.82    3.29
  -8  -2  17   12.36    3.53
   8   2  17   15.12    3.21
  -8  -2  17   13.24    3.74
   8   2  18   30.59    4.24
   8   2  18   25.83    4.04
  -8  -2  18   24.27    4.37
   8   2  18   24.28    3.84
  -8  -2  18   28.65    4.68
   8   2  19   46.01    5.08
   8   2  19   48.79    5.44
   8   2  19   47.96    5.32
  -8  -2  19   45.11    6.01
   8   2  20  157.10    9.60
   8   2  20  159.75    9.99
   8   2  20  165.29   10.12
  -8  -2  20  145.86   10.90
   8   2  21    8.83    2.71
   8   2  21    6.88    2.45
  -8  -2  21   13.91    3.66
   8   2  22   46.77    5.27
  -8  -2  22   50.81    6.34
   8   2  23    9.36    2.86
  -8  -2  23    8.40    3.34
   8   2  24   39.59    4.67
  -8  -2  24   27.40    4.90
   8   2  25   56.61    5.48
  -8  -2  25   75.34    7.36
  -8  -2  26   13.34    3.44
   8   2  26    8.72    2.52
  -8  -2  27   23.39    4.02
   8   2  27   24.97    3.45
   8  -3  26   34.24    3.86
   8  -3  26   29.50    4.26
  -8   3  26   30.18    4.61
   8  -3  26   30.73    3.32
   8  -3  25   43.30    4.49
   8  -3  25   44.53    5.30
  -8   3  25   36.07    5.22
   8  -3  25   50.15    4.35
   8  -3  24   20.02    3.81
  -8   3  24   23.62    4.57
   8  -3  24   19.31    3.33
   8  -3  24   22.28    3.13
   8  -3  23   47.25    4.93
   8  -3  23   41.53    5.49
   8  -3  23   41.52    4.35
  -8   3  23   49.02    6.06
   8  -3  22   50.46    5.18
   8  -3  22   30.79    4.69
  -8   3  22   43.28    6.01
   8  -3  22   43.16    4.43
  -8   3  21  195.82   12.75
   8  -3  21  205.62   11.04
   8  -3  20   14.22    3.09
  -8   3  20   22.15    4.37
   8  -3  19    6.61    2.51
  -8   3  19    9.71    2.90
   8  -3  18    8.21    2.46
  -8   3  18    7.00    3.10
  -8   3  17   35.19    5.10
   8  -3  17   39.93    4.53
  -8   3  16   92.98    8.06
   8  -3  16   93.98    6.82
  -8   3  15   99.38    8.25
   8  -3  15  105.09    7.04
  -8   3  14   55.72    6.14
   8  -3  14   44.06    4.57
  -8   3  13  177.76   10.94
   8  -3  13  174.24    9.30
   8  -3  13  178.00    9.15
  -8  -3 -13  192.30    8.24
  -8   3  12  435.87   19.13
   8  -3  12  444.20   16.88
   8  -3  12  443.83   17.15
  -8  -3 -12  443.03   15.75
  -8   3  11  161.51    9.90
   8  -3  11  172.64    8.47
   8  -3  11  166.34    8.57
  -8  -3 -11  166.41    7.73
  -8   3  10  168.52    9.95
   8  -3  10  168.26    8.21
   8  -3  10  170.28    8.43
  -8  -3 -10  166.02    7.70
  -8   3   9   60.56    5.51
   8  -3   9   50.64    4.07
   8  -3   9   65.40    4.64
  -8  -3  -9   64.56    4.28
  -8   3   8  192.86   10.46
  -8  -3  -8  196.70    8.65
  -8   3   7  412.30   16.72
  -8  -3  -7  381.20   14.27
  -8   3   6  132.52    8.03
  -8  -3  -6  120.76    6.34
  -8   3   5  155.45    8.78
  -8  -3  -5  153.38    7.28
  -8   3   4   72.95    5.76
  -8  -3  -4   87.30    5.01
  -8   3   3  246.58   11.72
  -8  -3  -3  255.21   10.33
  -8   3   2  214.32   10.50
  -8  -3  -2  204.83    8.94
  -8   3   1  214.51   10.46
  -8  -3  -1  201.27    8.84
  -8  -3   0  344.35   12.95
  -8  -3   1  177.97    9.70
  -8  -3   1  186.46    8.91
  -8  -3   2  211.81   10.72
  -8  -3   2  233.65   10.30
  -8  -3   3  233.00   11.25
  -8  -3   3  243.96    9.89
  -8  -3   3  225.12   10.65
  -8  -3   4   70.79    5.66
  -8  -3   4   79.33    4.77
  -8  -3   4   70.52    5.40
  -8  -3   5  147.15    8.53
  -8  -3   5  145.60    7.04
  -8  -3   5  145.47    8.36
  -8  -3   6  134.79    8.04
  -8  -3   6  116.94    7.50
  -8  -3   6  118.47    6.24
  -8  -3   7  388.69   16.77
  -8  -3   7  406.66   16.99
  -8  -3   7  420.16   14.97
  -8  -3   8  187.98   10.13
  -8  -3   8  180.65   10.10
  -8  -3   8  179.92    8.20
  -8  -3   9   62.89    5.72
  -8  -3   9   70.55    4.51
  -8  -3   9   63.08    5.74
  -8  -3  10  177.28   10.24
  -8  -3  10  172.48    7.94
  -8  -3  10  169.73   10.04
  -8  -3  11  171.98   10.31
  -8  -3  11  177.11   10.53
  -8  -3  11  183.04    8.22
  -8  -3  12  421.78   18.89
  -8  -3  12  455.30   15.97
  -8  -3  12  430.92   18.97
  -8  -3  13  197.46   11.55
   8   3  13  196.00   10.73
   8   3  13  193.82   10.86
  -8  -3  13  209.52    8.99
  -8  -3  13  212.92   11.95
  -8  -3  14   34.83    4.89
   8   3  14   39.93    4.66
  -8  -3  14   35.21    3.21
   8   3  14   44.27    4.83
   8   3  15   85.64    6.88
  -8  -3  15   92.10    5.23
   8   3  15   97.14    7.46
  -8  -3  15   89.28    7.69
   8   3  15   94.59    6.69
  -8  -3  15   90.96    7.73
   8   3  16   85.93    6.83
   8   3  16   87.87    7.13
  -8  -3  16   98.47    8.19
   8   3  16   91.66    6.84
  -8  -3  16   79.68    7.44
   8   3  17   44.09    4.84
   8   3  17   44.53    5.07
  -8  -3  17   48.52    5.83
   8   3  17   38.50    4.60
  -8  -3  17   44.61    5.49
   8   3  18    3.71    2.17
   8   3  18    5.94    2.64
  -8  -3  18    2.53    2.39
   8   3  18    6.66    2.17
  -8  -3  18    5.29    2.75
   8   3  19    4.98    2.57
   8   3  19    6.06    2.49
  -8  -3  19   12.24    3.14
   8   3  19    2.25    1.59
  -8  -3  19    4.14    2.70
  -8  -3  20   22.70    4.50
   8   3  20   16.94    3.41
   8   3  20   23.25    3.75
  -8  -3  21  186.62   12.22
   8   3  21  178.04   10.87
   8   3  21  199.77   10.96
  -8  -3  22   39.93    5.76
   8   3  22   40.98    4.84
  -8  -3  22   45.77    5.52
   8   3  23   57.77    5.65
  -8  -3  23   50.18    6.17
   8   3  24   30.34    4.24
  -8  -3  24   18.68    4.29
   8   3  25   43.33    4.80
  -8  -3  25   36.00    5.19
   8   3  26   33.59    4.18
  -8  -3  26   32.42    4.72
  -8  -3  27   11.60    2.88
   8   3  27    9.59    2.49
   8  -4  26   21.49    3.63
  -8   4  26   21.26    3.81
   8  -4  25   16.15    3.47
  -8   4  25   14.57    3.48
   8  -4  25   17.53    2.86
   8  -4  25   16.87    2.53
   8  -4  24   20.35    3.98
  -8   4  24   18.97    3.96
   8  -4  24   17.39    3.02
   8  -4  24   22.07    3.02
   8  -4  23   13.91    3.58
  -8   4  23   14.46    3.87
   8  -4  23   13.66    2.85
   8  -4  23   16.78    2.70
   8  -4  22   27.78    4.51
   8  -4  22   33.54    4.15
  -8   4  22   36.80    5.30
   8  -4  22   33.77    3.75
   8  -4  21    7.01    2.52
  -8   4  21    3.82    2.56
   8  -4  21    9.54    2.31
   8  -4  20   35.58    3.92
  -8   4  20   40.80    5.55
   8  -4  20   43.04    4.65
  -8   4  19   60.29    6.88
   8  -4  19   78.34    6.17
   8  -4  18    8.04    2.45
  -8   4  18    8.17    3.25
   8  -4  17   -0.39    1.57
  -8   4  17    2.46    2.24
   8  -4  16    8.61    2.33
  -8   4  16   17.23    3.58
   8  -4  15   14.60    2.66
  -8   4  15    9.74    3.17
  -8   4  14   21.93    4.04
   8  -4  14   21.52    3.08
  -8   4  13   17.82    3.53
  -8  -4 -13   14.92    2.19
  -8   4  12   87.23    7.19
  -8  -4 -12   94.28    5.33
  -8   4  11   48.31    5.27
  -8  -4 -11   57.23    4.01
  -8   4  10    7.70    2.47
  -8  -4 -10    7.85    1.74
  -8   4   9    1.30    1.64
  -8  -4  -9    2.08    1.17
  -8   4   8   66.63    5.72
  -8  -4  -8   66.72    4.43
  -8   4   7   60.52    5.23
  -8  -4  -7   48.02    3.74
  -8   4   6   63.49    5.35
  -8  -4  -6   58.26    4.18
  -8   4   5   11.69    2.56
  -8  -4  -5    9.04    1.87
  -8   4   4    7.73    2.36
  -8  -4  -4    8.79    1.80
  -8   4   3   69.13    5.52
  -8  -4  -3   76.88    4.76
  -8   4   2  428.16   17.31
  -8  -4  -2  443.99   15.74
  -8   4   1  449.37   17.96
  -8  -4  -1  470.14   16.41
  -8  -4   0 1594.79   49.99
  -8   4   0 1586.93   49.89
  -8  -4   0 1590.81   47.87
  -8  -4   1  471.39   18.06
  -8  -4   1  463.59   16.21
  -8  -4   1  427.66   16.56
  -8  -4   2  457.42   17.58
  -8  -4   2  418.43   16.41
  -8  -4   3   78.08    5.85
  -8  -4   3   76.68    5.50
  -8  -4   4    7.78    2.31
  -8  -4   4    3.93    1.36
  -8  -4   4    5.25    2.02
  -8  -4   5    8.34    2.26
  -8  -4   5    9.52    1.99
  -8  -4   5    8.92    2.41
  -8  -4   6   66.83    5.48
  -8  -4   6   67.96    4.49
  -8  -4   6   56.86    5.22
  -8  -4   7   55.82    5.05
  -8  -4   7   57.82    4.15
  -8  -4   7   62.79    5.65
  -8  -4   8   56.23    5.31
  -8  -4   8   63.81    4.31
  -8  -4   8   63.24    5.65
  -8  -4   9    2.60    1.93
  -8  -4   9    2.14    1.39
  -8  -4   9    0.91    1.65
  -8  -4  10    5.87    2.41
  -8  -4  10    5.25    1.64
  -8  -4  10    7.08    2.61
  -8  -4  11   69.78    6.12
  -8  -4  11   56.61    4.12
  -8  -4  11   56.09    5.70
  -8  -4  12   91.32    7.35
  -8  -4  12  100.02    5.59
  -8  -4  12   94.49    7.54
  -8  -4  13   13.54    3.11
  -8  -4  13   15.53    2.19
  -8  -4  13   14.81    3.48
  -8  -4  14   23.95    4.36
   8   4  14   28.23    4.08
   8   4  14   23.53    3.81
  -8  -4  14   22.73    2.63
  -8  -4  14   29.54    4.60
  -8  -4  15   10.23    3.33
   8   4  15    6.26    2.63
   8   4  15   14.63    3.16
  -8  -4  15   10.25    1.76
  -8  -4  15   10.13    3.11
  -8  -4  16   10.61    3.18
   8   4  16   22.58    3.88
   8   4  16   15.76    3.41
  -8  -4  16   18.99    4.03
  -8  -4  17   -0.61    2.65
   8   4  17   -0.50    2.22
   8   4  17   -0.94    1.93
  -8  -4  17    0.59    2.28
  -8  -4  18   14.97    3.71
   8   4  18   12.24    3.29
   8   4  18   14.04    3.40
  -8  -4  18   11.84    3.57
  -8  -4  19   56.71    6.70
   8   4  19   57.37    5.70
   8   4  19   61.74    6.03
  -8  -4  19   63.34    6.65
  -8  -4  20   39.90    5.56
   8   4  20   53.11    5.35
   8   4  20   45.91    5.30
  -8  -4  21    2.53    2.54
   8   4  21    8.36    2.88
   8   4  21    1.83    2.14
  -8  -4  22   34.14    5.34
   8   4  22   30.16    4.41
  -8  -4  23   12.61    3.63
   8   4  23   16.56    3.46
  -8  -4  23   12.81    3.47
   8   4  24   15.30    3.18
  -8  -4  24   10.91    3.42
  -8  -4  25   16.70    3.62
   8   4  25   13.95    2.91
  -8  -4  26   15.39    3.32
   8   4  26   24.63    3.50
   8  -5  26   13.07    3.03
  -8   5  25   21.17    3.82
   8  -5  25   21.53    3.77
  -8   5  24   32.03    4.81
   8  -5  24   29.75    4.37
  -8   5  23   26.63    4.45
   8  -5  23   17.98    3.80
  -8   5  22   11.22    3.27
   8  -5  22   10.06    3.19
  -8   5  21   58.74    6.50
  -8   5  20  104.41    8.69
  -8   5  19   57.01    6.40
  -8   5  18   54.89    6.38
  -8   5  17   48.12    5.77
  -8   5  16  111.30    8.75
  -8   5  15   38.55    5.14
  -8   5  14   74.79    6.87
  -8   5  13  183.21   10.92
  -8  -5 -13  170.69    7.85
  -8   5  12  636.93   25.01
  -8  -5 -12  639.39   21.34
  -8   5  11  190.31   10.86
  -8  -5 -11  191.35    8.50
  -8   5  10   92.07    7.10
  -8  -5 -10   99.13    5.57
  -8   5   9  235.60   12.05
  -8  -5  -9  239.00    9.97
  -8   5   8  445.88   18.60
  -8  -5  -8  469.65   16.51
  -8   5   7  113.42    7.50
  -8  -5  -7  108.15    5.95
  -8   5   6   72.87    5.80
  -8  -5  -6   75.74    4.80
  -8   5   5  170.40    9.13
  -8  -5  -5  151.27    7.46
  -8   5   4  473.55   18.79
  -8  -5  -4  496.42   17.32
  -8   5   3  167.28    9.15
  -8  -5  -3  174.03    8.04
  -8   5   2   81.10    6.02
  -8  -5  -2   98.87    5.57
  -8  -5  -1  201.03   10.27
  -8   5   1  201.32   10.24
  -8  -5  -1  215.99    9.25
  -8  -5   0 1095.37   35.95
  -8   5   0 1102.04   35.90
  -8  -5   0 1072.25   34.09
  -8   5  -1  195.49   10.08
  -8  -5   1  207.30   10.24
  -8  -5   1  201.85    8.97
  -8  -5   2   96.10    6.52
  -8  -5   2  102.42    6.40
  -8  -5   3  168.29    9.31
  -8  -5   3  188.30    9.41
  -8  -5   4  460.17   18.40
  -8  -5   4  457.05   18.26
  -8  -5   4  488.66   16.92
  -8  -5   5  160.12    9.02
  -8  -5   5  169.78    9.31
  -8  -5   5  159.03    7.67
  -8  -5   6   60.29    5.33
  -8  -5   6   74.87    5.94
  -8  -5   6   67.35    4.51
  -8  -5   7  115.08    7.49
  -8  -5   7   99.79    5.73
  -8  -5   7  105.68    7.37
  -8  -5   8  455.95   19.17
  -8  -5   8  495.85   17.24
  -8  -5   8  501.41   20.09
  -8  -5   9  239.01   12.28
  -8  -5   9  246.63   10.35
  -8  -5   9  267.63   13.13
  -8  -5  10   92.53    6.99
  -8  -5  10   77.78    5.02
  -8  -5  10   83.55    6.93
  -8  -5  11  171.82   10.26
  -8  -5  11  182.83   10.90
  -8  -5  11  179.13    8.24
  -8  -5  12  630.22   25.01
  -8  -5  12  621.83   25.38
  -8  -5  12  664.55   21.80
  -8  -5  13  159.84   10.47
  -8  -5  13  196.21    8.44
  -8  -5  13  172.33   10.94
  -8  -5  14   76.85    6.94
  -8  -5  14   70.85    7.07
  -8  -5  14   90.46    5.14
  -8  -5  15   36.53    5.03
   8   5  15   45.94    5.13
   8   5  15   45.37    5.19
  -8  -5  15   41.73    3.41
  -8  -5  15   38.90    5.23
  -8  -5  16  101.65    8.29
   8   5  16  104.54    7.76
   8   5  16  103.57    7.89
  -8  -5  16   98.08    8.33
  -8  -5  17   47.13    5.82
   8   5  17   44.18    5.16
   8   5  17   53.48    5.70
  -8  -5  17   52.09    6.17
  -8  -5  18   59.91    6.56
   8   5  18   53.16    5.50
   8   5  18   58.64    5.83
  -8  -5  18   56.54    6.41
  -8  -5  19   57.21    6.25
   8   5  19   53.73    5.47
   8   5  19   68.39    6.27
  -8  -5  19   55.22    6.27
  -8  -5  20   98.85    8.59
   8   5  20  120.65    8.30
   8   5  20  114.59    8.38
  -8  -5  20  132.85    9.56
  -8  -5  21   48.78    6.05
   8   5  21   55.76    5.50
   8   5  21   55.87    5.79
  -8  -5  22   15.81    3.85
   8   5  22   17.51    3.30
   8   5  22   14.58    3.33
  -8  -5  23   25.87    4.46
   8   5  23   31.87    4.32
  -8  -5  23   30.20    4.41
  -8  -5  24   30.33    4.79
   8   5  24   30.02    4.07
  -8  -5  24   27.74    4.07
  -8  -5  25   20.24    3.74
   8   5  25   23.67    3.61
  -8   6  23   11.79    3.21
  -8   6  22   49.37    5.80
  -8   6  21   16.84    3.82
  -8   6  20   20.19    4.13
  -8   6  19   55.46    6.26
  -8   6  18   27.93    4.74
  -8   6  17   19.08    4.02
  -8   6  16    4.56    2.22
  -8   6  15    5.55    2.54
  -8   6  14   10.22    2.88
  -8   6  13    7.77    2.58
  -8  -6 -13    7.15    1.66
  -8   6  12  130.90    8.89
  -8  -6 -12  130.11    6.60
  -8   6  11   77.21    6.54
  -8  -6 -11   76.43    4.79
  -8   6  10    6.37    2.56
  -8  -6 -10    9.22    1.93
  -8   6   9   51.75    5.13
  -8  -6  -9   59.90    4.17
  -8   6   8  309.82   14.33
  -8  -6  -8  323.71   12.53
  -8   6   7  288.15   13.68
  -8  -6  -7  321.65   12.32
  -8   6   6  451.07   17.94
  -8  -6  -6  434.14   15.99
  -8   6   5  190.01   10.06
  -8  -6  -5  201.19    8.97
  -8   6   4   77.95    5.78
  -8  -6  -4   68.29    4.79
  -8   6   3    6.15    2.00
  -8  -6  -3    8.15    1.88
  -8  -6  -2   39.44    4.03
  -8   6   2   32.78    3.72
  -8  -6  -2   40.34    3.52
  -8   6   1   43.32    4.25
  -8  -6  -1   38.31    3.48
  -8  -6   0   78.13    5.81
  -8   6   0   83.40    6.01
  -8  -6   0   92.40    5.47
  -8   6  -1   43.12    4.18
  -8  -6   1   46.51    4.31
  -8  -6   1   41.55    3.71
  -8  -6   2   37.07    3.89
  -8   6  -2   36.78    3.96
  -8  -6   2   34.86    3.73
  -8  -6   3    6.14    1.93
  -8  -6   3    5.76    1.99
  -8  -6   4   60.53    5.10
  -8  -6   4   59.89    5.26
  -8  -6   4   68.21    4.64
  -8  -6   5  175.50    9.64
  -8  -6   5  194.52   10.30
  -8  -6   5  197.62    8.85
  -8  -6   6  463.74   18.12
  -8  -6   6  445.04   18.47
  -8  -6   6  438.82   16.24
  -8  -6   7  328.98   14.64
  -8  -6   7  329.55   15.18
  -8  -6   7  336.84   12.98
  -8  -6   8  312.82   14.18
  -8  -6   8  287.09   14.42
  -8  -6   8  317.01   12.29
  -8  -6   9   62.28    5.61
  -8  -6   9   61.04    4.34
  -8  -6   9   70.23    6.22
  -8  -6  10   10.37    2.72
  -8  -6  10   11.54    2.10
  -8  -6  10   11.66    3.14
  -8  -6  11   67.28    6.11
  -8  -6  11   78.43    4.86
  -8  -6  11   58.25    6.12
  -8  -6  12  121.25    8.58
  -8  -6  12  128.61    6.64
  -8  -6  12  128.97    9.17
  -8  -6  13    8.25    2.62
  -8  -6  13    6.53    1.61
  -8  -6  13    4.46    2.98
  -8  -6  14    9.09    2.86
  -8  -6  14   12.18    2.03
  -8  -6  14    4.57    2.50
  -8  -6  15    5.53    2.75
  -8  -6  15    3.58    1.33
   8   6  15    3.35    2.24
   8   6  15    2.01    2.08
  -8  -6  15    4.08    2.48
  -8  -6  16    8.52    2.66
   8   6  16    4.05    2.62
   8   6  16    6.24    2.81
  -8  -6  16    2.37    2.45
  -8  -6  17   19.59    4.05
   8   6  17   17.76    3.71
   8   6  17   22.50    3.89
  -8  -6  17   22.09    4.27
  -8  -6  18   26.68    4.61
   8   6  18   34.62    4.59
   8   6  18   37.91    4.91
  -8  -6  18   34.60    5.25
  -8  -6  19   53.00    6.05
   8   6  19   57.49    5.70
   8   6  19   46.38    5.30
  -8  -6  19   60.36    6.41
  -8  -6  20   19.00    4.04
  -8  -6  20   19.13    3.99
  -8  -6  21   14.03    3.39
  -8  -6  22   38.38    5.24
  -8  -6  23   12.82    3.30
  -8  -6  23   14.61    3.16
  -8  -6  24   16.66    3.51
  -8  -6  24   20.99    3.56
  -8  -6  25    9.33    2.69
   8  -7  24   95.39    7.40
   8  -7  23   21.06    3.86
   8  -7  22    0.52    2.03
  -8   7  20  237.20   12.98
  -8   7  19   13.40    3.40
  -8   7  18   37.49    5.01
  -8   7  17   47.17    5.54
  -8   7  16  131.86    9.36
  -8   7  15   53.22    5.84
  -8   7  14    6.24    2.59
  -8   7  13   95.78    7.52
  -8  -7 -13   92.36    5.36
  -8   7  12  562.09   23.34
  -8  -7 -12  619.49   20.49
  -8   7  11   90.93    7.21
  -8  -7 -11  114.55    6.03
  -8   7  10   11.26    2.76
  -8  -7 -10   10.74    1.88
  -8   7   9    6.01    2.26
  -8  -7  -9    7.10    1.77
  -8   7   8  207.95   10.98
  -8  -7  -8  219.52    9.61
  -8   7   7   42.58    4.46
  -8  -7  -7   47.01    3.92
  -8   7   6    6.54    2.02
  -8  -7  -6    6.34    1.68
  -8   7   5    8.56    2.28
  -8  -7  -5    9.34    1.89
  -8   7   4  156.98    8.75
  -8  -7  -4  166.11    8.04
  -8   7   3  143.79    8.07
  -8  -7  -3  131.39    7.89
  -8  -7  -3  142.29    7.39
  -8  -7  -2   90.96    6.30
  -8   7   2  108.23    6.72
  -8  -7  -2  102.29    6.04
  -8   7   1   60.34    4.89
  -8  -7  -1   61.52    4.94
  -8  -7  -1   60.97    4.52
  -8  -7   0  617.36   22.73
  -8   7   0  635.34   22.79
  -8  -7   0  645.15   21.95
  -8  -7   1   62.12    4.94
  -8   7  -1   59.15    4.81
  -8  -7   1   57.66    4.41
  -8   7  -2  111.23    6.85
  -8  -7   2  102.59    6.63
  -8  -7   2   99.45    6.66
  -8  -7   3  139.19    8.11
  -8   7  -3  151.77    8.36
  -8  -7   3  154.01    8.68
  -8  -7   4  162.81    8.89
  -8  -7   4  156.83    9.16
  -8  -7   4  163.82    8.05
  -8  -7   5    5.97    1.93
  -8  -7   5    8.87    2.10
  -8  -7   5    4.71    2.21
  -8  -7   6    3.47    1.77
  -8  -7   6    9.11    1.92
  -8  -7   6    5.84    2.06
  -8  -7   7   48.27    4.78
  -8  -7   7   48.45    5.14
  -8  -7   7   45.33    3.82
  -8  -7   8  209.75   11.13
  -8  -7   8  232.48   12.24
  -8  -7   8  213.99    9.64
  -8  -7   9    7.32    2.34
  -8  -7   9    7.88    1.84
  -8  -7   9    5.09    2.28
  -8  -7  10   10.79    2.71
  -8  -7  10    6.76    1.84
  -8  -7  10    8.44    3.00
  -8  -7  11  107.80    7.77
  -8  -7  11  102.51    5.92
  -8  -7  11  111.44    8.51
  -8  -7  12  537.81   22.61
  -8  -7  12  585.77   19.90
  -8  -7  12  592.43   24.07
  -8  -7  13   91.82    7.59
  -8  -7  13  105.73    5.83
  -8  -7  13   97.40    8.10
  -8  -7  14   10.93    2.96
  -8  -7  14    5.46    1.61
  -8  -7  14    9.36    3.23
  -8  -7  15   46.96    5.58
  -8  -7  15   58.91    4.07
  -8  -7  16  143.32    9.80
  -8  -7  16  154.48   10.65
  -8  -7  17   57.10    6.10
  -8  -7  17   50.27    6.04
  -8  -7  18   34.92    4.99
  -8  -7  18   34.49    4.97
  -8  -7  19   16.18    3.68
  -8  -7  19   24.55    4.33
  -8  -7  20  229.02   13.14
  -8  -7  20  286.31   14.60
  -8  -7  21   52.34    5.68
  -8  -7  21   60.50    6.29
  -8  -7  22    2.40    2.39
   8   7  22    3.04    1.84
   8   7  22    0.81    1.76
   8   7  23   21.15    3.48
   8   7  24   74.42    5.93
  -8  -7  24   91.66    6.93
   8  -8  24   17.36    3.20
   8  -8  23    4.67    2.28
   8  -8  22   11.81    3.12
  -8   8  16   61.89    6.08
  -8   8  15   38.98    4.82
  -8   8  14  214.80   11.78
  -8   8  13   34.68    4.52
  -8   8  12   67.52    5.90
  -8  -8 -12   59.99    4.32
  -8   8  11    6.28    2.23
  -8  -8 -11    5.80    1.67
  -8   8  10   46.92    4.92
  -8  -8 -10   60.64    4.37
  -8   8   9    4.98    2.03
  -8  -8  -9    4.23    1.61
  -8   8   8    4.39    2.02
  -8  -8  -8    2.42    1.62
  -8   8   7    6.14    2.19
  -8  -8  -7    8.50    1.97
  -8   8   6  187.61    9.91
   8   8  -6  194.24    9.84
  -8  -8  -6  202.83    9.25
  -8   8   5  101.44    6.73
  -8  -8  -5  105.10    6.75
  -8  -8  -5  100.03    6.07
  -8  -8  -4   88.14    5.93
  -8  -8  -4   86.28    5.51
  -8  -8  -3   24.58    3.24
  -8   8   3   24.53    3.22
  -8  -8  -2  193.99    9.78
  -8   8   2  200.48    9.90
  -8  -8  -2  219.11    9.79
  -8  -8  -1   37.72    3.84
  -8   8   1   32.88    3.59
  -8  -8  -1   45.74    4.01
  -8  -8   0   14.91    2.54
  -8   8   0   18.93    2.72
  -8  -8   0   17.10    2.70
  -8   8  -1   26.07    3.17
  -8  -8   1   27.72    3.30
  -8  -8   1   35.34    3.49
  -8   8  -2  203.75    9.85
  -8  -8   2  199.27    9.88
  -8  -8   3   24.24    3.30
  -8   8  -3   31.79    3.47
  -8  -8   3   30.80    3.92
  -8   8  -4   80.12    5.70
  -8  -8   4   78.33    5.75
  -8  -8   4   74.90    5.19
  -8  -8   4   70.70    6.06
  -8  -8   5  111.08    7.08
  -8   8  -5  109.11    6.88
  -8  -8   5  110.89    7.78
  -8  -8   5  110.94    6.47
  -8  -8   6  209.51   11.47
  -8  -8   6  227.01    9.84
  -8  -8   7    2.74    1.79
  -8  -8   7    8.18    2.04
  -8  -8   7    5.90    2.54
  -8  -8   8    2.85    1.91
  -8  -8   8    3.35    1.59
  -8  -8   8    2.55    1.99
  -8  -8   9    5.94    2.16
  -8  -8   9   10.21    1.97
  -8  -8   9    5.81    2.48
  -8  -8  10   48.91    5.09
  -8  -8  10   43.61    5.26
  -8  -8  10   39.91    3.65
  -8  -8  11    8.23    2.79
  -8  -8  11    9.03    1.92
  -8  -8  11    9.54    3.05
  -8  -8  12   50.96    5.42
  -8  -8  12   66.16    4.55
  -8  -8  12   62.64    6.48
  -8  -8  13   52.80    3.95
  -8  -8  13   44.51    5.55
  -8  -8  14  213.55   12.09
  -8  -8  14  235.81   13.52
  -8  -8  14  231.19    9.70
  -8  -8  15   57.46    6.37
  -8  -8  16   70.20    7.04
   8   8  17   50.53    5.39
   8   8  17   42.16    5.16
  -8  -8  17   60.02    6.49
   8   8  18   75.60    6.40
   8   8  18   66.98    6.36
  -8  -8  18   74.94    7.31
   8   8  19   66.54    5.96
   8   8  19   63.95    6.03
  -8  -8  19   73.00    6.96
   8   8  20   96.74    7.13
   8   8  20   98.91    7.39
  -8  -8  20  110.92    8.49
   8   8  21   84.71    6.36
   8   8  21   64.54    6.02
  -8  -8  21   84.03    7.16
   8   8  22   16.20    3.05
   8   8  22   20.64    3.43
   8   8  23    2.62    1.79
  -8  -8  24   13.90    2.90
   8  -9  22   32.16    4.28
   8  -9  21   56.61    5.70
  -8  -9 -12  241.52   10.19
  -8  -9 -11  117.15    6.38
  -8  -9 -10   15.66    2.37
  -8  -9  -9   42.64    3.77
  -8  -9  -8  231.25   10.30
   8   9  -7   37.49    4.22
  -8  -9  -7   47.79    4.02
   8   9  -6   12.35    2.55
  -8  -9  -6   13.40    2.37
   8   9  -5   47.16    4.62
  -8  -9  -5   62.42    4.70
  -8  -9  -4  261.16   11.49
  -8  -9  -3  120.44    7.00
  -8  -9  -2   53.71    4.54
  -8  -9  -1   79.96    5.60
  -8  -9   0  550.89   19.97
  -8  -9   1   79.20    5.58
  -8  -9   3  103.74    7.28
  -8  -9   4  284.84   11.93
  -8  -9   4  257.47   12.99
  -8  -9   5   53.77    4.40
  -8  -9   5   57.35    5.58
  -8  -9   6   16.76    2.58
  -8  -9   6   12.69    3.18
  -8  -9   7   44.23    5.29
  -8  -9   7   43.55    3.97
  -8  -9   8  209.94   12.14
  -8  -9   8  224.60   10.08
  -8  -9   9   46.16    5.50
  -8  -9   9   48.62    4.10
  -8  -9  10   17.71    2.60
  -8  -9  10   20.62    4.34
  -8  -9  11  126.35    9.22
  -8  -9  11  117.31    6.58
  -8  -9  12  252.36   10.83
  -8  -9  12  276.66   14.62
  -8  -9  13   44.23    3.71
  -8  -9  13   56.66    6.30
  -8  -9  14   20.39    2.49
  -8  -9  14   16.61    3.78
   8   9  15   12.95    3.38
   8   9  15   10.90    2.91
   8   9  16  128.97    8.60
   8   9  16  137.09    8.97
  -8  -9  16  111.09    8.98
   8   9  17   46.84    5.07
   8   9  17   56.82    5.67
  -8  -9  17   54.03    6.11
   8   9  18    9.54    2.64
   8   9  18    6.47    2.43
  -8  -9  18    3.40    2.14
   8   9  19   58.55    5.53
   8   9  19   66.88    5.94
  -8  -9  19   73.78    6.74
   8   9  20  188.62   10.15
   8   9  20  177.66   10.20
  -8  -9  20  213.56   11.92
   8   9  21   55.73    5.06
   8   9  21   63.76    5.61
  -8  -9  21   63.70    6.08
   8   9  22   35.61    4.14
  -8  -9  22   33.60    4.46
   8 -10  21   37.49    4.44
   8 -10  20    7.23    2.50
  -8 -10 -12   18.76    2.47
  -8 -10 -11    8.28    1.83
   8  10 -10   19.22    3.48
  -8 -10 -10   23.48    2.85
   8  10  -9   52.13    5.22
  -8 -10  -9   66.56    4.76
   8  10  -8  287.46   13.72
  -8 -10  -8  314.54   12.68
   8  10  -7  107.76    7.41
  -8 -10  -7  113.55    6.60
   8  10  -6  237.15   11.72
  -8 -10  -6  243.51   10.87
   8  10  -5   63.65    5.42
  -8 -10  -5   68.65    5.12
   8  10  -4  117.73    7.48
  -8 -10  -4  132.03    7.33
  -8 -10  -3  163.66    8.53
  -8 -10  -2   48.54    4.39
  -8 -10  -1    0.96    1.53
  -8 -10   0   22.94    3.07
  -8 -10   1    1.94    1.57
  -8 -10   4  129.31    7.37
  -8 -10   4  117.71    8.15
  -8 -10   5   66.81    5.04
  -8 -10   5   66.33    6.12
  -8 -10   6  232.57   10.55
  -8 -10   6  217.18   12.12
  -8 -10   7  115.39    8.48
  -8 -10   7  120.94    6.97
  -8 -10   8  300.00   15.15
  -8 -10   8  307.79   12.83
  -8 -10   9   57.62    6.04
  -8 -10   9   52.78    4.38
  -8 -10  10   20.36    2.82
  -8 -10  10   13.45    3.49
  -8 -10  11    9.69    3.10
  -8 -10  11    9.39    2.03
  -8 -10  12   23.67    4.26
  -8 -10  12   25.28    2.94
  -8 -10  13   26.91    2.87
  -8 -10  13   25.58    4.41
   8  10  14   59.12    5.66
   8  10  14   53.29    5.59
  -8 -10  14   59.31    6.32
   8  10  15   27.72    4.16
   8  10  15   33.16    4.36
  -8 -10  15   24.25    4.24
   8  10  16   29.29    4.18
   8  10  16   32.96    4.29
  -8 -10  16   41.49    5.30
   8  10  17   13.46    3.14
   8  10  17   10.11    2.68
  -8 -10  17   10.55    3.12
   8  10  18   41.02    4.51
   8  10  18   39.85    4.65
  -8 -10  18   42.25    5.23
   8  10  19   11.40    2.66
   8  10  19   10.55    2.81
  -8 -10  19   14.80    3.50
   8  10  20   17.12    3.08
   8  10  20   16.33    2.84
  -8 -10  20    9.14    2.76
   8  10  21   32.78    3.86
   8  10  21   35.78    3.85
  -8 -10  21   39.38    4.66
   8  11 -14   49.49    5.02
   8  11 -13  133.50    8.48
   8  11 -12   65.22    5.89
  -8 -11 -12   64.50    4.45
   8  11 -11   30.29    4.08
  -8 -11 -11   26.56    2.93
   8  11 -10  103.17    7.45
  -8 -11 -10  111.33    6.28
   8  11  -9  132.38    8.34
  -8 -11  -9  130.91    7.13
   8  11  -8   88.67    6.72
  -8 -11  -8   90.64    5.78
   8  11  -7   62.34    5.56
  -8 -11  -7   72.39    5.14
   8  11  -6    9.56    2.56
  -8 -11  -6   13.28    2.45
   8  11  -5   63.93    5.56
  -8 -11  -5   76.74    5.46
   8  11  -4  166.45    9.14
  -8 -11  -4  154.79    8.43
   8  11  -3   51.18    4.76
  -8 -11  -3   62.77    4.93
  -8 -11  -2   20.32    3.03
  -8 -11  -1   27.13    3.40
  -8 -11   0  101.75    6.60
  -8 -11   1   25.51    3.33
  -8 -11   4  183.38    9.30
  -8 -11   4  182.17   10.40
  -8 -11   5   60.67    4.90
  -8 -11   5   64.73    6.07
  -8 -11   6   19.29    2.79
  -8 -11   6   20.31    3.71
  -8 -11   7   73.84    6.67
  -8 -11   7   65.23    5.02
  -8 -11   8   90.46    7.54
  -8 -11   8   87.25    5.75
  -8 -11   9  132.63    9.39
  -8 -11   9  141.36    7.56
  -8 -11  10  101.86    8.18
  -8 -11  10  103.57    6.17
  -8 -11  11   26.71    3.11
  -8 -11  11   27.69    4.48
  -8 -11  12   59.64    6.23
  -8 -11  12   56.87    4.30
  -8 -11  13  141.39    7.06
  -8 -11  13  143.77    9.86
   8  11  14   67.01    6.01
   8  11  14   66.74    6.09
  -8 -11  14   73.55    6.93
   8  11  15    8.46    2.58
   8  11  15    8.44    2.61
  -8 -11  15   11.44    3.19
   8  11  16    2.42    1.84
   8  11  16    3.85    2.00
  -8 -11  16    1.59    1.87
   8  11  17   79.92    6.14
   8  11  17   78.65    6.35
  -8 -11  17   85.84    7.20
   8  11  18   23.75    3.41
   8  11  18   30.32    3.89
  -8 -11  18   31.35    4.47
   8  11  19   25.79    3.55
   8  11  19   28.42    3.55
  -8 -11  19   24.98    3.87
  -8 -11  20   13.79    3.16
   8  12 -17   15.41    2.84
   8  12 -16   34.40    3.99
   8  12 -15   26.14    3.67
   8  12 -14    7.00    2.28
   8  12 -13    4.76    2.12
   8  12 -12   18.51    3.22
   8  12 -11   20.29    3.39
  -8 -12 -11   23.26    2.69
   8  12 -10   18.32    3.22
  -8 -12 -10   13.57    2.28
   8  12  -9   -0.41    1.77
  -8 -12  -9    1.10    1.29
   8  12  -8  162.63    9.47
  -8 -12  -8  180.49    8.68
   8  12  -7  134.30    8.19
  -8 -12  -7  121.78    7.06
   8  12  -6  112.94    7.60
  -8 -12  -6  132.82    7.38
   8  12  -5   27.05    3.68
  -8 -12  -5   23.95    3.18
   8  12  -4   71.58    5.68
  -8 -12  -4   73.94    5.42
   8  12  -3   55.19    4.96
  -8 -12  -3   64.35    5.03
  -8 -12  -2   84.60    5.88
  -8 -12  -1   46.52    4.29
  -8 -12   0   82.48    5.83
  -8 -12   1   40.83    4.15
  -8 -12   4   76.72    5.54
  -8 -12   5   35.05    3.65
  -8 -12   5   22.14    3.79
  -8 -12   6  134.44    7.38
  -8 -12   6  111.54    8.16
  -8 -12   7  117.00    8.44
  -8 -12   7  135.45    7.41
  -8 -12   8  164.83   10.32
  -8 -12   8  178.26    8.73
  -8 -12   9    6.04    1.69
  -8 -12   9    4.10    2.50
  -8 -12  10   18.45    2.64
  -8 -12  10   18.17    3.65
  -8 -12  11   20.34    3.85
  -8 -12  11   22.15    2.79
  -8 -12  12   14.84    2.25
  -8 -12  12   10.95    3.11
   8  12  13    4.14    2.21
   8  12  13    4.34    2.24
  -8 -12  13    5.17    2.57
   8  12  14   12.96    2.89
   8  12  14    8.33    2.55
  -8 -12  14   13.20    3.40
   8  12  15   37.33    4.24
   8  12  15   31.95    4.10
  -8 -12  15   37.69    4.81
   8  12  16   31.62    3.73
   8  12  16   30.63    3.82
  -8 -12  16   33.11    4.47
   8  12  17   16.59    2.77
   8  12  17    9.91    2.39
  -8 -12  17   16.96    3.21
  -8 -12  18   14.28    2.88
   8  13 -15   89.74    6.21
   8  13 -14  116.06    7.20
   8  13 -13   18.53    3.05
   8  13 -12   22.98    3.32
   8  13 -11  112.81    7.32
  -8 -13 -11  115.68    6.05
   8  13 -10   53.26    5.08
  -8 -13 -10   69.60    4.55
   8  13  -9   94.55    6.75
  -8 -13  -9  108.49    6.12
   8  13  -8    3.38    1.87
  -8 -13  -8    1.93    1.31
   8  13  -7  131.09    8.00
  -8 -13  -7  131.81    7.27
   8  13  -6   64.71    5.42
  -8 -13  -6   73.03    5.12
   8  13  -5   27.88    3.65
  -8 -13  -5   31.28    3.48
   8  13  -4   11.03    2.48
  -8 -13  -4   14.43    2.58
  -8 -13  -3  174.56    8.97
  -8 -13  -2  144.19    7.96
  -8 -13  -1  167.03    8.77
  -8 -13   0    0.97    1.41
  -8 -13   1  182.86    9.23
  -8 -13   4   18.08    2.73
  -8 -13   5   35.15    3.76
  -8 -13   6   76.40    5.33
  -8 -13   7  135.04    8.83
  -8 -13   7  135.78    7.41
  -8 -13   8    3.09    1.55
  -8 -13   8    0.46    1.69
  -8 -13   9  112.17    8.01
  -8 -13   9  116.35    6.51
  -8 -13  10   48.72    5.29
  -8 -13  10   46.86    3.80
  -8 -13  11  114.82    8.14
  -8 -13  11  108.08    5.99
   8  13  12   17.48    3.13
   8  13  12   25.13    3.65
  -8 -13  12   22.96    3.75
   8  13  13   25.17    3.56
   8  13  13   21.73    3.20
  -8 -13  13   23.05    3.73
   8  13  14  111.71    7.04
   8  13  14  105.62    7.07
  -8 -13  14  123.98    8.21
   8  13  15  105.36    6.51
   8  13  15   91.06    6.29
  -8 -13  15   85.63    6.82
  -8 -13  16   22.84    3.49
   8  14 -11   -0.64    1.43
   8  14 -10   43.49    4.24
  -8 -14 -10   40.80    3.34
   8  14  -9   20.49    3.02
  -8 -14  -9   24.83    2.77
   8  14  -8   67.94    5.34
  -8 -14  -8   75.01    4.94
   8  14  -7   58.47    5.01
  -8 -14  -7   68.92    4.74
   8  14  -6  132.37    7.87
  -8 -14  -6  164.50    7.96
  -8 -14  -5   31.59    3.40
  -8 -14  -4   35.26    3.57
  -8 -14  -3   39.20    3.83
  -8 -14  -2   12.12    2.35
  -8 -14  -1   14.00    2.37
  -8 -14   0   29.80    3.31
  -8 -14   1    6.66    1.78
  -8 -14   4   28.17    3.26
  -8 -14   5   26.95    3.15
  -8 -14   6  149.36    7.68
  -8 -14   7   78.49    5.15
  -8 -14   8   60.79    5.54
  -8 -14   8   71.00    4.77
  -8 -14   9   23.88    2.73
  -8 -14   9   24.31    3.63
  -8 -14  10   42.02    4.64
  -8 -14  10   34.73    3.21
   8  14  11    0.67    1.57
   8  14  11    0.71    1.42
  -8 -14  11    2.04    1.74
   8  14  12   38.99    3.93
   8  14  12   43.80    4.28
  -8 -14  12   44.66    4.65
  -8 -15  -8   10.75    1.87
  -8 -15  -7   33.25    3.19
  -8 -15  -6   18.99    2.58
  -8 -15  -5   22.33    2.81
  -8 -15  -4   -0.53    1.36
  -8 -15  -3   84.14    5.42
  -8 -15  -2   61.23    4.54
  -8 -15  -1   69.80    4.90
  -8 -15   0   27.46    3.20
  -8 -15   1   70.99    4.98
  -8 -15   4    1.04    1.37
  -8 -15   5   27.65    2.99
  -8 -15   6   18.15    2.54
  -8 -15   7   33.44    3.14
  -8 -15   8   12.52    2.07
  -8 -16  -3    6.00    1.66
  -8 -16  -2    5.87    1.72
  -8 -16  -1    3.08    1.33
  -8 -16   0   58.11    4.20
  -8 -16   1    3.54    1.56
  -8 -16   3    6.19    1.68
  -8 -16   4   16.98    2.28
  -9   0   0    0.28    1.49
  -9   0   0    2.12    1.60
  -9   0   1   30.75    3.33
  -9   0  -1   29.13    3.27
  -9   0   1   21.13    3.27
  -9   0  -2  196.58    9.33
  -9   0   2  196.62   10.66
  -9   0  -3   40.03    3.67
  -9   0   3   40.42    3.74
  -9   0   3   40.96    4.42
  -9   0   4  178.05    8.61
  -9   0  -4  178.92    8.73
  -9   0   4  162.74    9.70
  -9   0   5  269.00   11.39
  -9   0  -5  256.27   11.21
  -9   0   5  258.34   12.91
  -9   0   6  105.13    6.37
  -9   0  -6  108.34    6.42
  -9   0   6  115.72    7.99
  -9   0  -7   26.53    3.05
  -9   0   7   20.82    2.72
  -9   0   7   25.69    3.92
  -9   0   8    2.86    1.40
  -9   0  -8    3.14    1.45
  -9   0   8    1.42    2.01
   9   0   9    5.45    2.01
  -9   0   9    3.44    1.54
  -9   0  -9    8.50    1.81
   9   0   9    4.58    2.07
  -9   0   9    2.93    2.13
   9   0  10  137.99    8.09
  -9   0  10  136.13    7.30
   9   0  10  132.05    8.14
  -9   0  10  133.45    9.11
   9   0  11    3.26    2.03
   9   0  11    1.54    1.72
  -9   0  11    3.67    2.55
   9   0  12  297.60   13.70
   9   0  12  326.63   14.37
  -9   0  12  289.56   15.22
   9   0  13   37.39    4.29
   9   0  13   39.39    4.49
  -9   0  13   41.75    5.38
   9   0  14   47.49    4.89
   9   0  14   51.00    5.15
  -9   0  14   52.20    6.17
   9   0  15    3.82    2.11
   9   0  15    5.89    2.38
  -9   0  15    5.46    2.78
   9   0  16    3.69    2.25
   9   0  16    2.58    2.06
  -9   0  16    1.88    2.36
   9   0  17  254.72   12.35
   9   0  17  214.30   11.89
  -9   0  17  235.06   14.03
   9   0  18  478.39   19.70
   9   0  18  489.78   19.46
  -9   0  18  428.05   21.20
   9   0  19   99.34    7.43
   9   0  19   82.12    7.17
  -9   0  19   91.37    8.20
   9   0  20    1.38    2.00
   9   0  20    3.56    2.32
  -9   0  20    5.88    2.92
   9   0  21    3.15    2.15
   9   0  21    7.02    2.59
  -9   0  21    9.00    3.55
   9   0  22  136.84    8.57
   9   0  22  129.01    8.74
  -9   0  22  122.13    9.72
   9   0  23   24.80    3.85
   9   0  23   24.45    3.69
  -9   0  23   18.77    4.05
   9   0  24   39.27    4.35
  -9   0  24   32.79    5.02
   9   0  25  113.75    7.14
  -9   0  25   99.94    8.20
  -9   0  26    8.36    2.63
  -9   1  26   51.58    5.49
   9  -1  25  132.60    7.74
   9  -1  25  124.69    7.06
  -9   1  25  129.03    9.15
   9  -1  24  115.57    7.52
   9  -1  24  108.54    7.94
   9  -1  24  126.06    7.20
   9  -1  23  115.01    7.60
   9  -1  23  114.83    8.27
   9  -1  22    2.02    2.20
   9  -1  22    2.54    2.06
   9  -1  21   13.51    3.19
   9  -1  21   17.53    3.31
   9  -1  20   11.53    3.20
   9  -1  20   12.11    3.01
   9  -1  19   -1.36    2.21
   9  -1  18  121.36    8.30
   9  -1  17   68.76    6.10
   9  -1  16   96.06    7.28
   9  -1  16  111.18    7.47
   9  -1  15  235.43   11.72
   9  -1  15  231.09   11.94
   9  -1  14   87.23    6.48
   9  -1  14   77.60    6.30
   9  -1  13   62.85    5.47
   9  -1  13   71.98    5.91
   9  -1  12    4.14    1.87
   9  -1  12    6.40    2.28
  -9  -1 -11   10.31    2.01
   9  -1  11   12.36    2.68
   9  -1  11    5.41    2.11
   9  -1  10   78.66    5.73
  -9  -1 -10   70.66    4.93
   9  -1  10   70.67    5.67
   9  -1   9  248.54   11.30
  -9  -1  -9  239.56   10.50
   9  -1   9  230.57   11.19
   9  -1   8  223.19   10.59
  -9  -1  -8  223.51   10.08
   9  -1   8  235.93   10.95
   9  -1   7  275.84   11.86
  -9  -1  -7  278.77   11.55
  -9   1   7  263.04   11.54
   9  -1   7  262.10   11.86
  -9  -1  -6   15.83    2.43
  -9   1   6   14.87    2.38
  -9  -1  -5  102.04    6.01
  -9   1   5   89.25    5.85
  -9   1   4  164.16    8.21
  -9  -1  -4  152.36    7.92
  -9   1   3  188.13    9.14
  -9  -1  -3  200.82    9.26
  -9  -1  -2   29.74    3.28
  -9   1   1  102.36    6.28
  -9  -1  -1  111.67    6.39
  -9  -1   0   11.50    2.64
  -9   1   0   10.97    2.23
  -9  -1   0   10.40    2.22
  -9  -1   1  107.23    7.50
  -9   1  -1  110.82    6.61
  -9  -1   1  122.29    6.64
  -9  -1   2   26.36    3.76
  -9   1  -2   35.99    3.52
  -9  -1   3  184.58   10.37
  -9   1  -3  196.60    9.21
  -9  -1   4  143.94    9.04
  -9   1  -4  161.85    8.11
  -9  -1   4  147.41    7.66
  -9  -1   5  106.40    7.61
  -9   1  -5  107.38    6.47
  -9  -1   5  105.07    6.27
  -9  -1   6   12.11    2.86
  -9  -1   6   13.65    2.27
  -9   1  -6   15.63    2.63
  -9  -1   7  291.56   14.09
  -9  -1   7  283.26   12.00
  -9  -1   7  297.41   13.85
  -9  -1   8  202.28   11.38
  -9  -1   8  203.88    9.50
  -9  -1   8  217.52   11.47
  -9  -1   9  220.43   12.15
  -9  -1   9  230.98   10.18
  -9  -1   9  217.38   11.90
  -9  -1  10   82.66    7.05
  -9  -1  10   72.91    5.11
  -9  -1  10   83.19    6.87
  -9  -1  11   12.09    3.25
   9   1  11    8.07    2.40
  -9  -1  11    7.56    1.92
   9   1  11    9.33    2.62
  -9  -1  11    7.70    2.70
  -9  -1  12    7.62    2.86
   9   1  12    8.29    2.59
   9   1  12    3.72    2.10
  -9  -1  12    4.98    1.51
  -9  -1  12    4.77    2.48
  -9  -1  13   77.99    7.22
   9   1  13   63.80    5.81
   9   1  13   73.80    6.28
  -9  -1  13   79.16    7.08
  -9  -1  14   83.36    7.53
   9   1  14   77.84    6.34
   9   1  14   71.84    6.26
  -9  -1  14   72.26    6.92
   9   1  15  249.29   12.26
   9   1  15  230.06   12.20
  -9  -1  15  223.47   13.45
   9   1  16   99.18    7.30
   9   1  16  101.06    7.58
  -9  -1  16   99.40    8.45
   9   1  17   78.79    6.48
   9   1  17   76.27    6.53
  -9  -1  17   83.80    7.79
   9   1  18  120.87    7.99
   9   1  18  113.36    8.04
   9   1  18  100.25    7.72
  -9  -1  18   94.29    8.61
   9   1  19   -0.89    1.93
   9   1  19   -0.48    1.97
   9   1  19    0.97    1.70
  -9  -1  19   -1.31    2.78
   9   1  20   12.17    3.11
   9   1  20   12.52    2.95
  -9  -1  20   13.03    3.87
   9   1  21   15.96    3.36
   9   1  21   19.71    3.54
  -9  -1  21   14.09    3.72
   9   1  22   -0.44    1.77
  -9  -1  22   -0.63    2.53
   9   1  23  122.72    7.96
  -9  -1  23  104.07    8.71
   9   1  24  115.43    7.67
  -9  -1  24  124.11    9.16
   9   1  25  128.18    7.74
  -9  -1  25  111.58    8.59
  -9  -1  26   54.35    5.70
   9  -2  25   21.46    3.49
  -9   2  25   18.62    3.84
   9  -2  24   14.90    3.36
  -9   2  24   21.15    4.08
   9  -2  24   13.22    2.66
   9  -2  24   14.20    2.50
   9  -2  23    1.98    1.93
   9  -2  23   -0.38    1.94
  -9   2  23    0.59    2.64
   9  -2  23    2.53    1.48
   9  -2  22   19.16    3.69
   9  -2  22   27.46    3.88
  -9   2  22   20.28    4.11
   9  -2  21   14.84    3.42
   9  -2  21   16.78    3.20
  -9   2  21   24.58    4.54
  -9   2  20   33.35    5.26
   9  -2  20   43.83    4.78
  -9   2  19  134.13   10.24
   9  -2  19  140.36    8.75
  -9   2  18  116.11    9.40
   9  -2  18  116.10    7.88
  -9   2  17  167.05   11.61
   9  -2  17  180.70   10.07
  -9   2  16   65.95    6.90
   9  -2  16   57.58    5.43
  -9   2  15   10.88    3.73
   9  -2  15    9.93    2.75
  -9   2  14   98.36    8.28
   9  -2  14  113.17    7.30
   9  -2  14  112.55    7.48
  -9   2  13   19.15    3.71
   9  -2  13   23.64    3.48
  -9  -2 -13   19.77    2.63
   9  -2  13   13.03    2.69
  -9   2  12   91.15    7.45
   9  -2  12   75.79    5.73
  -9  -2 -12   85.24    5.29
   9  -2  12   76.63    5.90
  -9   2  11  234.39   12.81
   9  -2  11  234.02   10.89
  -9  -2 -11  229.69   10.08
   9  -2  11  226.23   10.96
  -9   2  10  207.12   11.66
   9  -2  10  193.74    9.60
  -9  -2 -10  192.86    9.09
   9  -2  10  210.56   10.04
  -9   2   9  337.66   15.62
   9  -2   9  329.94   13.36
  -9  -2  -9  338.72   13.10
   9  -2   9  297.44   13.24
  -9   2   8   24.56    3.90
   9  -2   8   28.11    3.20
   9  -2   8   30.43    3.37
  -9  -2  -8   29.29    3.20
  -9   2   7  204.91   11.15
  -9  -2  -7  192.16    9.08
  -9   2   6  543.55   21.67
  -9  -2  -6  549.28   19.42
  -9   2   5  206.70   11.37
  -9  -2  -5  234.23   10.13
  -9   2   4   93.52    7.07
  -9  -2  -4  109.64    6.19
  -9   2   3   26.74    3.71
  -9  -2  -3   21.36    2.85
  -9   2   2  153.33    9.17
  -9  -2  -2  148.40    7.65
  -9   2   1   46.64    4.78
  -9  -2  -1   37.41    3.59
  -9  -2   0    8.11    2.25
  -9   2   0    9.30    2.55
  -9  -2   0    7.00    1.92
  -9  -2   1   39.49    4.50
  -9  -2   1   33.10    3.31
  -9  -2   2  132.82    8.50
  -9  -2   3   27.11    3.75
  -9  -2   4   87.25    6.92
  -9  -2   4  103.33    6.81
  -9  -2   4   95.07    5.82
  -9  -2   5  233.03   11.78
  -9  -2   5  218.05   11.06
  -9  -2   5  210.03    9.67
  -9  -2   6  558.87   22.10
  -9  -2   6  551.97   19.79
  -9  -2   6  573.32   21.80
  -9  -2   7  180.77   10.46
  -9  -2   7  177.28    8.63
  -9  -2   7  186.61   10.30
  -9  -2   8   36.75    4.64
  -9  -2   8   30.69    4.19
  -9  -2   8   32.52    3.37
  -9  -2   9  320.73   15.31
  -9  -2   9  308.51   12.80
  -9  -2   9  337.40   15.38
  -9  -2  10  210.45   11.98
  -9  -2  10  212.06    9.70
  -9  -2  10  219.14   11.97
  -9  -2  11  243.59   13.16
  -9  -2  11  232.59   10.42
  -9  -2  11  254.92   13.27
  -9  -2  12   76.48    6.96
   9   2  12   60.87    5.72
  -9  -2  12   72.09    4.95
   9   2  12   77.00    6.38
  -9  -2  12   78.20    6.89
  -9  -2  13   19.84    3.84
   9   2  13   28.09    4.07
  -9  -2  13   27.92    3.08
   9   2  13   23.18    3.63
  -9  -2  13   20.24    3.90
  -9  -2  14   95.36    8.19
   9   2  14  110.49    7.74
  -9  -2  14  108.83    6.10
   9   2  14  115.57    8.00
  -9  -2  14   96.45    8.15
  -9  -2  15   17.00    3.91
   9   2  15   23.40    3.81
   9   2  15   13.91    3.00
  -9  -2  15   14.30    3.64
  -9  -2  16   48.75    6.00
   9   2  16   54.81    5.38
   9   2  16   45.34    5.22
  -9  -2  16   51.64    5.98
   9   2  17  172.80   10.13
   9   2  17  169.29   10.29
  -9  -2  17  165.20   11.52
   9   2  17  179.26   10.20
  -9  -2  17  185.98   11.59
   9   2  18  131.37    8.58
   9   2  18  134.37    8.96
  -9  -2  18  112.71    9.40
   9   2  18  122.91    8.41
  -9  -2  18  138.72    9.81
   9   2  19  150.93    9.20
   9   2  19  135.39    9.02
  -9  -2  19  142.52   10.50
   9   2  20   43.08    5.06
   9   2  20   48.10    5.00
  -9  -2  20   36.08    5.49
   9   2  21   11.98    3.07
  -9  -2  21   17.74    4.20
   9   2  22   29.66    4.13
  -9  -2  22   29.05    4.81
   9   2  23    4.22    2.22
  -9  -2  23    2.37    2.65
   9   2  24   15.46    3.05
  -9  -2  24   22.44    4.08
  -9  -2  25   16.19    3.53
   9   2  25   22.36    3.30
   9  -3  25   44.58    4.75
  -9   3  25   24.63    4.15
   9  -3  24   14.08    3.17
  -9   3  24   19.76    3.85
   9  -3  23   10.52    2.98
  -9   3  23    9.67    3.24
   9  -3  22    9.90    2.79
   9  -3  22    8.60    2.35
  -9   3  22    8.38    3.31
   9  -3  22   12.99    2.44
   9  -3  21    2.67    2.08
   9  -3  21    3.11    1.78
  -9   3  21    0.62    2.49
   9  -3  21    1.93    1.66
   9  -3  20   -0.40    1.55
  -9   3  20   -0.63    2.36
   9  -3  19    7.27    2.16
  -9   3  19    3.18    2.32
  -9   3  18  107.47    8.97
   9  -3  18  118.29    7.68
  -9   3  17   91.11    8.12
   9  -3  17  100.80    6.98
  -9   3  16  176.50   11.65
   9  -3  16  185.92    9.92
  -9   3  15  195.91   12.34
   9  -3  15  205.44   10.44
  -9   3  14  236.33   13.57
   9  -3  14  237.18   11.36
  -9   3  13   28.16    4.48
  -9  -3 -13   26.50    2.94
  -9   3  12    5.42    2.43
  -9  -3 -12    6.26    1.75
  -9   3  11   41.86    5.17
  -9  -3 -11   34.51    3.41
  -9   3  10   76.41    6.68
  -9  -3 -10   65.21    4.72
  -9   3   9   94.30    7.40
  -9  -3  -9  103.44    6.02
  -9   3   8   54.44    5.55
  -9  -3  -8   55.31    4.31
  -9   3   7  135.15    8.87
  -9  -3  -7  151.49    7.61
  -9   3   6   32.17    4.21
  -9  -3  -6   34.69    3.38
  -9   3   5  188.17   10.31
  -9  -3  -5  171.05    8.44
  -9   3   4  274.32   13.14
  -9  -3  -4  263.79   11.27
  -9   3   3   62.08    5.60
  -9  -3  -3   59.10    4.51
  -9   3   2   81.14    6.35
  -9  -3  -2   88.44    5.54
  -9  -3  -1  457.74   18.98
  -9   3   1  463.57   18.88
  -9  -3  -1  469.35   17.03
  -9  -3   0  262.94   12.95
  -9   3   0  264.35   12.95
  -9  -3   0  275.46   11.45
  -9   3  -1  467.48   19.17
  -9  -3   1  470.07   19.21
  -9  -3   1  478.18   17.29
  -9  -3   2   67.13    5.77
  -9  -3   2   58.97    4.82
  -9  -3   3   68.86    5.83
  -9  -3   3   57.30    4.87
  -9  -3   4  265.94   12.98
  -9  -3   4  266.14   11.18
  -9  -3   4  252.87   12.10
  -9  -3   5  194.00   10.60
  -9  -3   5  176.99    8.58
  -9  -3   5  185.83    9.96
  -9  -3   6   25.77    3.78
  -9  -3   6   21.92    3.43
  -9  -3   6   27.83    3.10
  -9  -3   7  149.64    9.33
  -9  -3   7  147.15    7.55
  -9  -3   7  140.70    8.89
  -9  -3   8   56.90    5.66
  -9  -3   8   53.44    5.41
  -9  -3   8   54.59    4.28
  -9  -3   9   96.62    7.58
  -9  -3   9  112.98    6.41
  -9  -3   9   97.07    7.56
  -9  -3  10   65.78    6.29
  -9  -3  10   67.06    6.24
  -9  -3  10   65.49    4.74
  -9  -3  11   32.66    4.68
  -9  -3  11   24.48    4.13
  -9  -3  11   38.26    3.56
  -9  -3  12    5.46    2.71
  -9  -3  12    5.72    1.73
  -9  -3  12    8.06    2.92
  -9  -3  13   24.89    4.36
  -9  -3  13   29.03    3.07
   9   3  13   28.42    4.07
   9   3  13   27.96    4.22
  -9  -3  13   19.88    3.87
  -9  -3  14  246.63   13.70
   9   3  14  246.72   12.46
  -9  -3  14  235.66   10.15
   9   3  14  223.64   12.33
  -9  -3  14  232.58   13.23
  -9  -3  15  220.68   13.00
   9   3  15  214.11   11.66
  -9  -3  15  204.12    9.19
   9   3  15  211.31   11.78
  -9  -3  15  231.45   12.92
  -9  -3  16  166.51   11.55
   9   3  16  194.65   10.82
   9   3  16  192.90   11.02
  -9  -3  16  192.35   11.83
  -9  -3  17   93.26    8.38
   9   3  17  105.46    7.72
   9   3  17  122.18    8.47
  -9  -3  17   99.97    8.33
  -9  -3  18  105.24    9.00
   9   3  18  102.91    7.61
   9   3  18  103.95    7.79
  -9  -3  18  110.38    8.67
  -9  -3  19   16.56    4.18
   9   3  19   13.10    3.29
   9   3  19   10.41    2.91
  -9  -3  19   13.30    3.92
  -9  -3  20   -0.63    2.67
   9   3  20    0.48    1.97
   9   3  20    3.99    2.20
  -9  -3  20    1.70    2.27
   9   3  21   -0.92    2.11
  -9  -3  21    3.09    2.55
   9   3  22   10.61    2.90
  -9  -3  22   10.18    3.21
   9   3  23   15.50    3.22
  -9  -3  23   16.04    3.73
  -9  -3  24   17.24    3.81
   9   3  24   13.74    2.79
   9   3  25   33.66    3.93
  -9  -3  25   23.41    3.93
   9  -4  24   22.28    3.66
  -9   4  24   19.07    3.70
   9  -4  23    2.48    1.93
  -9   4  23    5.39    2.68
   9  -4  22    4.14    2.20
  -9   4  22    6.25    2.54
   9  -4  21   33.43    4.87
  -9   4  21   39.67    5.50
  -9   4  20   18.79    4.25
  -9   4  19    4.31    2.62
  -9   4  18   39.78    5.36
  -9   4  17  202.84   12.60
  -9   4  16   13.40    3.38
  -9   4  15   32.23    5.05
  -9   4  14  185.11   11.55
  -9   4  13   92.32    7.81
  -9  -4 -13   93.48    5.56
  -9   4  12  122.08    8.96
  -9  -4 -12  132.35    6.88
  -9   4  11   67.03    6.50
  -9  -4 -11   71.66    4.84
  -9   4  10   73.90    6.52
  -9  -4 -10   67.46    4.81
  -9   4   9  307.26   14.75
  -9  -4  -9  290.04   12.01
  -9   4   8  283.49   13.92
  -9  -4  -8  277.32   11.63
  -9   4   7  337.97   15.79
  -9  -4  -7  362.31   13.92
  -9   4   6  414.85   17.81
  -9  -4  -6  416.87   15.65
  -9   4   5  137.93    8.80
  -9  -4  -5  148.70    7.58
  -9   4   4   43.97    4.83
  -9  -4  -4   51.77    4.12
  -9   4   3  183.86   10.22
  -9  -4  -3  187.55    8.88
  -9   4   2  324.80   14.96
  -9  -4  -2  348.24   13.56
  -9   4   1   46.69    4.77
  -9  -4  -1   47.77    4.72
  -9  -4  -1   43.03    3.73
  -9   4   0    7.13    2.13
  -9  -4   0    6.77    1.94
  -9  -4   0    3.86    1.68
  -9  -4   1   41.59    4.52
  -9   4  -1   54.51    5.20
  -9  -4   1   56.19    4.36
  -9  -4   2  335.39   15.10
  -9  -4   3  159.80    9.45
  -9  -4   3  165.40    8.92
  -9  -4   4   56.53    5.40
  -9  -4   4   61.92    4.54
  -9  -4   4   56.66    5.00
  -9  -4   5  152.70    8.80
  -9  -4   5  143.48    7.39
  -9  -4   6  432.06   18.03
  -9  -4   6  415.33   17.57
  -9  -4   6  406.82   15.63
  -9  -4   7  338.41   16.01
  -9  -4   7  357.48   16.10
  -9  -4   7  374.17   14.21
  -9  -4   8  280.34   14.00
  -9  -4   8  297.96   12.04
  -9  -4   8  271.67   13.86
  -9  -4   9  250.08   13.49
  -9  -4   9  282.86   11.57
  -9  -4   9  272.98   13.81
  -9  -4  10   73.14    6.57
  -9  -4  10   63.01    4.69
  -9  -4  10   76.19    6.73
  -9  -4  11   83.98    7.13
  -9  -4  11   74.89    5.07
  -9  -4  11   69.55    6.57
  -9  -4  12  146.15    9.75
  -9  -4  12  134.07    7.08
  -9  -4  13   80.54    7.24
   9   4  13   75.72    6.60
  -9  -4  13   90.97    5.52
   9   4  13   87.80    7.21
  -9  -4  13  100.12    7.97
  -9  -4  14  188.01   11.66
   9   4  14  174.99   10.56
  -9  -4  14  187.72    8.65
   9   4  14  207.23   11.40
  -9  -4  14  189.05   11.66
  -9  -4  15   34.60    5.12
   9   4  15   38.61    4.66
   9   4  15   30.38    4.52
  -9  -4  15   31.78    3.08
  -9  -4  15   39.38    5.25
  -9  -4  16   12.78    3.48
   9   4  16   10.99    3.21
   9   4  16   16.00    3.45
  -9  -4  16   14.02    3.62
  -9  -4  17  209.55   12.78
   9   4  17  211.13   11.48
   9   4  17  190.55   11.29
  -9  -4  17  203.22   12.29
  -9  -4  18   44.13    5.68
   9   4  18   41.66    4.95
   9   4  18   53.83    5.54
  -9  -4  18   39.62    5.28
  -9  -4  19    6.16    2.82
   9   4  19    3.88    2.46
   9   4  19    5.00    2.39
  -9  -4  19    3.44    2.50
  -9  -4  20   16.99    3.95
   9   4  20   18.97    3.75
   9   4  20   12.83    2.99
  -9  -4  20   17.94    3.81
  -9  -4  21   26.71    4.69
   9   4  21   37.54    4.40
   9   4  21   34.82    4.56
  -9  -4  21   40.54    5.09
   9   4  22    6.55    2.49
  -9  -4  22    6.85    2.78
   9   4  23    8.23    2.51
  -9  -4  23    8.09    3.07
  -9  -4  24   12.14    3.10
   9   4  24   14.58    2.92
   9   4  25   15.84    2.84
   9  -5  24   51.40    5.37
  -9   5  23   75.20    6.77
   9  -5  23   67.59    6.28
  -9   5  22   44.90    5.50
   9  -5  22   41.48    5.09
  -9   5  21   15.59    3.62
  -9   5  20    7.51    2.82
  -9   5  19   13.55    3.37
  -9   5  18   44.00    5.71
  -9   5  17    5.38    2.80
  -9   5  16   85.92    7.80
  -9   5  15   68.23    6.84
  -9   5  14  183.17   11.40
  -9   5  13  113.85    8.64
  -9  -5 -13  116.71    6.34
  -9   5  12    1.08    2.29
  -9  -5 -12    1.82    1.34
  -9   5  11   21.32    3.77
  -9  -5 -11   23.81    2.79
  -9   5  10   65.88    6.22
  -9  -5 -10   66.87    4.70
  -9   5   9  105.81    7.89
  -9  -5  -9  112.19    6.33
  -9   5   8   82.75    6.67
  -9  -5  -8   77.36    5.17
  -9   5   7  183.70   10.52
  -9  -5  -7  187.31    8.87
  -9   5   6   49.71    5.13
  -9  -5  -6   59.00    4.49
  -9   5   5   86.56    6.71
  -9  -5  -5   89.16    5.65
  -9   5   4   63.87    5.65
  -9  -5  -4   68.65    4.90
  -9   5   3   20.30    3.26
  -9  -5  -3   28.10    3.20
  -9   5   2   87.08    6.66
  -9  -5  -2   82.54    6.57
  -9  -5  -1   53.03    5.02
  -9   5   1   40.07    4.47
  -9  -5  -1   42.62    3.99
  -9  -5   0    7.55    2.13
  -9   5   0    7.50    2.34
  -9  -5   0    6.25    1.98
  -9   5  -1   32.17    4.00
  -9  -5   1   37.77    4.24
  -9  -5   1   34.60    3.54
  -9  -5   2  101.79    7.22
  -9   5  -2  111.71    7.56
  -9  -5   3   19.54    3.35
  -9  -5   3   18.35    2.91
  -9  -5   4   67.98    5.78
  -9  -5   4   58.94    4.65
  -9  -5   4   54.47    5.13
  -9  -5   5   74.10    6.25
  -9  -5   5   91.92    5.68
  -9  -5   5   81.69    6.45
  -9  -5   6   57.45    5.55
  -9  -5   6   58.68    4.53
  -9  -5   6   64.63    5.80
  -9  -5   7  183.92   10.46
  -9  -5   7  179.47    8.64
  -9  -5   7  167.60   10.20
  -9  -5   8   94.12    7.23
  -9  -5   8   77.38    6.68
  -9  -5   8   83.90    5.48
  -9  -5   9  127.65    8.51
  -9  -5   9  108.97    8.17
  -9  -5   9  108.63    6.39
  -9  -5  10   57.73    5.90
  -9  -5  10   62.73    4.60
  -9  -5  10   56.84    5.96
  -9  -5  11   21.26    3.71
  -9  -5  11   14.55    2.36
  -9  -5  11   20.62    3.91
  -9  -5  12    0.54    2.16
  -9  -5  12    2.97    1.39
  -9  -5  12    4.46    2.66
  -9  -5  13  115.65    8.95
  -9  -5  13  126.90    9.25
  -9  -5  13  134.64    6.96
  -9  -5  14  179.63   11.44
   9   5  14  172.64   10.52
   9   5  14  198.03   11.39
  -9  -5  14  198.33   11.99
  -9  -5  14  185.78    8.59
  -9  -5  15   90.05    7.84
   9   5  15   87.26    7.20
   9   5  15  105.22    7.95
  -9  -5  15   87.09    7.72
  -9  -5  16   94.47    8.06
   9   5  16   90.60    7.27
   9   5  16   93.93    7.47
  -9  -5  16   99.81    8.34
  -9  -5  17    6.55    2.97
   9   5  17   10.36    2.98
   9   5  17   11.53    3.43
  -9  -5  17    6.44    2.97
  -9  -5  18   50.42    6.09
   9   5  18   58.83    5.63
   9   5  18   55.27    5.75
  -9  -5  18   58.56    6.32
  -9  -5  19   19.89    4.17
   9   5  19   18.07    3.44
   9   5  19   13.98    3.32
  -9  -5  19   17.04    3.57
  -9  -5  20    6.90    2.92
   9   5  20    9.36    2.82
   9   5  20   13.10    2.93
  -9  -5  20    9.93    3.19
  -9  -5  21   18.32    3.86
   9   5  21   21.58    3.62
   9   5  21   17.16    3.12
  -9  -5  21   21.69    3.99
  -9  -5  22   40.13    5.17
   9   5  22   36.65    4.48
  -9  -5  22   51.05    5.44
   9   5  23   70.51    5.84
  -9  -5  23   64.71    6.34
   9   5  24   47.60    4.64
   9  -6  23    6.94    2.51
  -9   6  21   95.74    7.73
  -9   6  20   23.33    4.15
  -9   6  19   24.71    4.27
  -9   6  18   27.80    4.50
  -9   6  17  250.85   13.75
  -9   6  16  157.42   10.49
  -9   6  15   60.62    6.31
  -9   6  14   21.00    4.10
  -9   6  13   44.37    5.33
  -9   6  12   93.84    7.50
  -9  -6 -12   76.85    5.11
  -9   6  11   44.01    5.07
  -9  -6 -11   47.86    3.91
  -9   6  10   74.77    6.63
  -9  -6 -10   71.47    4.89
  -9   6   9  106.07    7.85
  -9  -6  -9  105.71    6.18
  -9   6   8   92.83    7.18
  -9  -6  -8   88.37    5.68
  -9   6   7  278.51   13.71
  -9  -6  -7  294.41   12.10
  -9   6   6   87.48    6.70
  -9  -6  -6   82.90    5.50
  -9   6   5   47.97    4.95
  -9  -6  -5   50.25    4.20
  -9  -6  -4  198.79   10.77
  -9   6   4  190.86   10.56
  -9  -6  -4  215.38    9.76
  -9  -6  -3   84.28    6.47
  -9   6   3   82.84    6.30
  -9  -6  -3   77.77    5.38
  -9   6   2    9.89    2.65
  -9  -6  -2    7.47    2.30
  -9  -6  -2   12.08    2.35
  -9  -6  -1   10.74    2.60
  -9   6   1   14.72    3.00
  -9  -6  -1   13.26    2.41
  -9  -6   0    3.71    1.88
  -9   6   0    3.27    1.91
  -9  -6   0    3.54    1.86
  -9   6  -1   11.08    2.66
  -9  -6   1    8.62    2.41
  -9  -6   1    7.94    2.16
  -9  -6   2    9.92    2.49
  -9   6  -2    6.16    2.01
  -9  -6   3   88.00    6.65
  -9   6  -3   93.81    6.69
  -9  -6   3   90.18    6.42
  -9  -6   4  178.34   10.15
  -9  -6   4  195.00    9.23
  -9  -6   4  194.53   10.34
  -9  -6   5   42.79    4.69
  -9  -6   5   40.98    3.86
  -9  -6   5   47.84    4.85
  -9  -6   6   71.08    6.14
  -9  -6   6   86.35    5.61
  -9  -6   6   91.07    6.98
  -9  -6   7  290.32   13.75
  -9  -6   7  274.95   11.76
  -9  -6   7  266.38   13.64
  -9  -6   8   90.29    7.12
  -9  -6   8  102.92    6.11
  -9  -6   8   95.63    7.53
  -9  -6   9  113.90    8.14
  -9  -6   9  115.42    6.67
  -9  -6   9  131.09    8.99
  -9  -6  10   58.72    5.84
  -9  -6  10   73.36    6.94
  -9  -6  10   64.51    4.70
  -9  -6  11   48.44    5.24
  -9  -6  11   47.09    5.52
  -9  -6  11   44.09    3.89
  -9  -6  12   73.00    6.75
  -9  -6  12   87.52    5.47
  -9  -6  12   85.64    7.58
  -9  -6  13   44.20    5.32
  -9  -6  13   53.67    6.10
  -9  -6  13   42.45    3.74
  -9  -6  14   12.12    3.38
   9   6  14   19.47    3.64
  -9  -6  14   15.63    2.32
   9   6  14   17.38    3.62
  -9  -6  14   24.54    4.28
  -9  -6  15   55.97    6.09
   9   6  15   52.77    5.55
   9   6  15   55.57    5.94
  -9  -6  15   55.90    6.36
  -9  -6  16  145.77   10.07
   9   6  16  153.87    9.73
   9   6  16  167.53   10.20
  -9  -6  16  144.75   10.32
  -9  -6  17  239.26   13.84
   9   6  17  264.91   13.51
  -9  -6  17  280.33   14.85
  -9  -6  18   24.46    4.28
   9   6  18   22.44    3.84
   9   6  18   27.82    4.27
  -9  -6  18   19.49    4.19
  -9  -6  19   26.80    4.32
   9   6  19   24.85    3.81
   9   6  19   21.79    3.87
  -9  -6  19   30.17    4.67
  -9  -6  20   25.95    4.22
   9   6  20   28.27    4.08
   9   6  20   25.96    3.84
  -9  -6  20   22.06    4.12
  -9  -6  21   81.74    7.05
   9   6  21   76.61    6.14
   9   6  21   74.80    6.37
  -9  -6  21   88.68    7.34
  -9  -6  22   32.90    4.40
   9   6  22   24.15    3.69
  -9  -6  22   26.49    4.10
   9   6  23    7.21    2.19
   9  -7  21   98.71    7.66
  -9   7  18  100.94    7.85
  -9   7  17   41.17    5.14
  -9   7  16   46.92    5.46
  -9   7  15  104.53    8.15
  -9   7  14  149.93    9.84
  -9   7  13   92.16    7.53
  -9   7  12    3.54    2.10
  -9  -7 -12    8.55    2.01
  -9   7  11   70.53    6.55
  -9  -7 -11   79.30    5.12
  -9   7  10  135.03    9.03
  -9  -7 -10  148.46    7.52
  -9   7   9   43.77    4.94
  -9  -7  -9   52.64    4.21
  -9   7   8   43.86    4.88
  -9  -7  -8   41.31    3.80
  -9   7   7   66.03    5.81
  -9  -7  -7   68.63    4.95
  -9   7   6  108.67    7.52
  -9  -7  -6  113.24    6.65
  -9   7   5  104.34    7.39
  -9  -7  -5  110.02    7.46
  -9  -7  -5  122.45    6.89
  -9  -7  -4   76.20    6.13
  -9   7   4   80.59    6.26
  -9  -7  -4   85.41    5.62
  -9  -7  -3   17.36    3.03
  -9   7   3   12.93    2.79
  -9  -7  -3   19.24    2.60
  -9   7   2   31.02    3.88
  -9  -7  -2   28.08    3.80
  -9  -7  -2   30.73    3.39
  -9   7   1   15.80    2.83
  -9  -7  -1    8.77    2.51
  -9  -7  -1   17.57    2.76
  -9   7   0    1.96    1.75
  -9  -7   0    0.79    1.64
  -9  -7   1   13.54    2.86
  -9   7  -1   14.95    2.72
  -9  -7   1   19.11    2.79
  -9   7  -2   33.23    4.02
  -9  -7   2   29.63    3.82
  -9  -7   3   11.38    2.61
  -9   7  -3    8.33    2.46
  -9   7  -4   80.22    6.15
  -9  -7   4   71.49    6.01
  -9  -7   4   74.32    6.12
  -9  -7   4   82.07    5.51
  -9   7  -5  130.18    8.14
  -9  -7   5  110.25    7.73
  -9  -7   5  119.93    8.24
  -9  -7   6  116.78    6.64
  -9  -7   6  110.66    7.84
  -9  -7   7   62.27    5.74
  -9  -7   7   79.91    5.30
  -9  -7   7   66.38    6.24
  -9  -7   8   31.29    4.22
  -9  -7   8   36.28    3.55
  -9  -7   8   32.49    4.59
  -9  -7   9   46.23    5.00
  -9  -7   9   49.49    4.18
  -9  -7   9   49.66    5.64
  -9  -7  10  131.09    8.97
  -9  -7  10  152.56    7.80
  -9  -7  10  156.56   10.21
  -9  -7  11   64.33    6.21
  -9  -7  11   58.01    6.25
  -9  -7  11   69.10    4.82
  -9  -7  12    6.60    2.57
  -9  -7  12    4.36    1.68
  -9  -7  12    4.02    2.37
  -9  -7  13  106.55    8.12
  -9  -7  13  106.38    6.05
  -9  -7  13   97.27    8.25
  -9  -7  14  156.54   10.13
   9   7  14  147.06    9.70
   9   7  14  151.40    9.92
  -9  -7  14  172.62   10.98
  -9  -7  14  157.40    7.61
   9   7  15  126.96    8.60
   9   7  15  136.26    9.09
  -9  -7  15  120.54    9.23
  -9  -7  16   53.06    5.81
   9   7  16   62.06    5.88
   9   7  16   53.12    5.59
  -9  -7  16   56.14    6.17
  -9  -7  17   38.96    4.97
   9   7  17   37.85    4.78
   9   7  17   39.71    4.90
  -9  -7  17   42.62    5.46
  -9  -7  18   84.71    7.34
   9   7  18   96.90    7.25
   9   7  18  106.12    7.77
  -9  -7  18   87.25    7.68
  -9  -7  19   64.60    6.27
   9   7  19   73.38    6.15
   9   7  19   61.82    5.90
  -9  -7  19   78.76    7.06
  -9  -7  20   48.83    5.57
  -9  -7  21   92.62    7.36
  -9  -7  22   52.42    5.34
  -9  -7  23   86.46    6.65
   9  -8  22   11.58    2.88
   9  -8  21  117.99    8.16
  -9   8  13    6.60    2.48
  -9   8  12   80.23    6.71
  -9  -8 -12   80.77    5.16
  -9   8  11   72.57    6.43
  -9  -8 -11   85.30    5.35
  -9   8  10   13.51    2.94
  -9  -8 -10   15.25    2.34
  -9   8   9  102.02    7.45
  -9  -8  -9  118.34    6.59
  -9   8   8   83.09    6.65
  -9  -8  -8   97.47    5.96
  -9  -8  -7  230.71   11.48
  -9   8   7  223.52   11.56
  -9  -8  -7  241.14   10.62
  -9  -8  -6  118.87    7.57
  -9   8   6  101.41    7.20
  -9  -8  -6  116.50    6.79
  -9   8   5   33.32    4.04
  -9  -8  -5   26.54    3.60
  -9  -8  -5   36.52    3.64
  -9   8   4   80.80    6.21
  -9  -8  -4   79.46    6.11
  -9  -8  -4   98.59    6.12
  -9   8   3  165.45    9.13
  -9  -8  -3  150.52    8.71
  -9  -8  -3  163.67    8.47
  -9  -8  -2   34.15    3.93
  -9   8   2   26.31    3.58
  -9  -8  -1    3.75    2.00
  -9   8   1    3.71    1.85
  -9  -8  -1    6.76    1.99
  -9  -8   0    9.01    2.47
  -9   8   0   13.24    2.70
  -9  -8   0   11.29    2.33
  -9   8  -1    5.13    2.02
  -9  -8   1    4.92    1.95
  -9  -8   1    5.16    2.02
  -9   8  -2   27.51    3.58
  -9  -8   2   39.82    4.28
  -9  -8   3  151.80    8.79
  -9   8  -3  152.39    8.58
  -9  -8   4   71.98    5.95
  -9   8  -4   92.70    6.34
  -9  -8   4   87.91    5.92
  -9   8  -5   23.52    3.37
  -9  -8   5   26.20    3.63
  -9  -8   5   29.85    3.32
  -9  -8   5   26.99    4.03
  -9   8  -6  101.13    6.93
  -9  -8   6  100.88    7.21
  -9  -8   6  105.08    7.83
  -9  -8   6  121.54    6.85
  -9   8  -7  239.94   11.59
  -9  -8   7  259.01   11.04
  -9  -8   7  234.39   12.65
  -9  -8   8   82.91    6.66
  -9  -8   8  102.56    6.17
  -9  -8   8   89.55    7.41
  -9  -8   9  100.41    7.41
  -9  -8   9  102.49    6.29
  -9  -8   9  119.52    8.66
  -9  -8  10   16.44    3.13
  -9  -8  10   10.48    2.19
  -9  -8  10   12.78    3.48
  -9  -8  11   80.89    5.41
  -9  -8  11   93.98    7.87
  -9  -8  12   81.11    7.38
  -9  -8  12   83.36    5.38
  -9  -8  13   11.90    2.16
  -9  -8  13    8.12    2.84
   9   8  14   16.76    3.79
  -9  -8  14   26.89    2.83
  -9  -8  14   26.18    4.62
  -9  -8  15   84.01    7.65
  -9  -8  16   92.15    7.94
  -9  -8  17  245.75   13.51
  -9  -8  18   19.54    3.81
  -9  -8  19   40.00    5.23
  -9  -8  20   46.27    5.19
   9   8  21  119.80    7.54
   9   8  21  132.10    8.08
  -9  -8  21  146.18    9.11
   9   8  22   10.97    2.55
  -9  -8  22    8.46    2.52
  -9  -9 -12   55.11    4.17
  -9  -9 -11    1.86    1.24
  -9  -9 -10    1.11    1.35
  -9  -9  -9   15.77    2.52
  -9  -9  -8   11.51    2.30
  -9  -9  -7   53.97    4.50
  -9  -9  -6  159.74    8.35
  -9  -9  -5  202.66    9.83
  -9  -9  -4   96.56    6.30
  -9  -9  -3   18.34    2.83
  -9  -9  -2    7.60    2.12
  -9  -9  -1   21.63    3.06
  -9  -9   0   13.34    2.66
  -9  -9   1   20.01    3.13
  -9  -9   4   99.35    6.42
  -9  -9   5  177.24   10.46
  -9  -9   5  204.90    9.78
  -9  -9   6  151.61    9.66
  -9  -9   6  166.21    8.59
  -9  -9   7   69.33    6.43
  -9  -9   7   59.42    4.84
  -9  -9   8    8.01    2.17
  -9  -9   8    7.86    2.85
  -9  -9   9   19.26    2.77
  -9  -9   9   11.86    3.14
  -9  -9  10    0.88    1.51
  -9  -9  10    0.55    2.08
  -9  -9  11    2.82    1.56
  -9  -9  11   -0.56    2.04
  -9  -9  12   58.33    6.19
  -9  -9  12   54.70    4.32
  -9  -9  13  230.50   13.18
  -9  -9  13  234.26   10.03
  -9  -9  14  182.17   11.43
  -9  -9  15   49.24    5.75
   9   9  16   28.38    4.21
   9   9  16   28.99    4.03
  -9  -9  16   20.82    3.95
   9   9  17   69.74    5.96
   9   9  17   81.85    6.60
  -9  -9  17   68.67    6.60
   9   9  18   67.52    5.75
   9   9  18   70.23    6.06
  -9  -9  18   78.17    6.78
   9   9  19  100.06    6.96
   9   9  19  110.02    7.35
  -9  -9  19  104.88    7.82
   9   9  20   33.28    3.90
   9   9  20   33.78    4.08
  -9  -9  20   44.99    4.89
  -9 -10 -12    7.79    1.67
  -9 -10 -11   13.98    2.30
  -9 -10 -10   31.33    3.32
  -9 -10  -9  243.63   10.68
  -9 -10  -8   79.15    5.38
  -9 -10  -7   32.87    3.55
  -9 -10  -6   17.85    2.72
  -9 -10  -5   56.18    4.70
  -9 -10  -4  182.74    9.31
  -9 -10  -3  176.94    9.19
  -9 -10  -2   21.17    3.09
  -9 -10  -1   72.78    5.41
  -9 -10   0   59.07    4.92
  -9 -10   1   63.47    5.06
  -9 -10   4  159.13    8.53
  -9 -10   5   63.41    5.03
  -9 -10   6   14.86    2.69
  -9 -10   6   19.50    3.53
  -9 -10   7   31.96    3.49
  -9 -10   7   26.73    4.14
  -9 -10   8   70.07    6.64
  -9 -10   8   76.82    5.42
  -9 -10   9  226.67   10.51
  -9 -10   9  255.51   13.31
  -9 -10  10   34.64    3.52
  -9 -10  10   33.65    4.78
  -9 -10  11   15.47    2.43
  -9 -10  11   15.68    3.56
  -9 -10  12   11.99    2.15
  -9 -10  12    8.68    3.00
  -9 -10  13   58.38    6.22
  -9 -10  13   59.01    4.26
   9  10  14   69.71    6.18
   9  10  14   63.46    5.97
  -9 -10  14   60.99    6.23
   9  10  15   34.17    4.26
   9  10  15   25.69    3.81
  -9 -10  15   30.46    4.56
   9  10  16   77.40    6.17
   9  10  16   68.23    5.98
  -9 -10  16   65.92    6.38
   9  10  17  110.22    7.39
   9  10  17  117.87    7.76
  -9 -10  17  116.95    8.30
   9  10  18  118.40    7.60
   9  10  18  129.41    8.00
  -9 -10  18  138.56    8.94
   9  10  19    9.36    2.42
   9  10  19    9.08    2.24
  -9 -10  19    9.67    2.62
  -9 -11 -11   12.33    2.12
  -9 -11 -10    6.56    1.80
  -9 -11  -9   41.41    3.76
  -9 -11  -8   89.90    5.75
  -9 -11  -7   70.12    5.12
  -9 -11  -6  219.56   10.26
  -9 -11  -5  404.87   15.92
  -9 -11  -4   77.47    5.67
  -9 -11  -3   85.73    5.93
  -9 -11  -2   30.82    3.63
  -9 -11  -1    8.43    2.42
  -9 -11   0   24.00    3.28
  -9 -11   1    7.09    2.14
  -9 -11   4   87.38    5.98
  -9 -11   5  367.45   14.90
  -9 -11   6  224.27   10.48
  -9 -11   7   55.51    5.70
  -9 -11   7   71.15    5.18
  -9 -11   8   80.89    6.74
  -9 -11   8   71.65    5.20
  -9 -11   9   53.93    4.37
  -9 -11   9   46.03    5.33
  -9 -11  10    6.39    1.78
  -9 -11  10    4.01    2.13
  -9 -11  11   19.75    2.63
  -9 -11  11   13.64    3.22
  -9 -11  12   51.35    3.95
  -9 -11  12   55.89    5.76
   9  11  13  135.64    8.45
   9  11  13  120.21    8.25
  -9 -11  13  119.61    8.61
   9  11  14   42.70    4.44
   9  11  14   38.12    4.38
  -9 -11  14   39.67    4.92
   9  11  15   25.38    3.76
   9  11  15   28.60    3.79
  -9 -11  15   34.82    4.53
   9  11  16   21.49    3.33
   9  11  16   23.65    3.56
  -9 -11  16   23.42    3.71
   9  11  17    5.46    2.13
   9  11  17    4.72    2.04
  -9 -11  17    4.82    2.26
  -9 -12 -11   66.04    4.41
  -9 -12 -10  169.91    8.00
  -9 -12  -9  142.44    7.29
  -9 -12  -8   58.51    4.47
  -9 -12  -7   71.32    5.08
  -9 -12  -6   46.30    4.11
  -9 -12  -5  107.55    6.55
  -9 -12  -4   47.67    4.32
  -9 -12  -3   44.68    4.21
  -9 -12  -2   -0.33    1.58
  -9 -12  -1    6.22    2.05
  -9 -12   0    0.98    1.69
  -9 -12   1    7.53    2.05
  -9 -12   4   53.95    4.65
  -9 -12   5   99.01    6.32
  -9 -12   6   41.04    4.00
  -9 -12   7   70.50    5.10
  -9 -12   8   54.61    4.42
  -9 -12   9  152.33    7.58
  -9 -12   9  131.25    8.79
  -9 -12  10  168.68    8.01
  -9 -12  10  149.76    9.45
  -9 -12  11   72.89    4.83
  -9 -12  11   68.87    6.15
   9  12  12    6.72    2.41
   9  12  12    6.23    2.29
  -9 -12  12    6.29    2.52
   9  12  13   15.50    3.01
  -9 -12  13   14.14    3.02
   9  12  14   12.49    2.63
   9  12  14   12.16    2.53
  -9 -12  14   10.77    2.80
   9  12  15   33.58    3.72
   9  12  15   29.24    3.72
  -9 -12  15   26.61    3.76
  -9 -13 -10    4.84    1.44
  -9 -13  -9    7.38    1.72
  -9 -13  -8   24.56    2.87
  -9 -13  -7   29.89    3.16
  -9 -13  -6   55.22    4.37
  -9 -13  -5  173.41    8.63
  -9 -13  -4  132.45    7.34
  -9 -13  -3  109.52    6.61
  -9 -13  -2   21.76    3.04
  -9 -13  -1   22.82    3.04
  -9 -13   0    8.33    2.14
  -9 -13   1   26.43    3.21
  -9 -13   4  138.81    7.55
  -9 -13   5  182.27    8.88
  -9 -13   6   50.51    4.18
  -9 -13   7   28.15    3.14
  -9 -13   8   20.48    2.70
  -9 -13   9    5.66    1.70
  -9 -13  10    5.55    1.57
   9  13  11   26.86    3.45
   9  13  11   22.56    3.39
  -9 -13  11   16.69    2.96
   9  13  12   28.94    3.55
   9  13  12   27.57    3.62
  -9 -14  -8   16.08    2.20
  -9 -14  -7   15.91    2.33
  -9 -14  -6   20.48    2.56
  -9 -14  -5   37.71    3.56
  -9 -14  -4    4.29    1.61
  -9 -14  -3   25.24    3.02
  -9 -14  -2   97.13    5.94
  -9 -14  -1   27.45    3.17
  -9 -14   0    7.28    2.01
  -9 -14   1   29.25    3.17
  -9 -14   4    0.80    1.29
  -9 -14   5   31.96    3.22
  -9 -14   6   24.40    2.87
  -9 -14   7   18.39    2.48
  -9 -14   8   11.81    1.97
  -9 -15  -3   55.04    4.09
  -9 -15  -2    6.76    1.72
  -9 -15  -1    9.49    1.87
  -9 -15   0   -0.24    1.25
  -9 -15   1   11.13    1.98
  -9 -15   3   60.69    4.27
  -9 -15   4   56.40    4.08
 -10   0   0 1219.13   38.79
 -10   0   0 1177.43   40.82
 -10   0   1  305.85   12.91
 -10   0  -1  305.85   12.92
 -10   0  -1  269.78   14.13
 -10   0   1  285.95   14.38
 -10   0  -2   15.13    2.81
 -10   0   2    8.76    2.62
 -10   0  -2   10.97    2.97
 -10   0  -3   32.89    3.68
 -10   0   3   37.62    4.66
 -10   0   4  188.65    9.49
 -10   0  -4  196.15    9.65
 -10   0   4  183.60   10.96
 -10   0   5   28.24    3.33
 -10   0  -5   27.30    3.35
 -10   0   5   22.46    4.07
 -10   0   6  125.16    7.38
 -10   0  -6  126.86    7.47
 -10   0   6  131.36    8.98
 -10   0   7  604.24   21.94
 -10   0  -7  619.73   21.97
 -10   0   7  602.20   24.35
  10   0   8  901.25   30.36
 -10   0   8  911.78   29.80
  10   0   8  891.75   30.54
 -10   0   8  804.71   31.97
  10   0   9  219.48   10.88
  10   0   9  212.14   10.92
 -10   0   9  210.18   12.37
  10   0  10  214.58   10.72
  10   0  10  204.17   10.76
 -10   0  10  196.23   12.16
  10   0  11  116.69    7.60
  10   0  11  117.52    7.85
 -10   0  11  125.60    9.25
  10   0  12   66.61    5.68
  10   0  12   77.38    6.16
 -10   0  12   59.75    6.48
  10   0  13   54.45    5.16
  10   0  13   48.89    5.09
 -10   0  13   51.48    6.09
  10   0  14    1.24    1.89
  10   0  14    0.44    1.92
 -10   0  14    0.61    2.46
  10   0  15  120.49    7.79
  10   0  15  108.11    7.70
 -10   0  15  106.70    8.89
  10   0  16  267.24   12.94
  10   0  16  267.37   13.17
 -10   0  16  277.00   15.16
  10   0  17  192.39   10.61
 -10   0  17  181.63   12.00
  10   0  18  128.84    8.29
  10   0  18  125.60    8.50
 -10   0  18  106.51    9.04
  10   0  19    2.54    1.98
  10   0  19    6.38    2.51
 -10   0  19    1.25    2.44
  10   0  20   40.61    4.56
 -10   0  20   42.56    5.73
  10   0  21    7.83    2.54
 -10   0  21    7.04    2.92
  10   0  22    0.74    1.61
 -10   0  22    3.37    2.38
  10   0  23   25.25    3.39
 -10   0  23   22.73    4.11
 -10   0  24  180.15   10.67
 -10   1  24    7.22    2.58
 -10   1  23   12.00    3.23
  10  -1  22    1.75    1.56
  10  -1  21    0.90    1.64
  10  -1  21    2.99    1.78
  10  -1  20    5.60    2.23
  10  -1  20    4.70    1.95
  10  -1  19    5.25    2.38
  10  -1  19    7.70    2.41
  10  -1  18   42.24    4.62
  10  -1  17   10.90    2.87
  10  -1  16   80.59    6.37
  10  -1  15   78.24    6.39
  10  -1  15   90.55    6.55
  10  -1  14   18.72    3.28
  10  -1  14   19.01    3.14
  10  -1  13    7.76    2.50
  10  -1  13    9.54    2.50
  10  -1  12   14.22    2.87
  10  -1  12    9.98    2.54
  10  -1  11   37.63    4.08
  10  -1  11   32.66    4.04
  10  -1  10   78.42    5.83
 -10  -1 -10   78.29    5.40
  10  -1  10   76.31    5.89
  10  -1   9  131.21    7.72
 -10  -1  -9  143.10    7.66
  10  -1   9  132.26    7.95
  10  -1   8   55.06    4.79
 -10  -1  -8   60.69    4.77
  10  -1   8   57.13    4.91
 -10  -1  -7   10.21    2.13
 -10  -1  -6   21.49    3.04
 -10  -1  -5   31.55    3.63
 -10  -1  -4   38.33    3.78
 -10   1   4   32.25    3.70
 -10  -1  -3  228.04   10.73
 -10  -1  -2   87.05    5.90
 -10  -1  -2   78.77    6.77
 -10  -1  -1   35.07    3.80
 -10   1   1   39.71    4.01
 -10  -1  -1   44.32    5.05
 -10  -1   0    2.25    1.47
 -10   1   0   -0.34    1.43
 -10  -1   0    1.95    1.90
 -10  -1   1   44.70    4.25
 -10   1  -1   38.79    3.99
 -10  -1   1   43.90    5.03
 -10   1  -2   74.62    5.56
 -10  -1   2   73.66    6.42
 -10   1  -3  227.37   10.79
 -10  -1   3  222.80   12.20
 -10  -1   4   30.23    3.43
 -10  -1   4   37.12    4.76
 -10  -1   5   41.53    4.04
 -10  -1   5   38.60    4.94
 -10  -1   6   14.50    2.51
 -10  -1   6   18.32    3.63
 -10  -1   7    8.05    1.97
 -10  -1   7    8.33    3.01
 -10  -1   8   60.65    4.84
 -10  -1   8   65.99    6.43
  10   1   9  135.50    8.38
 -10  -1   9  138.10    7.66
  10   1   9  140.94    8.64
 -10  -1   9  125.30    9.34
  10   1  10  105.25    7.25
 -10  -1  10   96.68    6.27
  10   1  10   91.92    7.06
 -10  -1  10  109.02    8.50
  10   1  11   38.32    4.44
 -10  -1  11   31.39    3.54
  10   1  11   40.86    4.61
 -10  -1  11   41.21    5.24
  10   1  12   11.28    2.97
  10   1  12   15.33    3.09
 -10  -1  12   11.15    3.20
  10   1  13    4.29    2.22
  10   1  13    7.31    2.64
 -10  -1  13   11.44    3.11
  10   1  14   25.06    3.84
  10   1  14   21.16    3.62
 -10  -1  14   26.52    4.74
  10   1  15   77.00    6.30
  10   1  15   77.51    6.49
 -10  -1  15   73.37    7.35
  10   1  16   79.98    6.52
  10   1  16   85.64    6.81
 -10  -1  16   88.50    8.06
  10   1  17    5.48    2.48
  10   1  17    4.26    2.16
 -10  -1  17    6.34    3.21
  10   1  18   51.19    5.23
  10   1  18   39.31    4.61
 -10  -1  18   43.67    5.91
  10   1  19   13.54    2.97
 -10  -1  19   14.36    3.46
  10   1  20    7.15    2.47
 -10  -1  20   10.91    2.96
  10   1  21    0.80    1.75
 -10  -1  21    1.18    2.43
  10   1  22    1.14    1.56
 -10  -1  22   -0.56    2.79
  10   1  23   18.64    2.98
 -10  -1  23   13.15    3.27
 -10  -1  24    6.31    2.42
 -10   2  23    7.11    2.80
  10  -2  22    7.04    2.39
 -10   2  22    5.99    2.81
  10  -2  21   18.11    3.32
 -10   2  21   14.82    3.63
  10  -2  20   28.36    4.19
 -10   2  20   34.30    5.09
 -10   2  19   10.98    3.58
 -10   2  18   83.91    7.77
 -10   2  17  287.21   15.61
 -10   2  16  257.31   14.55
 -10   2  15  126.26    9.65
 -10   2  14  156.52   10.77
 -10   2  13   91.38    7.97
 -10   2  12   39.95    5.22
 -10   2  11   11.33    3.32
 -10  -2 -11    9.76    2.15
 -10   2  10   66.39    6.66
 -10  -2 -10   81.33    5.44
 -10   2   9  237.50   12.96
 -10  -2  -9  223.66   10.41
 -10   2   8  307.68   15.51
 -10  -2  -8  328.59   13.40
 -10   2   7  182.57   11.11
 -10  -2  -7  199.53    9.58
 -10   2   6   71.18    6.56
 -10  -2  -6   74.25    5.37
 -10   2   5   23.30    3.84
 -10  -2  -5   19.05    2.86
 -10   2   4   22.56    4.03
 -10  -2  -4   25.80    3.14
 -10   2   3   88.71    7.19
 -10  -2  -3   81.61    5.79
 -10  -2  -2  153.75    9.73
 -10   2   2  142.08    9.46
 -10  -2  -2  160.98    8.39
 -10  -2  -1  484.14   20.49
 -10   2   1  494.58   20.45
 -10  -2  -1  487.43   18.31
 -10  -2   0 1186.91   40.31
 -10   2   0 1166.05   40.03
 -10  -2   0 1168.06   37.69
 -10   2  -1  435.41   19.01
 -10  -2   1  447.07   19.15
 -10  -2   1  443.69   17.05
 -10   2  -2  146.53    9.76
 -10  -2   2  180.62   10.46
 -10  -2   3   84.75    7.00
 -10  -2   4   22.32    4.15
 -10  -2   4   22.58    3.11
 -10  -2   5   27.08    4.18
 -10  -2   5   26.40    3.24
 -10  -2   6   81.66    5.66
 -10  -2   6   81.22    6.99
 -10  -2   7  212.46   10.08
 -10  -2   7  201.47   11.79
 -10  -2   8  321.32   13.44
 -10  -2   8  322.57   15.87
 -10  -2   9  228.80   10.67
 -10  -2   9  244.69   13.33
 -10  -2  10   77.83    5.50
 -10  -2  10   89.55    7.57
  10   2  11   15.38    3.15
 -10  -2  11   17.79    2.73
  10   2  11   15.70    3.40
 -10  -2  11   16.05    3.85
  10   2  12   38.13    4.61
  10   2  12   36.01    4.57
 -10  -2  12   39.53    3.80
 -10  -2  12   42.73    5.42
  10   2  13  102.94    7.36
  10   2  13   92.00    7.24
 -10  -2  13   88.76    8.05
  10   2  14  157.33    9.41
  10   2  14  142.28    9.30
 -10  -2  14  165.51   11.02
  10   2  15  139.23    8.88
  10   2  15  132.17    8.88
 -10  -2  15  143.11   10.38
  10   2  16  259.56   13.03
  10   2  16  278.29   13.55
 -10  -2  16  256.77   14.70
  10   2  17  280.34   13.51
  10   2  17  275.07   13.76
 -10  -2  17  297.69   15.77
  10   2  18   74.55    6.26
  10   2  18   69.91    6.20
 -10  -2  18   65.31    7.05
  10   2  19   12.00    2.92
  10   2  19   11.99    2.82
 -10  -2  19    9.86    3.52
  10   2  20   36.29    4.42
 -10  -2  20   37.07    5.37
  10   2  21   16.64    3.17
 -10  -2  21   16.72    3.84
  10   2  22    9.95    2.51
 -10  -2  22    3.29    2.40
  10   2  23    9.59    2.47
 -10  -2  23   14.91    3.48
 -10   3  23   14.50    3.29
  10  -3  22   21.89    3.61
 -10   3  22   22.43    3.98
  10  -3  21   40.90    4.84
 -10   3  21   39.26    5.17
  10  -3  20    0.49    2.06
 -10   3  20   -1.73    2.31
 -10   3  19    0.59    2.94
 -10   3  18   48.53    5.88
 -10   3  17   -0.61    2.15
 -10   3  16   14.08    3.34
 -10   3  15   39.51    5.50
 -10   3  14   29.52    4.62
 -10   3  13   30.18    4.65
 -10   3  12   11.54    3.09
 -10  -3 -12   10.49    2.14
 -10   3  11   37.74    4.98
 -10  -3 -11   35.64    3.57
 -10   3  10   68.21    6.54
 -10  -3 -10   58.72    4.67
 -10   3   9   30.65    4.54
 -10  -3  -9   27.06    3.24
 -10   3   8   89.18    7.33
 -10  -3  -8   82.89    5.70
 -10   3   7   69.39    6.47
 -10  -3  -7   56.36    4.63
 -10   3   6   17.63    3.47
 -10  -3  -6   18.23    2.87
 -10   3   5   20.79    3.79
 -10  -3  -5   24.63    3.19
 -10   3   4   21.98    3.84
 -10  -3  -4   16.74    2.75
 -10   3   3  275.31   13.89
 -10  -3  -3  267.96   13.92
 -10  -3  -3  286.00   12.28
 -10   3   2  226.13   12.26
 -10  -3  -2  222.40   12.36
 -10  -3  -2  238.33   10.89
 -10  -3  -1   34.04    4.64
 -10   3   1   36.97    4.54
 -10  -3  -1   32.64    3.58
 -10  -3   0   35.90    4.70
 -10   3   0   35.51    4.63
 -10  -3   0   41.82    4.03
 -10   3  -1   45.70    4.97
 -10  -3   1   41.26    4.93
 -10  -3   1   30.38    3.58
 -10  -3   2  241.32   12.65
 -10   3  -2  224.27   12.37
 -10  -3   3  276.09   14.11
 -10   3  -3  300.21   14.57
 -10  -3   4   14.34    3.29
 -10  -3   4   17.05    2.95
 -10  -3   5   19.04    3.63
 -10  -3   5   20.13    2.86
 -10  -3   6   21.93    4.00
 -10  -3   6   15.44    2.58
 -10  -3   7   59.33    6.06
 -10  -3   7   46.59    4.29
 -10  -3   7   55.11    5.50
 -10  -3   8   82.32    7.15
 -10  -3   8   82.64    5.68
 -10  -3   8   79.83    6.82
 -10  -3   9   28.84    4.49
 -10  -3   9   33.60    3.63
 -10  -3   9   30.71    4.40
 -10  -3  10   68.47    6.49
 -10  -3  10   60.35    4.85
 -10  -3  10   65.00    6.32
 -10  -3  11   37.60    5.18
 -10  -3  11   34.77    3.60
 -10  -3  11   38.53    5.00
 -10  -3  12    8.17    2.97
  10   3  12   10.54    2.83
 -10  -3  12   10.35    2.21
  10   3  12   11.07    2.83
 -10  -3  12    7.76    2.87
 -10  -3  13   23.20    4.23
  10   3  13   23.24    3.80
  10   3  13   18.36    3.40
 -10  -3  13   23.40    2.92
 -10  -3  13   29.27    4.50
 -10  -3  14   38.18    5.30
  10   3  14   37.52    4.65
  10   3  14   35.88    4.78
 -10  -3  14   31.80    4.70
 -10  -3  15   43.60    5.68
  10   3  15   39.07    4.76
  10   3  15   48.35    5.33
 -10  -3  15   52.98    5.93
  10   3  16   13.48    3.15
  10   3  16   14.83    3.25
 -10  -3  16   14.22    3.53
  10   3  17   -1.32    1.97
  10   3  17    0.94    1.78
 -10  -3  17    1.24    2.33
  10   3  18   51.16    5.21
  10   3  18   49.73    5.24
 -10  -3  18   47.81    6.10
  10   3  19    7.59    2.51
  10   3  19    6.25    2.51
 -10  -3  19    6.59    2.62
  10   3  20    0.43    1.82
 -10  -3  20    0.58    1.95
  10   3  21   51.97    5.09
 -10  -3  21   37.33    5.07
  10   3  22   24.76    3.46
 -10  -3  22   20.62    3.91
  10   3  23   11.30    2.49
 -10  -3  23    7.37    2.68
  10  -4  22   11.99    2.82
 -10   4  22    9.77    2.83
  10  -4  21    6.55    2.54
 -10   4  21    4.18    2.39
 -10   4  20   42.67    5.46
 -10   4  19   92.39    7.99
 -10   4  18   58.41    6.31
 -10   4  17   76.71    7.33
 -10   4  16   99.13    8.35
 -10   4  15  186.52   11.82
 -10   4  14  114.93    9.01
 -10   4  13  119.70    9.06
 -10   4  12   27.88    4.50
 -10  -4 -12   39.74    3.67
 -10   4  11  144.58    9.83
 -10  -4 -11  132.63    7.26
 -10   4  10  286.30   14.80
 -10  -4 -10  286.64   12.11
 -10   4   9  395.40   18.07
 -10  -4  -9  392.65   15.37
 -10   4   8  346.52   16.82
 -10  -4  -8  383.57   14.90
 -10   4   7  197.12   11.49
 -10  -4  -7  208.25    9.82
 -10   4   6  175.43   10.67
 -10  -4  -6  185.08    9.11
 -10   4   5   68.86    6.31
 -10  -4  -5   67.74    5.11
 -10   4   4   68.28    6.15
 -10  -4  -4   72.84    5.35
 -10   4   3   88.84    7.01
 -10  -4  -3   98.35    7.43
 -10  -4  -3   90.20    6.11
 -10   4   2   90.33    7.09
 -10  -4  -2   91.45    7.17
 -10  -4  -2   95.47    6.23
 -10   4   1  253.42   12.66
 -10  -4  -1  236.18   12.44
 -10  -4  -1  220.72   10.70
 -10  -4   0  377.40   17.17
 -10   4   0  373.83   17.00
 -10  -4   0  402.04   15.56
 -10  -4   1  209.78   11.72
 -10   4  -1  237.62   12.21
 -10  -4   1  218.06   10.46
 -10  -4   2  100.83    7.41
 -10   4  -2   85.48    6.93
 -10  -4   3   94.08    7.21
 -10   4  -3   87.26    7.03
 -10  -4   4   59.66    5.90
 -10  -4   4   69.54    5.17
 -10  -4   4   72.17    5.82
 -10  -4   5   86.92    7.09
 -10  -4   5   74.48    5.40
 -10  -4   6  195.83   11.13
 -10  -4   6  178.93    9.12
 -10  -4   6  184.15   10.47
 -10  -4   7  204.12   11.72
 -10  -4   7  199.21   11.23
 -10  -4   7  197.85    9.64
 -10  -4   8  369.65   17.32
 -10  -4   8  369.75   14.85
 -10  -4   8  378.61   17.15
 -10  -4   9  396.65   18.20
 -10  -4   9  408.40   18.10
 -10  -4   9  389.15   15.49
 -10  -4  10  264.22   14.19
 -10  -4  10  274.83   11.85
 -10  -4  10  268.94   14.04
 -10  -4  11  130.01    9.26
 -10  -4  11  119.52    6.89
 -10  -4  11  125.04    9.13
 -10  -4  12   22.36    4.36
 -10  -4  12   28.27    3.19
  10   4  12   30.56    4.24
  10   4  12   27.15    4.21
 -10  -4  12   30.62    4.57
 -10  -4  13  131.66    9.74
  10   4  13  140.01    9.18
 -10  -4  13  145.26    7.54
  10   4  13  145.28    9.47
 -10  -4  13  153.32   10.12
 -10  -4  14  125.81    9.36
  10   4  14  113.37    8.04
 -10  -4  14  113.95    6.41
  10   4  14  126.31    8.60
 -10  -4  14  109.63    8.59
 -10  -4  15  181.80   11.66
  10   4  15  180.78   10.47
  10   4  15  179.22   10.61
 -10  -4  15  176.23   11.27
 -10  -4  16  102.83    8.70
  10   4  16  130.19    8.50
  10   4  16  117.45    8.31
 -10  -4  16  120.89    8.99
 -10  -4  17   71.29    7.13
  10   4  17   76.30    6.34
  10   4  17   77.14    6.60
 -10  -4  17   84.67    7.33
  10   4  18   55.97    5.49
  10   4  18   64.88    6.01
 -10  -4  18   51.82    6.14
  10   4  19   85.48    6.69
  10   4  19  105.83    7.40
 -10  -4  19   87.49    7.68
  10   4  20   47.62    4.98
  10   4  20   49.09    4.86
 -10  -4  20   41.44    5.50
  10   4  21    3.21    2.03
 -10  -4  21    3.16    2.18
  10   4  22   16.84    3.03
 -10  -4  22   10.36    3.06
  10  -5  22    4.76    2.19
  10  -5  21   -1.83    1.72
 -10   5  21    0.48    1.98
 -10   5  20    0.51    2.38
 -10   5  19   14.94    3.51
 -10   5  18   13.77    3.62
 -10   5  17   16.42    3.60
 -10   5  16   64.57    6.64
 -10   5  15   13.25    3.61
 -10   5  14   53.96    6.02
 -10   5  13    2.84    2.21
 -10   5  12   10.62    2.95
 -10  -5 -12   10.76    2.10
 -10   5  11   68.42    6.82
 -10  -5 -11   85.69    5.47
 -10   5  10   61.55    6.10
 -10  -5 -10   53.57    4.44
 -10   5   9   27.76    4.20
 -10  -5  -9   33.27    3.50
 -10   5   8   61.15    5.96
 -10  -5  -8   62.95    4.87
 -10   5   7   12.58    3.06
 -10  -5  -7   21.68    2.96
 -10   5   6   24.70    3.93
 -10  -5  -6   22.97    3.09
 -10  -5  -5    2.94    1.97
 -10   5   5    3.41    2.12
 -10  -5  -5    3.82    1.81
 -10   5   4   65.12    5.93
 -10  -5  -4   54.11    5.58
 -10  -5  -4   56.20    4.68
 -10   5   3   11.34    2.87
 -10  -5  -3   17.67    3.25
 -10  -5  -3   17.49    2.80
 -10   5   2  188.34   10.84
 -10  -5  -2  196.75   11.10
 -10  -5  -2  200.78    9.76
 -10   5   1   69.87    6.01
 -10  -5  -1   59.52    5.73
 -10  -5  -1   55.70    4.78
 -10  -5   0    5.18    2.00
 -10   5   0    4.66    2.08
 -10  -5   0    0.33    1.49
 -10  -5   1   57.81    5.63
 -10   5  -1   65.32    5.88
 -10  -5   1   55.27    4.73
 -10  -5   2  182.26   10.59
 -10   5  -2  187.33   10.67
 -10  -5   3   21.41    3.51
 -10   5  -3   16.41    3.24
 -10  -5   4   58.30    5.63
 -10   5  -4   47.76    5.16
 -10  -5   4   56.11    4.71
 -10  -5   5    2.94    2.02
 -10  -5   5    1.91    1.49
 -10  -5   5    3.00    1.87
 -10  -5   6   19.37    3.56
 -10  -5   6   18.64    2.82
 -10  -5   6   19.61    3.54
 -10  -5   7   20.22    3.76
 -10  -5   7   21.32    2.98
 -10  -5   7   15.88    3.52
 -10  -5   8   55.21    5.81
 -10  -5   8   55.49    4.62
 -10  -5   8   62.82    6.10
 -10  -5   9   25.23    4.09
 -10  -5   9   31.27    4.56
 -10  -5   9   34.11    3.53
 -10  -5  10   52.61    5.80
 -10  -5  10   63.23    4.77
 -10  -5  10   61.20    6.23
 -10  -5  11   83.98    7.47
 -10  -5  11   80.63    5.52
 -10  -5  11   78.56    7.17
 -10  -5  12   15.62    3.33
 -10  -5  12   14.11    2.36
 -10  -5  12   13.41    3.33
 -10  -5  13    1.70    1.99
  10   5  13   -0.48    2.08
 -10  -5  13    2.21    1.45
  10   5  13    1.51    2.29
 -10  -5  13    1.13    2.13
 -10  -5  14   61.26    6.46
  10   5  14   71.81    6.28
 -10  -5  14   57.53    4.33
  10   5  14   54.33    5.81
 -10  -5  14   69.73    6.75
 -10  -5  15   11.49    3.24
  10   5  15   20.19    3.67
  10   5  15   14.41    3.19
 -10  -5  15   11.30    3.14
 -10  -5  16   67.66    6.76
  10   5  16   73.60    6.29
  10   5  16   71.58    6.34
 -10  -5  16   60.41    6.38
 -10  -5  17   17.56    3.89
  10   5  17   16.80    3.29
  10   5  17   21.20    3.73
 -10  -5  17   18.14    3.86
 -10  -5  18   14.34    3.47
  10   5  18   15.79    3.15
  10   5  18   19.59    3.69
 -10  -5  18   19.80    4.00
 -10  -5  19    9.07    2.92
  10   5  19   17.94    3.38
  10   5  19   18.38    3.26
 -10  -5  19   15.98    3.57
  10   5  20    3.75    2.22
  10   5  20    2.72    1.85
 -10  -5  20    1.54    2.12
  10   5  21   -0.39    1.66
 -10  -5  21    0.97    1.88
  10   5  22    3.62    1.97
  10  -6  21   65.91    5.92
 -10   6  19  131.27    8.89
 -10   6  18   71.64    6.60
 -10   6  17   95.80    7.71
 -10   6  16   35.29    5.06
 -10   6  15   62.96    6.47
 -10   6  14   97.91    8.02
 -10   6  13   69.40    6.66
 -10   6  12   13.94    3.24
 -10  -6 -12   14.09    2.27
 -10   6  11  139.06    9.52
 -10  -6 -11  138.10    7.34
 -10   6  10  250.45   13.57
 -10  -6 -10  274.36   11.51
 -10   6   9  342.77   16.46
 -10  -6  -9  364.08   14.30
 -10   6   8  209.64   11.62
 -10  -6  -8  194.91    9.47
 -10   6   7  103.29    7.79
 -10  -6  -7   99.04    6.28
 -10  -6  -6   96.61    7.49
 -10   6   6  101.83    7.65
 -10  -6  -6  117.82    6.89
 -10   6   5  121.00    8.39
 -10  -6  -5  130.82    8.64
 -10  -6  -5  126.15    7.36
 -10  -6  -4   99.45    7.51
 -10   6   4  109.21    7.74
 -10  -6  -4  110.94    6.85
 -10   6   3   80.98    6.56
 -10  -6  -3   72.55    6.27
 -10  -6  -3   84.78    5.89
 -10  -6  -2  124.41    8.36
 -10   6   2  119.66    8.07
 -10  -6  -2  120.28    7.19
 -10  -6  -1  197.98   11.07
 -10   6   1  196.56   10.96
 -10  -6  -1  215.47   10.28
 -10  -6   0  159.78    9.69
 -10   6   0  159.22    9.62
 -10  -6   0  172.65    8.89
 -10   6  -1  182.02   10.57
 -10  -6   1  196.66   11.01
 -10   6  -2  135.72    8.49
 -10  -6   2  116.03    8.10
 -10  -6   3   64.84    5.88
 -10   6  -3   66.46    5.84
 -10   6  -4   97.33    7.28
 -10  -6   4  108.86    7.70
 -10  -6   4  106.51    6.66
 -10  -6   5  124.85    8.62
 -10   6  -5  135.52    8.78
 -10  -6   5  142.04    7.78
 -10  -6   6  115.69    8.11
 -10   6  -6   97.38    7.34
 -10  -6   6  107.51    7.73
 -10  -6   6  107.64    6.66
 -10  -6   7  108.97    7.95
 -10  -6   7  103.82    6.47
 -10  -6   7   98.90    7.59
 -10  -6   8  178.65   10.83
 -10  -6   8  191.52    9.33
 -10  -6   8  187.25   11.03
 -10  -6   9  373.84   17.08
 -10  -6   9  364.86   14.64
 -10  -6   9  365.85   17.12
 -10  -6  10  249.74   13.52
 -10  -6  10  260.83   13.85
 -10  -6  10  267.50   11.51
 -10  -6  11  148.12    9.84
 -10  -6  11  142.98    7.71
 -10  -6  11  150.24   10.05
 -10  -6  12    9.08    2.96
 -10  -6  12   11.11    2.26
 -10  -6  12   13.96    3.41
 -10  -6  13   69.68    6.61
  10   6  13   68.73    6.37
 -10  -6  13   65.48    4.74
  10   6  13   73.21    6.59
 -10  -6  13   69.10    6.79
 -10  -6  14  107.29    8.25
  10   6  14   89.48    7.21
  10   6  14  102.71    7.83
 -10  -6  14  115.14    8.66
 -10  -6  15   69.81    6.81
  10   6  15   83.28    6.87
  10   6  15   75.47    6.66
 -10  -6  15   88.23    7.49
 -10  -6  16   42.79    5.43
  10   6  16   52.24    5.24
  10   6  16   44.48    5.21
 -10  -6  16   40.16    5.29
 -10  -6  17   80.79    7.20
  10   6  17   84.78    6.69
  10   6  17   92.20    7.15
 -10  -6  17   90.29    7.66
 -10  -6  18   71.18    6.65
  10   6  18   81.77    6.43
  10   6  18   82.80    6.63
 -10  -6  18   82.18    7.18
 -10  -6  19  148.91    9.69
  10   6  19  156.95    9.08
  10   6  19  158.79    9.40
 -10  -6  19  168.99   10.24
 -10  -6  20   15.61    3.41
  10   6  20   19.66    3.24
  10   6  20   16.83    3.00
 -10  -6  20   20.29    3.62
  10   6  21   65.13    5.52
 -10   7  15   31.72    4.39
 -10   7  14    7.45    2.87
 -10   7  13   27.43    4.22
 -10   7  12   48.82    5.43
 -10  -7 -12   56.02    4.29
 -10   7  11   43.95    5.16
 -10  -7 -11   58.97    4.45
 -10   7  10    3.42    1.96
 -10  -7 -10    4.02    1.63
 -10   7   9   61.30    5.91
 -10  -7  -9   62.67    4.75
 -10  -7  -8   82.10    6.74
 -10   7   8   92.77    7.24
 -10  -7  -8   96.89    6.07
 -10  -7  -7   60.16    5.65
 -10   7   7   64.15    5.89
 -10  -7  -7   66.30    5.01
 -10   7   6   42.55    4.84
 -10  -7  -6   38.30    4.53
 -10  -7  -6   45.33    4.26
 -10  -7  -5    2.22    1.84
 -10   7   5    6.31    2.40
 -10  -7  -5    1.64    1.39
 -10  -7  -4   13.68    2.97
 -10   7   4   14.64    3.02
 -10  -7  -4   15.28    2.58
 -10   7   3   15.36    3.07
 -10  -7  -3   19.73    3.40
 -10  -7  -3   20.47    2.93
 -10  -7  -2   86.65    6.86
 -10   7   2   96.32    7.07
 -10  -7  -2  105.66    6.65
 -10   7   1   74.61    6.05
 -10  -7  -1   59.92    5.64
 -10  -7  -1   80.34    5.71
 -10  -7   0   28.72    3.85
 -10   7   0   29.92    3.88
 -10  -7   0   41.51    4.08
 -10  -7   1   66.63    5.85
 -10   7  -1   66.78    5.70
 -10  -7   1   73.71    5.47
 -10   7  -2   90.98    6.74
 -10  -7   2   87.08    6.77
 -10  -7   3   17.33    3.17
 -10   7  -3   11.09    2.62
 -10   7  -4   14.49    2.93
 -10  -7   4   12.10    2.89
 -10  -7   4   14.66    2.54
 -10   7  -5    3.41    1.99
 -10  -7   5   -0.45    1.88
 -10  -7   5    3.30    1.73
 -10  -7   6   39.69    4.77
 -10   7  -6   47.03    4.74
 -10  -7   6   35.39    4.52
 -10  -7   6   46.36    4.21
 -10   7  -7   60.03    5.42
 -10  -7   7   53.89    5.55
 -10  -7   7   57.58    5.81
 -10  -7   7   65.29    4.99
 -10   7  -8   79.61    6.40
 -10  -7   8   73.15    6.49
 -10  -7   8   77.37    6.85
 -10  -7   8   88.72    5.83
 -10  -7   9   44.02    5.15
 -10  -7   9   57.97    4.58
 -10  -7   9   53.86    5.74
 -10  -7  10    5.90    2.54
 -10  -7  10    7.21    2.10
 -10  -7  10    7.51    2.92
 -10  -7  11   47.79    5.37
 -10  -7  11   51.37    4.31
 -10  -7  11   57.92    6.07
 -10  -7  12   47.24    5.31
 -10  -7  12   62.11    4.57
 -10  -7  12   65.07    6.42
 -10  -7  13   36.26    4.73
  10   7  13   31.52    4.40
  10   7  13   24.58    4.15
 -10  -7  13   32.68    4.75
 -10  -7  13   31.20    3.16
 -10  -7  14    4.52    2.45
  10   7  14    5.42    2.35
  10   7  14    8.89    2.62
 -10  -7  14    5.51    2.69
 -10  -7  15   25.70    4.19
  10   7  15   28.37    4.26
  10   7  15   33.64    4.41
 -10  -7  15   28.85    4.51
 -10  -7  16   45.24    5.38
  10   7  16   62.76    5.69
  10   7  16   67.12    6.07
 -10  -7  16   64.01    6.31
 -10  -7  17   23.79    3.73
  10   7  17   20.19    3.47
  10   7  17   27.35    3.96
 -10  -7  17   30.57    4.56
  10   7  18   64.11    5.69
  10   7  18   61.57    5.73
 -10  -7  18   75.65    6.60
  10   7  19   19.83    3.35
  10   7  19   23.79    3.46
 -10  -7  19   19.90    3.62
  10   7  20    7.96    2.28
  10   7  20    5.30    1.92
 -10  -7  20    6.67    2.34
 -10  -8 -12  129.38    6.79
 -10  -8 -11  139.84    7.26
 -10  -8 -10  152.86    7.81
 -10  -8  -9  231.30   10.41
 -10   8   8   39.43    4.56
 -10  -8  -8   45.05    4.11
 -10   8   7   66.35    5.95
 -10  -8  -7   83.90    5.63
 -10   8   6  134.62    8.48
 -10  -8  -6  136.10    7.68
 -10   8   5  110.19    7.65
 -10  -8  -5  128.92    7.37
 -10   8   4   77.33    6.17
 -10  -8  -4   83.22    5.85
 -10   8   3   73.42    6.02
 -10  -8  -3   78.89    5.72
 -10   8   2   96.67    7.04
 -10  -8  -2  125.84    7.35
 -10   8   1   81.91    6.25
 -10  -8  -1   89.75    6.14
 -10   8   0    0.78    1.43
 -10  -8   0   -2.42    1.51
 -10   8  -1   81.30    6.23
 -10  -8   1  105.80    6.64
 -10   8  -2  100.18    6.89
 -10   8  -3   53.33    4.97
 -10   8  -4   67.55    5.68
 -10  -8   4   81.99    5.79
 -10   8  -5  112.44    7.49
 -10  -8   5  136.97    7.68
 -10   8  -6  132.75    8.20
 -10  -8   6  147.46    8.04
 -10   8  -7   80.77    6.11
 -10  -8   7   87.60    5.88
 -10  -8   7   77.23    6.65
 -10  -8   8   52.63    5.58
 -10  -8   8   56.73    4.60
 -10   8  -9  227.97   11.39
 -10  -8   9  232.52   10.72
 -10  -8  10  168.82    8.49
 -10  -8  10  167.24   10.52
 -10  -8  11  138.05    7.37
 -10  -8  11  140.01    9.51
 -10  -8  12  111.38    8.62
 -10  -8  12  122.38    6.68
  10   8  13  107.79    7.96
  10   8  13  105.39    7.92
 -10  -8  13  111.50    6.20
 -10  -8  13  114.61    8.54
  10   8  14  103.89    7.50
  10   8  14  100.34    7.65
 -10  -8  14   99.70    7.92
  10   8  15  118.22    8.03
  10   8  15  127.83    8.49
 -10  -8  15  122.38    8.70
  10   8  16   51.23    5.31
 -10  -8  16   61.36    6.00
  10   8  17   15.95    3.05
  10   8  17   17.43    3.35
 -10  -8  17   22.51    3.81
  10   8  18   51.97    4.90
  10   8  18   48.63    4.94
 -10  -8  18   41.03    4.87
  10   8  19  159.35    8.93
  10   8  19  174.10    9.46
 -10  -8  19  186.11   10.25
 -10  -9 -11   17.06    2.47
 -10  -9 -10    2.18    1.38
 -10  -9  -9    6.30    1.84
 -10  -9  -8   12.26    2.24
 -10  -9  -7   26.60    3.14
 -10  -9  -6   10.85    2.34
 -10  -9  -5   10.80    2.30
 -10  -9  -4    7.01    2.01
 -10  -9  -3   15.30    2.72
 -10  -9  -2   16.48    2.85
 -10  -9  -1   33.56    3.76
 -10  -9   0   73.25    5.55
 -10  -9   1   31.23    3.79
 -10  -9   4    6.79    2.05
 -10  -9   5   12.36    2.46
 -10  -9   6   12.15    2.46
 -10  -9   7   34.68    3.67
 -10  -9   8   15.93    2.60
 -10  -9   8    5.72    2.47
 -10  -9   9    5.75    1.80
 -10  -9   9    4.42    2.25
 -10  -9  10    4.65    1.73
 -10  -9  10    3.00    2.07
 -10  -9  11   16.25    2.45
 -10  -9  11   19.72    3.65
 -10  -9  12   12.95    2.20
 -10  -9  12   15.22    3.58
  10   9  13    4.91    2.22
  10   9  13    3.28    2.19
 -10  -9  13    1.51    1.97
  10   9  14   24.48    3.81
  10   9  14   31.85    4.25
 -10  -9  14   22.84    3.90
 -10  -9  15    5.81    2.41
 -10  -9  16   17.34    3.42
 -10  -9  17    0.45    1.75
 -10  -9  18    0.42    1.80
 -10 -10 -11   83.91    5.15
 -10 -10 -10   29.63    3.13
 -10 -10  -9   37.44    3.61
 -10 -10  -8    2.02    1.57
 -10 -10  -7   27.39    3.22
 -10 -10  -6  106.94    6.56
 -10 -10  -5  106.88    6.67
 -10 -10  -4  158.55    8.50
 -10 -10  -3  109.12    6.88
 -10 -10  -2   71.72    5.49
 -10 -10  -1   69.79    5.35
 -10 -10   0    9.91    2.35
 -10 -10   1   62.14    5.01
 -10 -10   4  170.06    8.93
 -10 -10   5  103.59    6.59
 -10 -10   6   97.02    6.27
 -10 -10   7   35.67    3.75
 -10 -10   8   -0.30    1.41
 -10 -10   9   45.09    4.98
 -10 -10   9   45.67    4.08
 -10 -10  10   33.54    3.46
 -10 -10  10   30.57    4.32
 -10 -10  11   84.70    5.32
 -10 -10  11   74.06    6.48
 -10 -10  12  193.52   10.96
 -10 -10  13  102.50    7.65
 -10 -10  14   90.42    7.14
  10  10  15   40.59    4.40
  10  10  15   39.44    4.47
 -10 -10  15   45.34    4.94
  10  10  16   12.01    2.49
  10  10  16    6.77    2.27
 -10 -10  16    8.78    2.49
 -10 -11 -10   28.42    3.01
 -10 -11  -9    9.55    1.96
 -10 -11  -8   20.74    2.73
 -10 -11  -7   38.66    3.71
 -10 -11  -6    9.81    2.18
 -10 -11  -5    4.91    1.82
 -10 -11  -4   10.41    2.34
 -10 -11  -3   76.11    5.49
 -10 -11  -2   41.93    4.13
 -10 -11  -1   39.35    4.00
 -10 -11   0  119.76    7.25
 -10 -11   1   28.25    3.40
 -10 -11   4   10.51    2.36
 -10 -11   5    4.69    1.83
 -10 -11   6   14.32    2.53
 -10 -11   7   34.27    3.60
 -10 -11   8   14.53    2.47
 -10 -11   9    8.97    2.06
 -10 -11  10   35.16    3.38
 -10 -11  11   12.65    2.11
 -10 -11  11   14.45    2.89
  10  11  12   25.44    3.71
  10  11  12   26.72    3.93
 -10 -11  12   26.20    3.68
  10  11  13   10.22    2.58
  10  11  13    9.71    2.56
 -10 -11  13   10.07    2.50
  10  11  14   75.46    5.75
  10  11  14   72.07    5.88
 -10 -12  -9   27.58    2.87
 -10 -12  -8    4.01    1.53
 -10 -12  -7   50.76    4.10
 -10 -12  -6  166.86    8.26
 -10 -12  -5  236.20   10.52
 -10 -12  -4  442.16   16.70
 -10 -12  -3  132.61    7.42
 -10 -12  -2   24.11    3.09
 -10 -12  -1   30.10    3.43
 -10 -12   0  107.75    6.63
 -10 -12   1   32.22    3.58
 -10 -12   4  403.71   15.64
 -10 -12   5  248.81   10.96
 -10 -12   6  142.39    7.49
 -10 -12   7   53.34    4.26
 -10 -12   8    4.14    1.52
 -10 -12   9   27.72    2.95
 -10 -12  10    5.71    1.66
  10  12  11   61.03    5.22
  10  12  11   59.95    5.28
  10  12  12  231.41   11.03
  10  12  12  230.73   11.15
 -10 -13  -7   26.84    2.83
 -10 -13  -6   35.27    3.33
 -10 -13  -5    1.04    1.24
 -10 -13  -4   14.16    2.30
 -10 -13  -3   28.67    3.21
 -10 -13  -2   19.09    2.75
 -10 -13  -1   43.80    3.93
 -10 -13   0  183.82    8.86
 -10 -13   1   38.92    3.63
 -10 -13   3   24.34    2.94
 -10 -13   4   13.26    2.28
 -10 -13   5    1.03    1.23
 -10 -13   6   31.42    3.13
 -10 -13   7   21.74    2.59
 -10 -14  -2   41.88    3.61
 -10 -14  -1   10.24    2.02
 -10 -14   0    5.37    1.64
 -10 -14   1   10.43    1.95
 -11   0   0    2.57    1.68
 -11   0   0   -1.08    2.34
 -11   0   1    3.67    1.82
 -11   0  -1    2.94    1.86
 -11   0  -1   -0.54    2.30
 -11   0   1    0.54    2.03
 -11   0  -2    9.90    2.41
 -11   0   2   12.85    3.51
 -11   0  -2    5.99    2.77
 -11   0  -3    2.92    1.74
 -11   0   3   -0.54    2.23
 -11   0  -3    0.55    2.40
 -11   0   4   27.26    3.58
 -11   0   4   27.03    4.34
 -11   0  -4   24.60    4.35
 -11   0   5    8.74    3.25
 -11   0   6   56.88    6.24
 -11   0   7    7.83    2.73
 -11   0   8   91.32    7.89
 -11   0   9   27.02    4.61
  11   0  10   11.77    2.58
  11   0  10    9.40    2.43
 -11   0  10   12.23    3.51
  11   0  11    1.12    1.62
  11   0  11    2.38    1.68
 -11   0  11    2.36    2.15
  11   0  12    1.87    1.63
  11   0  12    0.40    1.56
 -11   0  12    0.60    2.33
  11   0  13   44.99    4.58
  11   0  13   41.74    4.56
 -11   0  13   48.80    5.94
  11   0  14   59.09    5.14
  11   0  14   51.26    5.02
 -11   0  14   52.12    6.23
  11   0  15   15.87    2.95
  11   0  15   19.96    3.10
  11   0  16   15.57    2.90
 -11   0  16   20.47    4.21
  11   0  17   38.14    4.24
 -11   0  17   35.00    5.14
  11   0  18   29.88    3.71
 -11   0  18   28.39    4.72
  11   0  19    9.72    2.43
 -11   0  19   12.82    3.49
 -11   0  20   21.74    4.11
 -11   0  21   31.60    4.64
 -11   1  21    3.98    2.17
 -11   1  20   11.00    2.99
 -11  -1  -7  137.83    7.98
 -11  -1  -6   65.69    5.31
 -11  -1  -5   62.87    5.19
 -11  -1  -4   73.82    5.62
 -11  -1  -4   67.41    6.78
 -11  -1  -3   91.41    6.42
 -11  -1  -3   91.34    7.62
 -11  -1  -2   43.28    4.32
 -11  -1  -2   41.29    4.96
 -11  -1  -1  334.22   14.41
 -11  -1  -1  333.02   16.21
 -11  -1   0  625.20   22.74
 -11  -1   0  609.60   24.87
 -11  -1   1  332.42   14.46
 -11  -1   1  364.35   16.88
 -11  -1   2   41.21    5.05
 -11  -1   3   95.36    7.70
 -11  -1   4   82.96    6.03
 -11  -1   4   83.32    7.17
 -11  -1   5   56.25    4.95
 -11  -1   5   67.27    6.47
 -11  -1   6   63.93    5.26
 -11  -1   6   67.06    6.59
 -11  -1   7  142.73    8.19
 -11  -1   7  151.86   10.13
  11   1   8  338.72   14.71
 -11  -1   8  316.58   13.87
  11   1   8  332.50   14.81
 -11  -1   8  340.83   16.60
  11   1   9  503.42   19.84
  11   1   9  520.66   20.22
 -11  -1   9  484.61   21.75
  11   1  10  227.76   11.41
  11   1  10  224.93   11.60
 -11  -1  10  227.48   13.25
  11   1  11   44.45    4.62
  11   1  11   41.18    4.70
 -11  -1  11   38.99    5.24
  11   1  12    2.42    1.80
  11   1  12    2.58    1.83
 -11  -1  12    4.79    2.47
  11   1  13   21.72    3.41
  11   1  13   14.59    3.06
 -11  -1  13   21.20    4.37
  11   1  14  109.53    7.29
  11   1  14   93.62    7.06
 -11  -1  14   91.29    8.21
  11   1  15   93.36    6.65
  11   1  15   89.48    6.79
 -11  -1  15   98.10    8.21
  11   1  16  223.27   11.30
  11   1  16  243.74   11.88
 -11  -1  16  230.18   13.52
  11   1  17  307.98   13.84
 -11  -1  17  285.91   15.47
  11   1  18   77.45    5.95
 -11  -1  18   65.87    6.70
  11   1  19    6.93    2.17
 -11  -1  19    6.67    2.54
  11   1  20   13.05    2.57
 -11  -1  20   12.67    3.35
 -11  -1  21    5.52    2.59
 -11   2  21    4.33    2.44
 -11   2  20    7.15    2.73
  11  -2  19   20.00    3.43
 -11   2  19   17.21    3.59
 -11   2  18   77.55    7.29
 -11   2  17   22.54    4.26
 -11   2  16   13.51    3.59
 -11   2  15   61.15    6.63
 -11   2  14   11.29    3.08
 -11   2  13   47.41    5.69
 -11   2  12   24.74    4.53
 -11   2  11    5.81    2.78
 -11   2  10   58.54    6.33
 -11  -2  -9   40.85    4.08
 -11   2   9   43.68    5.34
 -11  -2  -8   66.60    5.27
 -11   2   8   73.98    6.95
 -11  -2  -7   16.72    2.85
 -11   2   7   13.26    3.30
 -11  -2  -6   70.70    5.53
 -11   2   6   82.43    7.21
 -11  -2  -5  137.44    8.01
 -11  -2  -5  130.45    9.51
 -11   2   5  139.39    9.50
 -11  -2  -4   54.10    4.83
 -11   2   4   52.82    5.72
 -11  -2  -4   54.48    5.89
 -11  -2  -3   12.07    2.61
 -11   2   3   11.69    2.94
 -11  -2  -3    8.71    3.06
 -11  -2  -2    8.56    2.24
 -11  -2  -2   10.79    2.98
 -11   2   2   10.57    2.83
 -11  -2  -1   65.07    5.32
 -11   2   1   55.49    5.96
 -11  -2  -1   54.75    5.95
 -11  -2   0   37.47    4.07
 -11  -2   0   36.34    4.84
 -11   2   0   33.37    4.69
 -11  -2   1   48.81    4.57
 -11  -2   1   50.13    5.55
 -11   2  -1   51.60    5.65
 -11   2  -2   13.36    3.23
 -11  -2   2   12.27    3.22
 -11  -2   3   17.71    3.65
 -11   2  -3   17.80    3.56
 -11  -2   4   51.40    4.67
 -11  -2   4   46.89    5.52
 -11   2  -4   48.53    5.51
 -11  -2   5  147.19    8.26
 -11  -2   5  135.96    9.59
 -11   2  -5  159.65   10.33
 -11  -2   6   74.09    5.58
 -11  -2   6   73.41    6.83
 -11  -2   7   18.26    2.98
 -11  -2   7   22.91    4.11
 -11  -2   8   73.15    5.56
 -11  -2   8   79.38    7.20
  11   2   9   46.40    4.92
 -11  -2   9   43.83    4.25
  11   2   9   39.78    4.67
 -11  -2   9   48.80    5.70
  11   2  10   59.79    5.60
 -11  -2  10   69.05    5.21
  11   2  10   65.64    5.94
 -11  -2  10   69.72    7.03
  11   2  11    7.67    2.60
  11   2  11    5.12    2.24
 -11  -2  11    5.89    2.57
  11   2  12   36.49    4.34
  11   2  12   32.89    4.37
 -11  -2  12   25.65    4.58
  11   2  13   50.88    5.08
  11   2  13   46.14    5.00
 -11  -2  13   59.41    6.42
  11   2  14    8.71    2.56
  11   2  14    7.08    2.63
 -11  -2  14    3.01    2.28
  11   2  15   78.19    6.13
  11   2  15   72.14    6.14
 -11  -2  15   72.77    7.18
  11   2  16   15.28    2.98
  11   2  16   12.68    2.75
 -11  -2  16   12.50    3.40
  11   2  17   14.82    2.92
  11   2  17   15.34    2.95
 -11  -2  17   15.81    3.59
  11   2  18   91.18    6.64
 -11  -2  18   89.44    7.77
  11   2  19   20.96    3.26
 -11  -2  19   16.91    3.60
  11   2  20    5.97    2.06
 -11  -2  20   12.96    3.24
 -11  -2  21    2.93    2.28
 -11   3  20    6.40    2.50
  11  -3  19   37.44    4.47
 -11   3  19   40.28    5.19
 -11   3  18  102.33    8.21
 -11   3  17  270.11   14.43
 -11   3  16  216.13   12.71
 -11   3  15  120.52    9.15
 -11   3  14   88.35    7.74
 -11   3  13  115.08    9.02
 -11   3  12   27.26    4.48
 -11   3  11   38.97    5.37
 -11   3  10  176.11   11.26
 -11  -3 -10  178.06    8.95
 -11   3   9  321.95   16.12
 -11  -3  -9  323.37   13.50
 -11   3   8  337.40   16.97
 -11  -3  -8  377.66   14.93
 -11   3   7  306.26   15.21
 -11  -3  -7  284.24   12.70
 -11   3   6  104.18    8.18
 -11  -3  -6  105.60    6.77
 -11  -3  -5   35.34    4.98
 -11   3   5   30.99    4.43
 -11  -3  -5   26.76    3.58
 -11  -3  -4    5.39    2.68
 -11   3   4    7.39    2.91
 -11  -3  -4    7.02    2.12
 -11  -3  -3   78.36    6.94
 -11   3   3   76.06    6.90
 -11  -3  -3   77.40    5.79
 -11  -3  -2  187.50   11.06
 -11   3   2  159.64   10.26
 -11  -3  -2  165.25    9.06
 -11   3   1  388.91   17.96
 -11  -3  -1  379.14   17.85
 -11  -3  -1  417.90   16.38
 -11  -3   0  539.76   22.63
 -11   3   0  561.78   22.77
 -11  -3   0  541.74   20.48
 -11  -3   1  382.96   17.79
 -11   3  -1  406.79   18.17
 -11  -3   1  386.53   16.00
 -11   3  -2  177.70   10.83
 -11  -3   2  173.64   10.73
 -11   3  -3   84.63    7.21
 -11  -3   3   91.27    7.47
 -11   3  -4    6.37    2.59
 -11  -3   4    7.47    2.95
 -11  -3   4    6.99    2.21
 -11  -3   5   36.23    4.95
 -11   3  -5   35.88    4.93
 -11  -3   5   34.34    3.83
 -11  -3   6  107.65    8.43
 -11  -3   6  107.29    6.82
 -11  -3   7  284.13   14.72
 -11  -3   7  274.37   12.37
 -11  -3   8  352.40   17.10
 -11  -3   8  348.85   14.49
 -11  -3   9  308.00   16.09
 -11  -3   9  343.68   14.00
 -11  -3  10  186.47   11.56
  11   3  10  174.60   10.09
 -11  -3  10  168.66    8.85
  11   3  10  181.96   10.44
 -11  -3  11   49.37    5.85
  11   3  11   44.71    4.96
 -11  -3  11   42.12    4.06
  11   3  11   50.34    5.33
 -11  -3  12   34.10    4.91
  11   3  12   25.06    4.00
  11   3  12   21.51    3.59
 -11  -3  13  111.92    8.89
  11   3  13  124.70    8.09
  11   3  13  110.34    7.91
 -11  -3  14   91.99    7.89
  11   3  14   84.21    6.62
  11   3  14   88.37    6.92
  11   3  15  150.86    8.87
  11   3  15  154.27    9.18
 -11  -3  16  200.71   12.51
  11   3  16  222.60   11.30
  11   3  16  238.35   11.86
 -11  -3  17  270.17   14.71
  11   3  17  285.38   13.12
  11   3  17  284.48   13.34
 -11  -3  18  102.27    8.28
  11   3  18  118.20    7.44
  11   3  18  111.34    7.47
 -11  -3  19   30.96    4.62
  11   3  19   40.03    4.32
 -11  -3  20    4.48    2.38
  11   3  20    6.00    2.07
 -11   4  20    1.38    1.79
 -11   4  19   16.55    3.35
 -11   4  18   62.49    6.29
 -11   4  17    2.67    2.39
 -11   4  16   13.75    3.45
 -11   4  15   58.13    6.29
 -11   4  14    5.08    2.70
 -11   4  13   25.45    4.29
 -11   4  12    3.97    2.54
 -11  -4 -12    8.94    2.01
 -11   4  11   28.64    4.60
 -11  -4 -11   34.39    3.58
 -11   4  10   61.04    6.33
 -11  -4 -10   67.67    5.06
 -11   4   9    4.39    2.51
 -11  -4  -9    1.90    1.54
 -11   4   8    5.97    2.38
 -11  -4  -8   12.69    2.41
 -11   4   7   15.58    3.49
 -11  -4  -7   12.67    2.46
 -11   4   6    7.96    2.79
 -11  -4  -6    5.31    2.64
 -11  -4  -6    4.09    1.88
 -11   4   5    0.52    2.04
 -11  -4  -5    1.05    1.92
 -11  -4  -5    1.73    1.65
 -11  -4  -4    6.79    2.66
 -11   4   4   13.00    3.33
 -11  -4  -4    8.76    2.40
 -11  -4  -3    5.73    2.44
 -11   4   3    7.70    2.84
 -11  -4  -3    8.48    2.32
 -11   4   2    4.61    2.40
 -11  -4  -2   11.42    3.08
 -11  -4  -2   11.39    2.51
 -11  -4  -1    6.72    2.63
 -11   4   1    8.67    2.82
 -11  -4  -1    8.57    2.42
 -11  -4   0    2.58    2.30
 -11   4   0   -0.51    2.32
 -11  -4   0   -1.07    1.55
 -11   4  -1   11.71    3.07
 -11  -4   1   12.92    3.23
 -11  -4   1    8.16    2.18
 -11   4  -2    9.69    2.91
 -11  -4   2    7.25    2.73
 -11   4  -3    6.13    2.73
 -11  -4   3    6.23    2.82
 -11   4  -4    7.16    2.55
 -11  -4   4    4.73    2.51
 -11  -4   4    8.37    2.36
 -11  -4   5    1.59    2.25
 -11   4  -5    2.06    2.13
 -11  -4   5    3.11    1.87
 -11  -4   6    4.83    2.46
 -11   4  -6    8.29    2.81
 -11  -4   6    7.86    2.27
 -11  -4   7   19.00    3.95
 -11  -4   7   14.49    2.72
 -11  -4   8   13.17    3.35
 -11  -4   8    8.28    2.25
 -11  -4   9    3.33    2.29
 -11  -4   9    4.86    1.87
 -11  -4  10   65.62    6.62
 -11  -4  10   69.94    5.21
 -11  -4  11   37.46    5.08
 -11  -4  11   32.44    3.61
  11   4  11   29.02    4.24
  11   4  11   31.44    4.39
 -11  -4  12    3.42    2.49
  11   4  12    4.25    2.30
  11   4  12    3.14    2.10
 -11  -4  12    4.68    1.76
 -11  -4  13   30.88    4.59
  11   4  13   27.99    4.16
  11   4  13   26.87    3.96
 -11  -4  13   25.33    3.02
 -11  -4  14    4.57    2.67
  11   4  14    7.33    2.68
  11   4  14    6.47    2.38
 -11  -4  15   59.39    6.49
  11   4  15   64.56    5.62
  11   4  15   62.54    5.83
 -11  -4  16   12.25    3.27
  11   4  16   15.00    3.06
  11   4  16   13.41    3.06
 -11  -4  17    9.21    3.23
  11   4  17   12.49    2.91
  11   4  17   11.66    2.72
 -11  -4  18   64.94    6.30
  11   4  18   59.30    5.29
  11   4  18   61.17    5.45
  11   4  19   11.53    2.53
  11   4  19   13.51    2.81
 -11  -4  20    1.40    1.82
  11   4  20    1.05    1.56
 -11   5  18   59.15    5.84
 -11   5  17  149.44    9.67
 -11   5  16  199.09   11.70
 -11   5  15  111.93    8.50
 -11   5  14   55.43    5.99
 -11   5  13   19.01    3.74
 -11   5  12    5.43    2.75
 -11  -5 -12    4.61    1.57
 -11   5  11   67.70    6.59
 -11  -5 -11   74.57    5.10
 -11   5  10  174.76   10.77
 -11  -5 -10  156.52    8.17
 -11   5   9  244.14   13.21
 -11  -5  -9  245.82   11.06
 -11  -5  -8  222.13   12.24
 -11   5   8  203.74   11.97
 -11  -5  -8  215.12   10.21
 -11   5   7  210.67   11.99
 -11  -5  -7  203.76   11.75
 -11  -5  -7  216.69   10.28
 -11   5   6  224.06   12.39
 -11  -5  -6  208.79   12.04
 -11  -5  -6  226.09   10.68
 -11   5   5   17.35    3.61
 -11  -5  -5   27.74    4.27
 -11  -5  -5   25.82    3.35
 -11   5   4   10.61    3.02
 -11  -5  -4   13.61    3.32
 -11  -5  -4   16.36    2.84
 -11   5   3   62.64    6.01
 -11  -5  -3   65.36    6.20
 -11  -5  -3   74.05    5.62
 -11  -5  -2  161.38   10.17
 -11   5   2  165.00   10.13
 -11  -5  -2  170.10    9.03
 -11  -5  -1  179.72   10.88
 -11   5   1  201.96   11.26
 -11  -5  -1  193.97    9.97
 -11  -5   0  179.68   10.71
 -11   5   0  170.29   10.31
 -11  -5   0  171.73    9.27
 -11   5  -1  206.16   11.36
 -11  -5   1  188.90   11.13
 -11  -5   1  187.95    9.85
 -11   5  -2  139.22    9.14
 -11  -5   2  135.01    9.13
 -11  -5   3   85.66    7.14
 -11   5  -3   76.97    6.63
 -11  -5   4   17.87    3.56
 -11   5  -4   12.74    3.21
 -11  -5   4    6.61    2.16
 -11  -5   5   21.64    3.78
 -11   5  -5   23.46    3.89
 -11  -5   5   25.39    3.34
 -11  -5   6  199.50   11.76
 -11   5  -6  198.55   11.59
 -11  -5   6  231.07   10.64
 -11  -5   7  200.29   11.79
 -11   5  -7  200.98   11.43
 -11  -5   7  204.69   10.06
 -11   5  -8  237.15   12.51
 -11  -5   8  220.16   12.56
 -11  -5   8  233.31   10.82
 -11  -5   9  241.68   13.25
 -11  -5   9  242.37   11.07
 -11  -5  10  185.22   11.19
 -11  -5  10  169.90    8.75
 -11  -5  11   72.01    6.79
  11   5  11   60.16    5.73
 -11  -5  11   65.19    4.88
  11   5  11   66.08    6.16
 -11  -5  12    2.74    2.32
  11   5  12    4.28    2.41
  11   5  12    4.53    2.25
 -11  -5  12    1.71    1.47
 -11  -5  13   22.85    4.00
  11   5  13   18.74    3.60
  11   5  13   20.81    3.72
 -11  -5  13   18.17    2.55
 -11  -5  14   73.42    6.85
  11   5  14   72.53    6.12
  11   5  14   67.28    6.13
 -11  -5  15  135.13    9.36
  11   5  15  134.84    8.42
  11   5  15  121.90    8.27
 -11  -5  16  193.93   11.76
  11   5  16  222.97   11.15
  11   5  16  207.03   11.05
 -11  -5  17  153.70   10.05
  11   5  17  163.25    9.20
  11   5  17  174.26    9.67
 -11  -5  18   62.47    6.04
  11   5  18   67.24    5.44
  11   5  18   60.37    5.38
 -11  -5  19   54.02    5.54
  11   5  19   56.97    4.92
  11   5  19   64.11    5.34
 -11   6  16   12.09    2.88
 -11   6  15   14.54    3.19
 -11   6  14   12.43    3.08
 -11   6  13    4.04    2.20
 -11   6  12   14.26    3.42
 -11   6  11   27.01    4.27
 -11  -6 -11   25.22    2.99
 -11  -6 -10   10.81    2.71
 -11   6  10    4.58    2.38
 -11  -6 -10    4.38    1.66
 -11  -6  -9    9.95    2.76
 -11   6   9   13.61    3.13
 -11  -6  -9   18.58    2.73
 -11   6   8   33.06    4.57
 -11  -6  -8   32.85    4.47
 -11  -6  -8   35.47    3.74
 -11  -6  -7   45.80    5.11
 -11   6   7   41.66    5.08
 -11  -6  -7   37.49    3.88
 -11  -6  -6    1.43    1.97
 -11   6   6   -0.49    1.73
 -11  -6  -6    1.00    1.38
 -11  -6  -5    1.44    1.92
 -11   6   5   -0.49    1.78
 -11  -6  -5    0.68    1.59
 -11   6   4   37.63    4.74
 -11  -6  -4   32.07    4.42
 -11  -6  -4   42.92    4.20
 -11   6   3   22.04    3.70
 -11  -6  -3   21.02    3.60
 -11  -6  -3   24.61    3.41
 -11  -6  -2    4.76    2.13
 -11   6   2   -0.95    1.91
 -11  -6  -2    4.60    2.26
 -11  -6  -1   -1.91    2.23
 -11   6   1   -1.88    2.20
 -11  -6  -1   -0.71    1.59
 -11  -6   0   29.61    4.11
 -11   6   0   17.29    3.32
 -11  -6   0   28.17    3.65
 -11   6  -1   -0.93    1.92
 -11  -6   1   -0.48    2.14
 -11  -6   1    1.78    1.63
 -11   6  -2    1.39    1.63
 -11  -6   2    0.48    1.99
 -11  -6   3   24.73    3.87
 -11   6  -3   24.51    3.88
 -11  -6   4   42.50    4.99
 -11   6  -4   38.78    4.67
 -11  -6   4   45.84    4.38
 -11   6  -5    0.92    1.85
 -11  -6   5   -0.49    1.98
 -11  -6   5    1.03    1.41
 -11   6  -6    0.91    1.78
 -11  -6   6    0.50    1.81
 -11  -6   6    0.34    1.83
 -11   6  -7   42.83    4.84
 -11  -6   7   30.02    4.47
 -11  -6   7   35.79    3.88
 -11  -6   8   36.25    4.60
 -11   6  -8   36.32    4.50
 -11  -6   8   31.53    4.27
 -11  -6   8   36.04    3.81
 -11   6  -9   16.25    3.17
 -11  -6   9   14.22    3.19
 -11  -6   9   12.98    2.48
 -11  -6   9   18.77    3.47
 -11  -6  10    7.18    2.60
 -11   6 -10    6.27    2.31
 -11  -6  10    3.36    1.74
 -11  -6  10    4.45    2.21
 -11  -6  11   27.23    4.25
 -11  -6  11   24.80    3.08
 -11  -6  11   28.12    4.27
 -11  -6  12   14.38    3.38
  11   6  12   18.95    3.46
 -11  -6  12   12.13    2.22
  11   6  12   11.86    3.12
 -11  -6  12   18.71    3.61
 -11  -6  13    7.60    2.88
  11   6  13    5.57    2.52
  11   6  13    3.52    2.06
 -11  -6  13    5.05    2.20
 -11  -6  14   14.97    3.36
  11   6  14   14.90    3.20
  11   6  14   18.76    3.30
 -11  -6  15   13.66    3.15
  11   6  15   22.14    3.47
  11   6  15   17.90    3.30
 -11  -6  16    7.52    2.53
  11   6  16   15.71    3.08
  11   6  16   13.81    2.87
 -11  -6  17   17.47    3.36
  11   6  17   20.13    3.27
  11   6  17   19.50    3.22
  11   6  18   97.46    6.52
  11   6  18   87.15    6.45
 -11  -7 -12   52.52    5.04
 -11  -7 -11  126.25    8.04
 -11   7  11  115.92    8.26
 -11  -7 -11  127.01    6.78
 -11  -7 -10  151.26    9.25
 -11   7  10  160.42    9.77
 -11  -7 -10  168.87    8.23
 -11   7   9   84.16    6.89
 -11  -7  -9   99.15    7.15
 -11  -7  -9   92.89    5.91
 -11  -7  -8   30.22    4.13
 -11   7   8   40.66    4.75
 -11  -7  -8   46.02    4.12
 -11  -7  -7  100.02    7.37
 -11   7   7   95.21    7.38
 -11  -7  -7  116.31    6.82
 -11  -7  -6  206.36   11.33
 -11   7   6  216.05   11.60
 -11  -7  -6  228.63   10.54
 -11   7   5  152.88    9.48
 -11  -7  -5  167.11    9.75
 -11  -7  -5  166.93    8.79
 -11   7   4   70.09    6.16
 -11  -7  -4   61.83    5.69
 -11  -7  -4   66.71    5.28
 -11   7   3  132.45    8.61
 -11  -7  -3  126.44    8.50
 -11  -7  -3  149.18    8.24
 -11   7   2  125.00    8.35
 -11  -7  -2  124.95    8.41
 -11  -7  -2  149.56    8.18
 -11   7   1   54.72    5.26
 -11  -7  -1   57.42    5.52
 -11  -7  -1   57.93    5.00
 -11   7   0    4.78    1.94
 -11  -7   0    0.45    1.80
 -11  -7   0   -0.71    1.55
 -11  -7   1   56.21    5.48
 -11   7  -1   51.68    5.09
 -11  -7   1   59.41    5.01
 -11  -7   2  125.82    8.37
 -11   7  -2  128.63    8.25
 -11  -7   3  137.69    8.96
 -11   7  -3  151.74    9.03
 -11  -7   4   77.95    6.48
 -11   7  -4   62.17    5.73
 -11  -7   4   69.61    5.43
 -11  -7   5  141.50    9.21
 -11   7  -5  152.34    9.12
 -11  -7   5  167.44    8.72
 -11   7  -6  216.48   11.43
 -11  -7   6  220.39   11.97
 -11  -7   6  246.64   11.04
 -11   7  -7  103.84    7.27
 -11  -7   7  100.19    7.56
 -11  -7   7  111.33    6.76
 -11  -7   8   41.81    4.84
 -11   7  -8   41.38    4.57
 -11  -7   8   48.90    4.32
 -11   7  -9   76.88    6.17
 -11  -7   9   93.14    7.22
 -11  -7   9   80.53    5.65
 -11  -7   9   88.55    7.01
 -11   7 -10  153.22    8.94
 -11  -7  10  148.99    9.53
 -11  -7  10  149.43    9.46
 -11  -7  10  158.20    8.10
 -11  -7  11  113.63    8.23
 -11   7 -11  109.81    7.47
 -11  -7  11  133.22    7.10
 -11  -7  11  137.71    8.90
 -11  -7  12   36.23    4.80
  11   7  12   46.94    5.05
 -11  -7  12   45.30    3.90
  11   7  12   46.07    5.15
 -11  -7  12   48.70    5.29
 -11  -7  13   15.09    3.14
  11   7  13   13.58    3.08
  11   7  13   15.91    3.19
 -11  -7  13   15.36    3.33
  11   7  14   91.84    6.77
  11   7  14   78.88    6.55
 -11  -7  14   76.63    6.65
  11   7  15   85.03    6.52
  11   7  15  100.64    7.04
 -11  -7  15   78.51    6.64
  11   7  16   39.89    4.35
  11   7  16   43.70    4.56
  11   7  17   94.07    6.57
  11   7  17  103.42    6.94
 -11  -8 -11   10.58    2.06
 -11  -8 -10   23.69    2.92
 -11  -8  -9    4.55    1.60
 -11  -8  -8   12.81    2.35
 -11  -8  -7    3.39    1.73
 -11  -8  -6    6.39    2.02
 -11  -8  -5    6.92    2.16
 -11  -8  -4   64.08    5.14
 -11  -8  -3   32.36    3.76
 -11  -8  -2    1.39    1.76
 -11  -8  -1   11.25    2.60
 -11  -8   0   22.94    3.27
 -11  -8   1   14.10    2.82
 -11  -8   4   67.78    5.30
 -11  -8   5    6.04    2.10
 -11  -8   6    4.93    2.00
 -11  -8   7    3.84    1.82
 -11  -8   8    9.60    2.17
 -11  -8   9    3.29    1.73
 -11  -8  10   25.44    3.05
 -11  -8  11   16.18    2.50
 -11  -8  11   12.53    2.92
  11   8  12   15.78    3.13
  11   8  12   16.13    3.20
 -11  -8  12   10.31    2.89
  11   8  13    5.20    2.28
  11   8  13    2.47    1.75
 -11  -8  13    1.33    1.73
  11   8  14   25.41    3.77
  11   8  14   32.64    4.10
 -11  -8  14   32.73    4.22
  11   8  15   -0.37    1.71
  11   8  15   -0.40    1.64
 -11  -8  15   -0.42    1.70
  11   8  16    7.76    2.26
  11   8  16    4.88    2.08
 -11  -9 -10  130.73    6.85
 -11  -9  -9   57.67    4.38
 -11  -9  -8    9.33    2.06
 -11  -9  -7   37.48    3.75
 -11  -9  -6   82.71    5.66
 -11  -9  -5  154.44    8.26
 -11  -9  -4  131.19    7.55
 -11  -9  -3  117.84    7.21
 -11  -9  -2  112.04    7.06
 -11  -9  -1   57.79    4.91
 -11  -9   0    5.50    2.25
 -11  -9   1   53.18    4.75
 -11  -9   4  132.61    7.67
 -11  -9   5  148.96    8.20
 -11  -9   6   82.82    5.75
 -11  -9   7   44.01    4.05
 -11  -9   8    4.14    1.73
 -11  -9   9   57.90    4.49
 -11  -9  10  136.19    7.24
  11   9  11  118.82    7.86
  11   9  11  104.73    7.62
 -11  -9  11  116.84    6.36
  11   9  12   93.04    6.79
  11   9  12   88.91    6.78
 -11  -9  12   83.40    6.49
  11   9  13  125.85    7.78
  11   9  13  119.86    7.87
 -11  -9  13  112.93    7.57
  11   9  14  109.59    7.09
  11   9  14  110.02    7.34
  11   9  15   58.61    5.05
  11   9  15   60.64    5.25
 -11 -10 -10   15.71    2.20
 -11 -10  -9    6.70    1.70
 -11 -10  -8    2.90    1.50
 -11 -10  -7    0.83    1.32
 -11 -10  -6    3.49    1.65
 -11 -10  -5    0.30    1.50
 -11 -10  -4   20.16    2.97
 -11 -10  -3    1.90    1.75
 -11 -10  -2    4.84    1.99
 -11 -10  -1   10.41    2.39
 -11 -10   0   18.95    2.93
 -11 -10   1    9.13    2.39
 -11 -10   4   16.69    2.76
 -11 -10   5    0.31    1.37
 -11 -10   6    7.19    1.99
 -11 -10   7    0.87    1.35
 -11 -10   8    2.21    1.40
 -11 -10   9    6.31    1.71
 -11 -10  10   18.25    2.48
  11  10  11   35.55    4.21
  11  10  11   39.36    4.48
  11  10  12    7.70    2.29
  11  10  12    5.85    2.26
  11  10  13   17.61    3.07
  11  10  13   17.69    2.89
 -11 -11  -8   34.98    3.30
 -11 -11  -7   52.05    4.10
 -11 -11  -6   94.39    5.76
 -11 -11  -5  201.88    9.37
 -11 -11  -4  162.12    8.24
 -11 -11  -3  319.91   13.16
 -11 -11  -2  207.68    9.80
 -11 -11  -1   27.79    3.21
 -11 -11   0   12.43    2.39
 -11 -11   1   26.93    3.26
 -11 -11   4  154.07    7.97
 -11 -11   5  195.19    9.24
 -11 -11   6  109.80    6.37
 -11 -11   7   42.07    3.72
 -11 -11   8   36.44    3.40
 -11 -12  -5   -0.25    1.24
 -11 -12  -4   12.39    2.15
 -11 -12  -3   16.72    2.43
 -11 -12  -2   14.30    2.37
 -11 -12  -1    8.73    2.05
 -11 -12   0    3.56    1.53
 -11 -12   1    8.99    2.09
 -11 -12   3   17.21    2.48
 -11 -12   4   10.62    2.08
 -11 -12   5   -0.75    1.17
 -11 -12   6    2.17    1.37
 -12   0   0   76.88    7.18
 -12   0  -1  188.77   11.55
 -12   0   1  174.82   11.12
 -12   0  -2  180.79   11.43
 -12   0   2  199.64   11.80
 -12   0   3  105.83    8.41
 -12   0  -3  138.58    9.56
 -12   0   4   10.06    2.99
 -12   0  -4    8.50    3.09
 -12   0  -5   -0.57    2.29
 -12   0   5    1.12    1.97
 -12   0   6    2.82    2.45
 -12   0  -6    1.15    2.16
 -12   0   7  151.39   10.40
 -12   0  -7  178.27   11.09
 -12   0   8  139.73   10.12
 -12   0  -8  168.70   10.75
 -12   0   9   37.00    5.12
 -12   0  10   10.25    3.25
 -12   0  11    2.85    2.15
 -12   0  12    7.99    2.95
 -12   0  13    2.82    2.69
 -12   0  14    0.56    2.17
 -12   0  15  238.38   13.20
 -12   0  16  151.70   10.01
 -12   0  17   25.67    4.12
 -12   0  18   24.39    4.09
 -12   1  18   47.62    5.38
 -12   1  17   51.20    5.55
 -12  -1  -8   20.55    3.97
 -12  -1  -7    2.85    2.29
 -12  -1  -6   89.88    7.82
 -12  -1  -5   80.98    7.39
 -12  -1  -4    3.40    2.76
 -12  -1  -3   57.01    6.10
 -12  -1  -2  121.69    9.02
 -12  -1  -1   68.64    6.64
 -12  -1   0    2.22    1.95
 -12  -1   1   65.68    6.51
 -12  -1   2   99.48    8.00
 -12  -1   3   55.60    5.98
 -12  -1   4    2.23    2.03
 -12  -1   5   74.07    7.04
 -12  -1   6   85.51    7.50
 -12  -1   7    6.22    2.92
 -12  -1   8   24.40    4.26
 -12  -1   9   94.39    7.93
 -12  -1  10  100.64    8.25
 -12  -1  11  112.13    8.75
 -12  -1  12    5.70    2.66
 -12  -1  13   13.57    3.41
 -12  -1  14   31.12    4.58
 -12  -1  15   17.98    3.82
 -12  -1  16   22.27    4.05
 -12  -1  17   47.53    5.50
 -12  -1  18   65.01    6.20
 -12   2  18   11.67    3.10
 -12   2  17   48.43    5.42
 -12   2  16  117.88    8.64
 -12   2  15   66.23    6.56
 -12   2  14   17.89    3.80
 -12   2  13   37.90    5.13
 -12   2  12   35.63    5.01
 -12   2  11   24.53    4.19
 -12   2  10   97.44    8.00
 -12  -2  -9  254.81   13.80
 -12   2   9  254.20   13.87
 -12   2   8  149.62   10.25
 -12  -2  -8  178.92   11.02
 -12   2   7   62.59    6.45
 -12  -2  -7   74.68    6.91
 -12   2   6   68.95    6.56
 -12  -2  -6   50.09    5.83
 -12   2   5   19.24    3.91
 -12  -2  -5   23.35    4.28
 -12  -2  -5   27.43    3.52
 -12  -2  -4    9.99    3.08
 -12   2   4   17.53    3.79
 -12  -2  -4   16.87    2.91
 -12   2   3   15.29    3.55
 -12  -2  -3   13.85    3.35
 -12  -2  -3   17.45    3.14
 -12  -2  -2  252.45   13.39
 -12   2   2  216.86   12.58
 -12  -2  -2  228.51   11.31
 -12  -2  -1  364.63   17.17
 -12   2   1  348.57   16.86
 -12  -2  -1  347.74   14.99
 -12   2   0  175.60   10.98
 -12  -2   0  189.41   11.36
 -12  -2   0  173.96    9.58
 -12   2  -1  357.22   17.13
 -12  -2   1  341.01   16.96
 -12  -2   1  383.28   15.56
 -12   2  -2  238.46   13.15
 -12  -2   2  236.54   13.15
 -12  -2   3   17.09    3.59
 -12   2  -3   14.26    3.53
 -12   2  -4   11.54    3.24
 -12  -2   4   15.49    3.68
 -12  -2   4   19.73    3.19
 -12  -2   5   31.64    4.64
 -12   2  -5   27.55    4.34
 -12  -2   5   18.73    3.11
 -12  -2   6   75.24    7.05
 -12   2  -6   79.48    7.17
 -12  -2   6   73.73    5.67
 -12  -2   7   61.01    6.31
 -12   2  -7   66.97    6.50
  12   2   7   61.73    5.39
  12   2   7   61.26    5.42
 -12  -2   8  141.14    9.94
 -12   2  -8  168.57   10.57
  12   2   8  136.43    8.35
  12   2   8  148.08    8.75
 -12  -2   9  220.34   13.04
  12   2   9  235.90   11.58
  12   2   9  242.21   11.89
 -12  -2  10  116.60    8.80
  12   2  10  104.00    7.03
  12   2  10  105.65    7.30
 -12  -2  11   16.93    3.64
  12   2  11   20.37    3.12
  12   2  11   17.36    3.14
 -12  -2  12   33.67    4.93
  12   2  12   31.27    3.78
  12   2  12   27.93    3.81
 -12  -2  13   32.26    4.84
  12   2  13   42.98    4.31
  12   2  13   37.91    4.26
 -12  -2  14   28.56    4.50
  12   2  14   29.48    3.75
  12   2  14   22.02    3.22
 -12  -2  15   59.07    6.16
  12   2  15   59.98    4.99
  12   2  15   59.71    5.14
 -12  -2  16  119.51    8.82
  12   2  16  126.12    7.48
 -12  -2  17   56.14    5.90
 -12  -2  18   13.74    3.05
 -12   3  17   27.33    4.10
 -12   3  16    1.98    2.15
 -12   3  15    3.58    2.28
 -12   3  14   73.90    6.71
 -12   3  13   41.79    5.44
 -12   3  12   16.78    3.57
 -12   3  11   18.49    3.78
 -12   3  10   32.62    4.68
 -12  -3 -10   36.77    4.84
 -12  -3  -9  118.73    8.77
 -12   3   9  128.54    9.11
 -12  -3  -8   48.64    5.55
 -12   3   8   49.45    5.79
 -12   3   7   48.33    5.56
 -12  -3  -7   47.73    5.72
 -12  -3  -7   50.79    4.59
 -12  -3  -6   38.07    5.03
 -12   3   6   33.47    4.81
 -12  -3  -6   36.55    3.98
 -12   3   5   93.09    7.66
 -12  -3  -5   96.47    7.93
 -12  -3  -5   93.27    6.43
 -12   3   4   76.60    6.83
 -12  -3  -4   78.78    7.04
 -12  -3  -4   70.74    5.62
 -12   3   3    8.00    2.80
 -12  -3  -3    6.99    2.73
 -12  -3  -3    5.14    2.06
 -12  -3  -2   41.35    5.13
 -12   3   2   33.99    4.72
 -12  -3  -2   28.48    3.70
 -12  -3  -1   36.96    4.87
 -12   3   1   37.58    4.78
 -12  -3  -1   39.03    4.27
 -12  -3   0   27.36    4.33
 -12   3   0   32.79    4.63
 -12  -3   0   33.10    3.88
 -12   3  -1   41.15    5.17
 -12  -3   1   35.42    4.94
 -12  -3   1   52.27    4.82
 -12   3  -2   22.20    3.82
 -12  -3   2   31.21    4.65
 -12  -3   3    3.24    2.24
 -12   3  -3    4.76    2.42
 -12  -3   4   85.17    7.23
 -12   3  -4   73.24    6.78
 -12  -3   4   74.33    5.72
 -12  -3   5  106.26    8.21
 -12   3  -5  102.84    8.03
 -12  -3   5   92.50    6.45
 -12   3  -6   27.44    4.35
 -12  -3   6   30.62    4.56
 -12  -3   6   31.76    3.72
 -12  -3   7   47.84    5.54
 -12   3  -7   43.85    5.31
 -12  -3   7   48.53    4.55
 -12   3  -8   58.95    6.00
 -12  -3   8   48.44    5.70
  12   3   8   48.43    4.89
 -12  -3   8   41.98    4.17
  12   3   8   50.90    5.13
 -12   3  -9  142.04    9.39
 -12  -3   9  135.74    9.49
  12   3   9  123.71    7.95
  12   3   9  112.57    7.81
 -12  -3  10   30.30    4.71
 -12   3 -10   34.37    4.72
  12   3  10   33.17    4.02
  12   3  10   39.68    4.57
 -12  -3  11   14.89    3.47
  12   3  11   17.70    3.18
  12   3  11   14.34    2.78
 -12  -3  12   11.53    3.13
  12   3  12    9.09    2.49
  12   3  12   12.91    2.80
 -12  -3  13   59.44    6.19
  12   3  13   56.31    5.04
  12   3  13   52.62    5.03
  12   3  14   62.98    5.26
  12   3  14   55.45    5.18
 -12  -3  15    1.56    1.89
  12   3  15    0.37    1.67
  12   3  15    0.68    1.48
 -12  -3  16    6.53    2.64
  12   3  16    4.87    1.90
  12   3  16    9.72    2.17
 -12  -3  17   28.29    4.22
 -12   4  16   59.49    5.75
 -12   4  15   68.28    6.26
 -12   4  14   49.36    5.49
 -12   4  13    6.63    2.82
 -12   4  12   -0.52    2.21
 -12  -4 -12    0.48    1.85
 -12   4  11    1.05    1.98
 -12  -4 -11    2.43    2.06
 -12   4  10  111.36    8.34
 -12  -4 -10  108.23    8.06
 -12  -4  -9   91.17    7.31
 -12   4   9   92.87    7.57
 -12  -4  -9   90.53    5.95
 -12  -4  -8   33.88    4.70
 -12   4   8   25.75    4.25
 -12  -4  -8   36.43    3.84
 -12   4   7   81.80    7.12
 -12  -4  -7   74.99    6.80
 -12  -4  -7   96.18    6.21
 -12  -4  -6   23.10    3.92
 -12   4   6   19.89    3.73
 -12  -4  -6   23.27    3.22
 -12  -4  -5    9.81    3.07
 -12   4   5   12.48    3.09
 -12  -4  -5   10.88    2.48
 -12   4   4    3.11    2.20
 -12  -4  -4    0.52    2.19
 -12  -4  -4    2.86    1.84
 -12  -4  -3  154.53   10.05
 -12   4   3  161.14   10.19
 -12  -4  -3  164.55    8.99
 -12  -4  -2  358.95   17.10
 -12   4   2  384.98   17.40
 -12  -4  -2  385.74   15.79
 -12   4   1  345.54   16.27
 -12  -4  -1  340.33   16.27
 -12  -4  -1  345.24   14.74
 -12  -4   0  155.59   10.10
 -12   4   0  161.26   10.14
 -12  -4   0  171.88    9.22
 -12  -4   1  324.79   15.76
 -12   4  -1  334.29   15.80
 -12  -4   1  323.21   14.23
 -12   4  -2  337.31   16.23
 -12  -4   2  366.39   16.83
 -12   4  -3  169.02   10.39
 -12  -4   3  170.46   10.62
 -12  -4   4    1.05    1.92
 -12   4  -4    0.50    1.84
 -12  -4   4    3.20    1.93
 -12  -4   5    8.43    2.87
 -12   4  -5   12.07    3.03
 -12  -4   5   10.17    2.38
 -12   4  -6   12.50    3.26
 -12  -4   6   13.26    3.13
 -12  -4   6   20.64    3.15
 -12  -4   7   86.05    7.34
 -12   4  -7   90.95    7.35
 -12  -4   7   98.46    6.33
 -12   4  -8   38.96    4.99
 -12  -4   8   37.25    5.06
 -12  -4   8   41.15    4.08
 -12   4  -9   83.68    7.04
 -12  -4   9   97.78    7.73
  12   4   9   92.31    6.78
 -12  -4   9   89.91    6.00
  12   4   9   95.72    7.07
 -12  -4  10  123.97    8.97
 -12   4 -10  123.37    8.49
  12   4  10  123.72    7.98
 -12  -4  10  120.02    6.95
  12   4  10  123.05    8.11
 -12  -4  11    1.06    1.79
 -12   4 -11   -0.48    1.80
  12   4  11    2.52    1.96
  12   4  11    1.98    1.89
 -12  -4  12   -2.10    2.17
 -12   4 -12   -0.47    1.99
  12   4  12   -0.41    1.60
  12   4  12    1.93    1.92
 -12  -4  13    3.10    2.53
  12   4  13    7.84    2.33
  12   4  13    7.16    2.23
 -12  -4  14   57.69    5.86
  12   4  14   58.24    5.08
  12   4  14   50.25    4.88
 -12  -4  15   46.74    5.30
  12   4  15   59.04    5.00
  12   4  15   52.47    4.88
 -12  -4  16   70.43    6.31
  12   4  16   64.44    5.13
  12   4  16   66.27    5.32
 -12  -5 -15   33.84    3.98
 -12   5  15   32.11    4.20
 -12  -5 -14   11.31    2.62
 -12   5  14    7.89    2.69
 -12   5  13   42.44    4.99
 -12  -5 -13   37.41    4.52
 -12   5  12   49.20    5.40
 -12  -5 -12   52.63    5.22
 -12   5  11   15.78    3.35
 -12  -5 -11   12.95    2.88
 -12  -5 -10   20.55    3.61
 -12   5  10   13.92    3.42
 -12  -5 -10   14.55    2.43
 -12   5   9   34.99    4.72
 -12  -5  -9   31.70    3.46
 -12   5   8  111.76    8.28
 -12  -5  -8  122.65    8.51
 -12  -5  -8  126.04    7.16
 -12  -5  -7   55.54    5.64
 -12   5   7   57.42    5.88
 -12  -5  -7   63.39    5.00
 -12   5   6   25.40    3.99
 -12  -5  -6   18.35    3.48
 -12  -5  -6   23.11    3.20
 -12  -5  -5   12.65    3.11
 -12   5   5   15.90    3.35
 -12  -5  -5   23.06    3.23
 -12  -5  -4   87.90    7.08
 -12   5   4   79.91    6.81
 -12  -5  -4   83.74    6.11
 -12  -5  -3   38.63    4.78
 -12   5   3   31.95    4.49
 -12  -5  -3   33.25    3.90
 -12   5   2   37.67    4.69
 -12  -5  -2   32.45    4.59
 -12  -5  -2   32.58    3.88
 -12  -5  -1   35.01    4.61
 -12   5   1   50.44    5.35
 -12  -5  -1   47.66    4.61
 -12  -5   0   90.37    7.31
 -12   5   0   97.23    7.51
 -12  -5   0  101.69    6.74
 -12   5  -1   33.56    4.42
 -12  -5   1   39.71    4.84
 -12  -5   1   47.96    4.60
 -12  -5   2   24.48    3.98
 -12   5  -2   23.36    3.77
 -12   5  -3   41.15    4.87
 -12  -5   3   32.06    4.53
 -12   5  -4   87.08    6.99
 -12  -5   4   87.83    7.22
 -12  -5   4   81.93    5.97
 -12   5  -5   12.65    2.95
 -12  -5   5   15.15    3.33
 -12  -5   5   19.70    3.06
 -12  -5   6   16.68    3.37
 -12   5  -6   18.12    3.39
 -12  -5   6   16.57    2.83
 -12   5  -7   63.09    5.94
 -12  -5   7   54.53    5.84
 -12  -5   7   65.62    5.12
 -12  -5   8  125.40    8.73
 -12   5  -8   99.79    7.48
 -12  -5   8  113.06    6.83
 -12   5  -9   35.77    4.49
 -12  -5   9   37.98    4.83
  12   5   9   38.72    4.48
 -12  -5   9   40.87    3.97
  12   5   9   44.61    4.89
 -12  -5  10   16.62    3.60
 -12   5 -10   12.78    2.98
  12   5  10   21.91    3.63
  12   5  10   24.50    3.80
 -12  -5  10   14.39    2.60
 -12  -5  11   19.99    3.81
 -12   5 -11   16.84    3.27
  12   5  11   19.77    3.27
  12   5  11   20.73    3.29
 -12  -5  11   19.37    2.75
 -12  -5  12   45.94    5.32
  12   5  12   52.51    4.99
  12   5  12   41.75    4.67
 -12  -5  13   39.68    4.86
 -12   5 -13   43.27    4.61
  12   5  13   35.34    4.08
  12   5  13   38.42    4.44
 -12   5 -14   10.60    2.57
 -12  -5  14   11.24    2.82
  12   5  14    4.64    1.98
  12   5  14    6.08    2.10
 -12   5 -15   29.94    3.76
 -12  -5  15   22.13    3.76
  12   5  15   27.48    3.53
  12   5  15   30.06    3.64
 -12  -6 -13   34.87    3.97
 -12  -6 -12   18.45    3.08
 -12   6  12   18.94    3.31
 -12   6  11   49.55    5.26
 -12  -6 -11   44.37    4.69
 -12   6  10  174.18   10.29
 -12  -6 -10  170.27    9.85
 -12  -6 -10  192.78    8.75
 -12  -6  -9   89.44    6.82
 -12   6   9   88.76    7.07
 -12  -6  -9   95.12    5.85
 -12   6   8   20.37    3.53
 -12  -6  -8   19.00    3.35
 -12  -6  -8   15.55    2.54
 -12  -6  -7   69.33    6.05
 -12   6   7   66.37    6.15
 -12  -6  -7   78.18    5.49
 -12  -6  -6   98.57    7.15
 -12   6   6   81.91    6.83
 -12  -6  -6   84.49    5.89
 -12   6   5   67.98    6.31
 -12  -6  -5   69.96    6.18
 -12  -6  -5   85.85    5.88
 -12  -6  -4   22.23    3.72
 -12   6   4   29.01    4.18
 -12  -6  -4   29.92    3.67
 -12   6   3  115.43    8.21
 -12  -6  -3  124.56    8.45
 -12  -6  -3  136.34    7.82
 -12   6   2  113.89    8.06
 -12  -6  -2  126.62    8.49
 -12  -6  -2  127.32    7.62
 -12   6   1   37.08    4.47
 -12  -6  -1   34.58    4.39
 -12  -6  -1   33.64    3.89
 -12   6   0   32.30    4.24
 -12  -6   0   32.96    4.40
 -12  -6   0   41.28    4.32
 -12  -6   1   34.52    4.48
 -12   6  -1   28.87    4.16
 -12  -6   1   36.16    4.06
 -12  -6   2  113.73    8.06
 -12   6  -2  112.78    7.84
 -12  -6   3  114.69    8.12
 -12   6  -3  110.08    7.74
 -12   6  -4   32.39    4.14
 -12  -6   4   24.05    4.04
 -12  -6   4   35.61    3.84
 -12  -6   5   76.91    6.63
 -12   6  -5   75.20    6.24
 -12  -6   5   78.33    5.74
 -12   6  -6   73.07    6.11
 -12  -6   6   66.13    6.27
 -12  -6   6   86.72    5.92
 -12   6  -7   72.58    6.04
 -12  -6   7   76.82    6.60
 -12  -6   7   73.61    5.41
 -12  -6   8   18.40    3.44
 -12   6  -8   15.98    2.99
 -12  -6   8   15.20    2.55
 -12   6  -9  106.82    7.34
 -12  -6   9  100.77    7.61
 -12  -6   9  107.02    6.43
 -12  -6  10  168.71   10.27
 -12   6 -10  158.47    9.42
  12   6  10  189.34   10.13
 -12  -6  10  188.32    8.89
  12   6  10  204.13   10.65
 -12  -6  11   48.21    5.21
 -12   6 -11   53.27    4.90
  12   6  11   53.12    5.08
 -12  -6  11   50.02    4.08
  12   6  11   45.59    4.87
 -12   6 -12   17.32    2.99
 -12  -6  12   10.79    2.80
  12   6  12   16.88    3.23
  12   6  12   18.97    3.21
 -12  -6  13   39.40    4.76
  12   6  13   54.30    4.90
  12   6  13   50.32    4.88
  12   6  14   38.19    4.14
  12   6  14   47.74    4.61
  12   6  15   71.99    5.40
  12   6  15   71.57    5.55
 -12  -7 -10    2.51    1.47
 -12  -7  -9   80.75    5.28
 -12  -7  -8   68.11    4.94
 -12  -7  -7   22.00    3.47
 -12  -7  -7   20.94    2.89
 -12  -7  -6    3.94    1.84
 -12  -7  -6    2.19    1.49
 -12  -7  -5   23.27    3.53
 -12  -7  -5   23.61    3.25
 -12  -7  -4   93.85    7.01
 -12  -7  -4  123.08    7.21
 -12  -7  -3   78.14    6.44
 -12  -7  -3  107.95    6.68
 -12  -7  -2    5.00    2.11
 -12   7   2    1.64    2.23
 -12  -7  -2    2.07    1.78
 -12   7   1   71.24    6.04
 -12  -7  -1   87.40    6.59
 -12  -7  -1   87.62    6.17
 -12   7   0   99.44    7.28
 -12  -7   0  112.08    7.74
 -12  -7   1   88.79    6.79
 -12  -7   1  102.83    6.56
 -12   7  -2    3.56    1.97
 -12  -7   2    4.27    2.12
 -12  -7   3   82.69    6.55
 -12   7  -3   75.66    6.00
 -12  -7   4  112.45    7.73
 -12  -7   4  110.93    6.93
 -12  -7   5   25.32    3.72
 -12  -7   5   20.42    3.00
 -12  -7   6    3.87    1.83
 -12  -7   6    4.81    1.93
 -12  -7   7   14.56    3.02
 -12  -7   7   23.89    3.11
 -12  -7   8   53.30    5.24
 -12  -7   8   62.57    4.78
 -12  -7   9   90.12    5.74
  12   7  10    1.97    1.88
 -12  -7  10    4.03    1.57
  12   7  10    2.07    2.06
  12   7  11   12.85    2.99
  12   7  11    8.00    2.42
 -12  -7  11   10.72    1.95
  12   7  12   38.08    4.27
  12   7  12   35.64    4.24
  12   7  13    9.28    2.47
  12   7  13    9.43    2.37
 -12  -8  -9   27.35    3.03
 -12  -8  -8    6.96    1.91
 -12  -8  -7   70.04    4.96
 -12  -8  -6   60.11    4.70
 -12  -8  -5   83.43    5.66
 -12  -8  -4  117.85    7.00
 -12  -8  -3   97.32    6.34
 -12  -8  -2   33.71    3.80
 -12  -8  -1    5.68    1.99
 -12  -8   0    4.67    2.01
 -12  -8   1    4.33    1.95
 -12  -8   4  127.20    7.39
 -12  -8   5   85.79    5.84
 -12  -8   6   48.36    4.32
 -12  -8   7   66.08    4.91
 -12  -8   8    7.33    1.91
 -12  -8   9   37.12    3.56
  12   8  10  107.64    7.32
 -12  -8  10  120.47    6.50
  12   8  11   42.63    4.40
  12   8  11   47.95    4.75
  12   8  12    1.46    1.55
  12   8  12    4.14    1.99
 -12  -9  -8   38.11    3.46
 -12  -9  -7   35.10    3.45
 -12  -9  -6    9.37    2.09
 -12  -9  -5   33.36    3.39
 -12  -9  -4   52.23    4.30
 -12  -9  -3    7.93    2.07
 -12  -9  -2    5.57    1.76
 -12  -9  -1  126.23    7.26
 -12  -9   0  185.79    9.25
 -12  -9   1  121.99    7.15
 -12  -9   3   13.83    2.50
 -12  -9   4   50.25    4.25
 -12  -9   5   36.50    3.56
 -12  -9   6   10.85    2.16
 -12  -9   7   44.06    3.92
 -12  -9   8   40.62    3.60
  12   9  10   14.30    2.74
  12   9  10   11.00    2.52
 -12 -10  -5   78.04    5.16
 -12 -10  -4  152.03    7.76
 -12 -10  -3  154.11    7.89
 -12 -10  -2  173.47    8.57
 -12 -10  -1   40.33    3.87
 -12 -10   0    0.29    1.51
 -12 -10   1   49.40    4.22
 -12 -10   3  157.34    8.01
 -12 -10   4  142.71    7.52
 -12 -10   5   84.95    5.41
 -12 -10   6   22.25    2.83
 -13   0   0    3.74    1.88
 -13   0   1  131.74    9.24
 -13   0  -1  146.34    9.69
 -13   0   2  139.91    9.40
 -13   0  -2  126.16    9.11
 -13   0  -3   51.12    5.70
 -13   0   3   52.83    5.80
 -13   0   4   12.26    3.09
 -13   0  -4   13.82    3.29
 -13   0  -5    1.06    2.07
 -13   0   5    3.72    2.14
 -13   0   6   61.47    6.19
 -13   0  -6   60.52    6.12
 -13   0   7  138.77    9.46
 -13   0  -7  136.60    9.32
 -13   0  -8    2.57    2.13
 -13   0   8    3.14    2.10
 -13   0  -9   41.46    5.04
 -13   0   9   36.94    4.87
 -13   0 -10   77.16    6.69
 -13   0  10   52.44    5.75
 -13   0 -11   62.28    5.96
 -13   0  11   53.90    5.76
 -13   0  12    2.98    2.11
 -13   0 -12    0.47    1.99
 -13   0  13   50.98    5.54
 -13   0 -13   64.97    5.85
 -13   0  14    8.46    2.60
 -13   0 -14   11.63    2.76
 -13   1  14   64.91    5.99
 -13  -1 -14   62.45    5.72
 -13  -1 -13    8.88    2.65
 -13   1  13   12.94    3.04
 -13  -1 -12    9.23    2.75
 -13  -1 -11   38.06    4.80
 -13  -1 -10   60.49    5.92
 -13  -1  -9   34.44    4.61
 -13  -1  -8   35.62    4.75
 -13  -1  -7   91.28    7.54
 -13  -1  -6  119.05    8.70
 -13  -1  -5    3.68    2.46
 -13  -1  -4   19.53    3.92
 -13  -1  -3   98.31    7.85
 -13  -1  -2   70.62    6.69
 -13  -1  -1   12.76    3.21
 -13  -1   0   18.59    3.51
 -13  -1   1    5.32    2.44
 -13  -1   2   62.85    6.19
 -13  -1   3   96.86    7.85
 -13  -1   4   19.64    3.87
 -13  -1   5    3.18    2.31
 -13  -1   6   92.90    7.59
 -13  -1   7   78.84    6.96
 -13  -1   8   35.97    4.89
 -13  -1   9   39.37    5.06
 -13  -1  10   61.94    6.12
 -13  -1  11   35.93    4.68
 -13  -1  12    4.47    2.37
 -13  -1  13    6.28    2.40
 -13  -1  14   58.85    5.73
 -13   2  14   43.29    4.93
 -13  -2 -14   48.05    4.91
 -13  -2 -13   89.23    6.70
 -13   2  13   75.21    6.51
 -13   2  12   16.29    3.43
 -13  -2 -12   19.07    3.30
 -13  -2 -11   44.89    5.09
 -13   2  11   48.15    5.29
 -13   2  10  117.55    8.46
 -13  -2 -10  116.06    8.22
 -13   2   9   71.09    6.60
 -13  -2  -9   75.00    6.53
 -13  -2  -8   22.68    3.78
 -13   2   8   27.90    4.22
 -13   2   7   30.67    4.42
 -13  -2  -7   30.55    4.47
 -13   2   6   93.48    7.49
 -13  -2  -6   79.51    6.98
 -13   2   5   56.70    5.85
 -13  -2  -5   40.90    5.22
 -13   2   4   17.54    3.51
 -13  -2  -4   13.87    3.35
 -13  -2  -3   73.89    6.69
 -13   2   3   65.58    6.41
 -13   2   2  112.06    8.25
 -13  -2  -2  101.80    7.98
 -13   2   1  192.33   11.34
 -13  -2  -1  191.72   11.33
 -13  -2   0  346.14   16.56
 -13   2   0  355.19   16.58
 -13  -2   1  185.60   11.13
 -13   2  -1  183.46   10.94
 -13  -2   2  131.05    8.98
 -13   2  -2  112.54    8.43
 -13   2  -3   72.12    6.58
 -13  -2   3   74.13    6.72
 -13  -2   4   24.52    3.98
 -13   2  -4   20.86    3.89
 -13   2  -5   49.18    5.39
 -13  -2   5   33.34    4.73
 -13  -2   6   96.06    7.77
 -13   2  -6  101.59    7.85
 -13  -2   7   26.87    4.24
 -13   2  -7   24.41    4.03
 -13   2  -8   23.10    3.90
 -13  -2   8   30.78    4.50
 -13  -2   9   64.50    6.24
 -13   2  -9   66.69    6.19
 -13   2 -10  141.62    9.14
 -13  -2  10  135.05    9.19
 -13   2 -11   40.86    4.85
 -13  -2  11   44.26    5.23
 -13  -2  12   16.49    3.36
 -13   2 -12   12.91    3.03
 -13   2 -13   83.13    6.46
 -13  -2  13   70.97    6.41
 -13  -2  14   48.44    5.13
 -13   2 -14   48.60    4.88
 -13   3  13   14.32    3.06
 -13  -3 -13   20.40    3.36
 -13  -3 -12   54.36    5.18
 -13   3  12   47.07    5.10
 -13   3  11   96.62    7.33
 -13  -3 -11   83.93    6.68
 -13   3  10   58.97    5.84
 -13  -3 -10   70.63    6.11
 -13  -3  -9   10.09    2.80
 -13   3   9    7.29    2.56
 -13   3   8   32.27    4.48
 -13  -3  -8   34.21    4.43
 -13   3   7    6.90    2.46
 -13  -3  -7   10.49    2.95
 -13  -3  -6   12.58    3.03
 -13   3   6    7.92    2.83
 -13  -3  -5   28.81    4.27
 -13   3   5   38.28    4.78
 -13  -3  -4   50.32    5.52
 -13   3   4   47.27    5.30
 -13   3   3   88.61    7.27
 -13  -3  -3   87.38    7.30
 -13   3   2   59.73    5.83
 -13  -3  -2   54.44    5.66
 -13   3   1   36.67    4.69
 -13  -3  -1   30.05    4.27
 -13  -3   0  135.03    9.20
 -13   3   0  137.59    9.22
 -13  -3   1   34.28    4.57
 -13   3  -1   42.31    4.90
 -13  -3   2   51.63    5.61
 -13   3  -2   46.59    5.32
 -13  -3   3   65.26    6.33
 -13   3  -3   79.00    6.64
 -13   3  -4   51.70    5.40
 -13  -3   4   43.47    5.28
 -13  -3   5   40.89    5.07
 -13   3  -5   35.06    4.58
 -13   3  -6   12.39    3.03
 -13  -3   6   14.58    3.23
 -13  -3   7   10.01    2.93
 -13   3  -7    8.00    2.56
 -13  -3   8   41.68    4.96
 -13   3  -8   33.37    4.45
 -13   3  -9   10.91    2.85
 -13  -3   9    7.89    2.64
 -13  -3  10   60.36    6.00
 -13   3 -10   69.71    6.00
 -13  -3  11   96.22    7.50
 -13   3 -11   97.74    7.15
 -13   3 -12   48.75    4.92
 -13  -3  12   50.18    5.32
 -13  -3  13   14.48    3.01
 -13   3 -13   13.56    2.80
 -13  -4 -12   16.19    2.95
 -13   4  12   19.45    3.35
 -13  -4 -11   18.02    3.09
 -13   4  11   17.76    3.33
 -13   4  10    5.43    2.38
 -13  -4 -10    4.15    2.02
 -13  -4  -9   38.85    4.58
 -13   4   9   38.28    4.66
 -13  -4  -8   71.74    6.20
 -13   4   8   72.40    6.33
 -13  -4  -7   71.79    6.26
 -13   4   7   74.88    6.44
 -13  -4  -6   49.81    5.17
 -13   4   6   52.58    5.40
 -13  -4  -5   62.09    5.83
 -13   4   5   65.59    6.12
 -13   4   4   59.09    5.77
 -13  -4  -4   57.67    5.69
 -13  -4  -4   64.05    5.11
 -13   4   3   35.32    4.58
 -13  -4  -3   42.28    4.84
 -13  -4  -3   51.86    4.58
 -13   4   2   39.05    4.78
 -13  -4  -2   47.76    5.15
 -13  -4  -2   54.67    4.78
 -13   4   1   62.38    5.89
 -13  -4  -1   71.30    6.24
 -13  -4  -1   73.29    5.61
 -13   4   0  111.02    7.99
 -13  -4   0  110.58    8.06
 -13  -4   0  121.03    7.36
 -13  -4   1   65.38    6.06
 -13   4  -1   62.93    5.86
 -13  -4   1   61.34    5.16
 -13  -4   2   50.57    5.38
 -13   4  -2   42.77    4.95
 -13   4  -3   43.38    4.88
 -13  -4   3   34.67    4.56
 -13  -4   3   34.37    3.87
 -13  -4   4   67.60    6.25
 -13   4  -4   50.18    5.30
 -13  -4   4   57.79    4.88
 -13   4  -5   61.26    5.73
 -13  -4   5   60.18    5.89
 -13  -4   5   61.26    5.04
 -13   4  -6   39.22    4.61
 -13  -4   6   42.60    4.94
  13   4   6   43.32    4.32
  13   4   6   45.55    4.55
 -13   4  -7   72.14    6.11
 -13  -4   7   64.39    6.14
  13   4   7   63.02    5.21
  13   4   7   69.62    5.53
 -13   4  -8   70.90    6.05
 -13  -4   8   54.84    5.62
  13   4   8   73.01    5.43
  13   4   8   61.46    5.18
 -13  -4   9   32.89    4.46
 -13   4  -9   42.61    4.63
  13   4   9   33.01    3.71
  13   4   9   41.19    4.17
 -13  -4  10    6.00    2.34
 -13   4 -10    8.13    2.38
  13   4  10    4.07    1.71
  13   4  10    6.01    1.85
 -13  -4  11   18.55    3.40
 -13   4 -11   22.43    3.34
 -13   4 -12   25.40    3.53
 -13  -4  12   18.43    3.39
 -13  -5 -10   56.14    5.15
 -13   5  10   57.07    5.42
 -13  -5  -9   51.04    4.91
 -13   5   9   56.42    5.37
 -13  -5  -8   41.77    4.54
 -13   5   8   33.67    4.31
 -13   5   7   25.58    3.77
 -13  -5  -7   24.11    3.54
 -13   5   6   75.97    6.48
 -13  -5  -6   81.41    6.50
 -13  -5  -5   21.24    3.56
 -13   5   5   20.99    3.45
 -13  -5  -5   20.64    2.95
 -13   5   4   38.16    4.61
 -13  -5  -4   44.41    4.85
 -13  -5  -4   43.26    4.17
 -13   5   3   27.19    4.06
 -13  -5  -3   30.92    4.14
 -13  -5  -3   27.14    3.42
 -13  -5  -2   17.20    3.39
 -13   5   2   17.91    3.41
 -13  -5  -2   14.79    2.78
 -13   5   1   56.53    5.40
 -13  -5  -1   54.77    5.51
 -13  -5  -1   62.47    5.12
 -13   5   0  118.88    8.12
 -13  -5   0  122.84    8.36
 -13  -5   0  144.42    7.91
 -13  -5   1   49.51    5.19
 -13   5  -1   48.43    5.05
 -13  -5   1   53.64    4.68
 -13   5  -2   18.65    3.36
 -13  -5   2   17.15    3.50
 -13  -5   3   21.70    3.73
 -13   5  -3   24.24    3.73
 -13  -5   3   32.14    3.58
 -13  -5   4   35.22    4.49
 -13   5  -4   38.05    4.45
 -13  -5   4   44.87    4.24
 -13   5  -5   21.59    3.37
 -13  -5   5   17.98    3.38
 -13  -5   5   21.53    3.19
 -13  -5   6   86.51    6.93
 -13   5  -6   80.91    6.34
  13   5   6   94.24    6.34
 -13  -5   6   92.34    5.97
  13   5   6   80.63    6.12
 -13   5  -7   37.95    4.29
 -13  -5   7   28.02    4.07
  13   5   7   35.82    3.92
 -13  -5   7   32.49    3.50
  13   5   7   32.23    3.81
 -13   5  -8   32.91    3.96
 -13  -5   8   45.33    4.88
  13   5   8   42.75    4.22
  13   5   8   41.85    4.29
 -13   5  -9   47.70    4.66
 -13  -5   9   50.01    5.19
  13   5   9   53.52    4.69
  13   5   9   66.05    5.21
 -13   5 -10   63.90    5.24
 -13  -5  10   50.83    5.24
 -13  -6  -7   18.48    2.88
 -13  -6  -7   21.71    2.85
 -13  -6  -6   71.82    5.73
 -13  -6  -6   70.64    5.08
 -13  -6  -5  152.83    8.91
 -13  -6  -5  168.47    8.43
 -13  -6  -4  160.60    9.34
 -13   6   4  163.77    9.43
 -13  -6  -4  186.92    8.98
 -13  -6  -3   19.36    3.15
 -13   6   3   16.98    3.24
 -13  -6  -3   21.55    3.09
 -13  -6  -2   28.86    3.85
 -13   6   2   31.93    3.98
 -13  -6  -2   36.77    3.85
 -13   6   1  155.19    9.04
 -13  -6  -1  146.65    8.92
 -13  -6  -1  171.31    8.70
 -13   6   0  334.00   14.93
 -13  -6   0  335.82   15.18
 -13  -6   0  380.16   14.82
 -13  -6   1  142.58    8.80
 -13   6  -1  149.70    8.76
 -13  -6   1  163.11    8.56
 -13   6  -2   28.13    3.67
 -13  -6   2   25.98    3.76
 -13   6  -3   20.58    3.19
 -13  -6   3   19.38    3.43
 -13  -6   3   21.36    3.03
 -13   6  -4  160.44    9.09
 -13  -6   4  162.47    9.56
 -13  -6   4  190.07    9.11
 -13   6  -5  146.76    8.52
 -13  -6   5  151.04    9.08
 -13  -6   5  170.79    8.45
 -13  -6   6   75.52    6.23
 -13  -6   6   93.36    5.88
 -13  -6   7   19.40    3.19
  13   6   7   20.78    3.10
 -13  -6   7   25.70    3.10
  13   6   7   25.07    3.35
  13   6   8   56.78    4.87
 -13  -6   8   65.77    4.74
  13   6   8   62.21    5.20
 -13  -7  -6  125.15    6.83
 -13  -7  -5  104.52    6.23
 -13  -7  -4   33.72    3.52
 -13  -7  -3   15.87    2.68
 -13  -7  -2   28.10    3.36
 -13  -7  -1   27.23    3.32
 -13  -7   0    2.49    1.69
 -13  -7   1   26.39    3.27
 -13  -7   3   13.32    2.51
 -13  -7   4   36.15    3.64
 -13  -7   5  108.65    6.41
 -13  -7   6  129.75    7.06
 -13  -7   7    3.98    1.72
 -13  -8  -4   61.94    4.58
 -13  -8  -3   41.92    3.82
 -13  -8  -2   32.58    3.39
 -13  -8  -1  109.48    6.51
 -13  -8   0  332.45   13.46
 -13  -8   1  109.93    6.53
 -13  -8   3   39.04    3.69
 -13  -8   4   67.59    4.84
 -14   0   0   24.64    3.77
 -14   0   1  122.45    8.45
 -14   0  -1  124.02    8.41
 -14   0   2   30.67    4.30
 -14   0  -2   39.12    4.69
 -14   0   3   24.12    3.91
 -14   0  -3   23.21    3.74
 -14   0   4  130.62    8.63
 -14   0  -4  122.63    8.34
 -14   0  -5   80.41    6.47
 -14   0   5   69.07    6.24
 -14   0   6    1.36    1.92
 -14   0  -6    0.87    1.80
 -14   0   7   14.77    3.04
 -14   0  -7    8.54    2.51
 -14   0  -8    2.91    1.81
 -14   0   8    7.05    2.35
 -14   0   9    0.43    1.52
 -14   0  -9    2.02    1.67
 -14  -1  -8    5.32    2.22
 -14   1   8    5.21    2.20
 -14   1   7   40.16    4.73
 -14  -1  -7   55.14    5.19
 -14   1   6   56.81    5.54
 -14  -1  -6   64.19    5.69
 -14  -1  -5   42.64    4.82
 -14   1   5   43.77    4.88
 -14  -1  -4    5.35    2.42
 -14  -1  -3   69.33    6.19
 -14  -1  -2   84.76    6.86
 -14  -1  -1   38.60    4.64
 -14  -1   0   20.74    3.66
 -14  -1   1   54.03    5.49
 -14  -1   2   77.47    6.61
 -14  -1   3   68.14    6.19
 -14  -1   4    7.33    2.57
 -14  -1   5   34.06    4.39
 -14  -1   6   62.14    5.77
 -14  -1   7   49.32    5.12
 -14   1  -8    9.02    2.59
 -14  -1   8    3.93    2.13
 -14   2   7    5.56    2.17
 -14  -2  -7    5.68    2.17
 -14  -2  -6    4.57    2.11
 -14   2   6    6.48    2.38
 -14   2   5   35.79    4.42
 -14  -2  -5   33.88    4.29
 -14   2   4   32.15    4.27
 -14  -2  -4   30.14    4.11
 -14  -2  -3   20.07    3.46
 -14   2   3   25.68    3.95
 -14  -2  -2    8.84    2.84
 -14   2   2   10.64    2.71
 -14   2   1    4.43    2.16
 -14  -2  -1    4.90    2.30
 -14   2   0    0.89    2.07
 -14  -2   0    1.34    1.95
 -14  -2   1    2.24    2.14
 -14   2  -1    3.96    2.27
 -14   2  -2   16.19    3.25
 -14  -2   2   14.82    3.15
 -14   2  -3   20.75    3.56
 -14  -2   3   18.39    3.48
 -14  -2   4   40.60    4.67
 -14   2  -4   33.74    4.26
 -14   2  -5   44.19    4.72
 -14  -2   5   43.77    4.83
 -14   2  -6    0.83    1.61
 -14  -2   6    2.63    2.00
 -14  -2   7    5.63    2.32
 -14   2  -7    4.85    2.05
 -14  -2   8    1.71    1.55
 -14  -3  -6   74.78    6.00
 -14   3   6   72.16    6.07
 -14  -3  -5   58.36    5.40
 -14   3   5   70.84    5.95
 -14  -3  -4   39.91    4.41
 -14   3   4   46.22    4.84
 -14  -3  -3   29.87    3.96
 -14   3   3   23.87    3.74
 -14  -3  -2   32.31    4.15
 -14   3   2   34.38    4.34
 -14   3   1   38.48    4.43
 -14  -3  -1   25.86    3.97
 -14  -3   0   36.62    4.45
 -14   3   0   44.70    4.82
 -14   3  -1   34.06    4.28
 -14  -3   1   31.18    4.21
 -14   3  -2   36.21    4.31
 -14  -3   2   32.54    4.21
 -14   3  -3   20.36    3.33
 -14  -3   3   26.94    3.91
 -14   3  -4   48.45    4.86
 -14  -3   4   54.00    5.34
 -14   3  -5   57.48    5.29
 -14  -3   5   58.61    5.48
 -14   3  -6   71.09    5.78
 -14  -3   6   76.60    6.19
 -14  -4  -3   20.35    3.25
 -14   4   3   23.96    3.52
 -14  -4  -2    4.29    2.01
 -14   4   2    5.81    2.20
 -14  -4  -1    6.70    2.22
 -14   4   1    9.27    2.50
 -14   4   0   -0.38    1.75
 -14  -4   0   -0.79    1.68
 -14   4  -1    3.05    2.04
 -14  -4   1    7.98    2.43
 -14   4  -2   12.84    2.77
 -14  -4   2    8.00    2.51
 -14   4  -3   19.36    3.13
 -14  -4   3   22.74    3.56
   0   0   0    0.00    0.00



TITL L-OH-bim+BDC+Zn_autored in P2(1)2(1)2(1)
REM P2(1)2(1)2(1) (#19 in standard setting)
CELL 1.34050  11.179314  15.001376  25.500767  90.0000  90.0000  90.0000
ZERR   60.00   0.000108   0.000151   0.000218   0.0000   0.0000   0.0000
LATT -1
SYMM -x+1/2,-y, z+1/2
SYMM -x, y+1/2,-z+1/2
SYMM  x+1/2,-y+1/2,-z
SFAC C H N O Zn
UNIT 60.00 60.00 60.00 60.00 60.00
REM  CrysAlisPro recorded range (K): Min=99.9; max=100.0; aver:100.0
TEMP -173
TREF
HKLF 4
END
_computing_structure_solution     'SHELXT 2014/5 (Sheldrick, 2014)'
_computing_structure_solution     'SHELXT 2018/2 (Sheldrick, 2018)'
;
_shelx_hkl_checksum              29944
_olex2_submission_special_instructions 'No special instructions were received'
_oxdiff_exptl_absorpt_empirical_details
;
Empirical correction (ABSPACK) includes:
- Absorption correction using spherical harmonics
- Frame scaling
;
_oxdiff_exptl_absorpt_empirical_full_max 1.566
_oxdiff_exptl_absorpt_empirical_full_min 0.545
loop_
_space_group_symop_operation_xyz
'x, y, z'
'-x+1/2, -y, z+1/2'
'-x, y+1/2, -z+1/2'
'x+1/2, -y+1/2, -z'
loop_
_atom_site_label
_atom_site_type_symbol
_atom_site_fract_x
_atom_site_fract_y
_atom_site_fract_z
_atom_site_U_iso_or_equiv
_atom_site_adp_type
_atom_site_occupancy
_atom_site_site_symmetry_order
_atom_site_calc_flag
_atom_site_refinement_flags_posn
_atom_site_refinement_flags_adp
_atom_site_refinement_flags_occupancy
_atom_site_disorder_assembly
_atom_site_disorder_group
Zn01 Zn 1.01136(5) 0.50068(4) 0.49751(2) 0.00859(11) Uani 1 1 d . . . . .
Zn02 Zn 0.10449(4) 0.46449(4) 0.37407(2) 0.00966(12) Uani 1 1 d . . . . .
Zn03 Zn 0.91672(4) 0.53445(4) 0.62203(2) 0.00981(12) Uani 1 1 d . . . . .
O004 O -0.0004(2) 0.54883(18) 0.41464(10) 0.0112(5) Uani 1 1 d . . . . .
O005 O 1.0205(2) 0.44936(17) 0.57947(10) 0.0103(5) Uani 1 1 d . . . . .
O006 O 0.1881(2) 0.4812(2) 0.49002(10) 0.0155(6) Uani 1 1 d . . . . .
O007 O 1.5431(3) 0.15797(19) 0.60375(10) 0.0137(6) Uani 1 1 d . . . . .
O008 O -0.4310(3) 0.87490(19) 0.47641(10) 0.0147(6) Uani 1 1 d . . . . .
O009 O 1.4565(3) 0.12456(19) 0.52698(10) 0.0149(6) Uani 1 1 d . . . . .
O00A O 0.7615(2) 0.5353(2) 0.58557(10) 0.0167(6) Uani 1 1 d . . . . .
O00B O -0.1213(3) 0.4995(2) 0.35243(11) 0.0196(6) Uani 1 1 d . . . . .
O00C O 0.8347(2) 0.52015(19) 0.50443(10) 0.0146(6) Uani 1 1 d . . . . .
O00D O -0.5186(2) 0.84463(18) 0.39946(11) 0.0141(6) Uani 1 1 d . . . . .
O00E O 1.1266(3) 0.4941(2) 0.64703(11) 0.0194(6) Uani 1 1 d . . . . .
O00F O 0.2609(2) 0.4582(2) 0.40940(11) 0.0220(7) Uani 1 1 d . . . . .
N00G N 0.8746(3) 0.5640(2) 0.69628(12) 0.0124(6) Uani 1 1 d . . . . .
O00H O 0.2086(3) 0.5919(2) 0.33158(13) 0.0230(7) Uani 1 1 d . . . . .
H00H H 0.249709 0.629781 0.347826 0.035 Uiso 1 1 calc GR . . . .
O00I O 0.8160(3) 0.4021(2) 0.66347(11) 0.0187(6) Uani 1 1 d . . . . .
H00I H 0.783753 0.368723 0.641127 0.028 Uiso 1 1 calc GR . . . .
N00J N 0.1202(3) 0.4423(2) 0.29752(13) 0.0138(7) Uani 1 1 d . . . . .
N00K N 0.7689(3) 0.5501(2) 0.76926(13) 0.0159(7) Uani 1 1 d . . . . .
H00K H 0.716091 0.529194 0.791702 0.019 Uiso 1 1 calc R . . . .
N00L N 0.2126(3) 0.4473(3) 0.22058(13) 0.0195(8) Uani 1 1 d . . . . .
H00L H 0.263126 0.464152 0.196032 0.023 Uiso 1 1 calc R . . . .
O00M O 0.7302(4) 0.2842(3) 0.59270(18) 0.0460(11) Uani 1 1 d . . . . .
H00M H 0.678806 0.244737 0.598764 0.069 Uiso 1 1 calc GR . . . .
C00N C 0.3965(3) 0.4838(3) 0.47839(15) 0.0129(8) Uani 1 1 d . . . . .
C00O C 1.2086(3) 0.3771(3) 0.59542(14) 0.0103(7) Uani 1 1 d . . . . .
C00P C 0.7513(3) 0.5224(3) 0.53679(15) 0.0111(7) Uani 1 1 d . . . . .
C00Q C 0.2032(3) 0.4821(3) 0.26867(15) 0.0143(8) Uani 1 1 d . . . . .
C00R C 0.7892(3) 0.5192(3) 0.72049(14) 0.0140(8) Uani 1 1 d . . . . .
C00S C 1.3787(4) 0.2446(3) 0.57512(15) 0.0136(8) Uani 1 1 d . . . . .
C00T C -0.3011(3) 0.6223(3) 0.37897(15) 0.0141(7) Uani 1 1 d . . . . .
H00T H -0.321309 0.575834 0.355282 0.017 Uiso 1 1 calc R . . . .
C00U C 0.4137(3) 0.5210(3) 0.52813(15) 0.0142(8) Uani 1 1 d . . . . .
H00U H 0.346781 0.537970 0.548836 0.017 Uiso 1 1 calc R . . . .
C00V C -0.1005(3) 0.5524(3) 0.38882(14) 0.0114(7) Uani 1 1 d . . . . .
C00W C 0.6264(3) 0.5094(3) 0.51656(14) 0.0125(7) Uani 1 1 d . . . . .
C00X C -0.3549(4) 0.7562(3) 0.42503(15) 0.0116(7) Uani 1 1 d . . . . .
C00Y C 0.9137(4) 0.6291(3) 0.73152(15) 0.0150(8) Uani 1 1 d . . . . .
C00Z C -0.4414(3) 0.8311(3) 0.43541(15) 0.0119(7) Uani 1 1 d . . . . .
C010 C 0.4942(3) 0.4598(3) 0.44800(14) 0.0148(8) Uani 1 1 d . . . . .
H010 H 0.482416 0.434415 0.414280 0.018 Uiso 1 1 calc R . . . .
C011 C 1.4009(3) 0.3101(3) 0.61315(15) 0.0140(8) Uani 1 1 d . . . . .
H011 H 1.474004 0.309634 0.632151 0.017 Uiso 1 1 calc R . . . .
C012 C -0.1882(3) 0.6238(3) 0.40248(14) 0.0114(7) Uani 1 1 d . . . . .
C013 C -0.1598(4) 0.6906(3) 0.43816(15) 0.0138(8) Uani 1 1 d . . . . .
H013 H -0.083867 0.691168 0.454851 0.017 Uiso 1 1 calc R . . . .
C014 C 1.1157(3) 0.4450(3) 0.60819(14) 0.0121(7) Uani 1 1 d . . . . .
C015 C 0.2716(3) 0.4735(3) 0.45789(15) 0.0127(7) Uani 1 1 d . . . . .
C016 C 0.5286(3) 0.5330(3) 0.54697(15) 0.0153(8) Uani 1 1 d . . . . .
H016 H 0.540517 0.557572 0.580911 0.018 Uiso 1 1 calc R . . . .
C017 C 0.6094(3) 0.4731(3) 0.46697(15) 0.0146(8) Uani 1 1 d . . . . .
H017 H 0.676450 0.457351 0.446046 0.018 Uiso 1 1 calc R . . . .
C018 C 0.0693(4) 0.3781(3) 0.26470(15) 0.0139(8) Uani 1 1 d . . . . .
C019 C -0.0280(4) 0.3216(3) 0.27270(16) 0.0174(8) Uani 1 1 d . . . . .
H019 H -0.069730 0.320558 0.305143 0.021 Uiso 1 1 calc R . . . .
C01A C 1.3159(3) 0.3756(3) 0.62301(16) 0.0145(7) Uani 1 1 d . . . . .
H01A H 1.331324 0.419810 0.648831 0.017 Uiso 1 1 calc R . . . .
C01B C 1.4666(3) 0.1696(3) 0.56767(15) 0.0120(7) Uani 1 1 d . . . . .
C01C C 1.2716(4) 0.2463(3) 0.54753(16) 0.0151(8) Uani 1 1 d . . . . .
H01C H 1.256457 0.202331 0.521575 0.018 Uiso 1 1 calc R . . . .
C01D C 0.2737(4) 0.5607(3) 0.28767(17) 0.0187(9) Uani 1 1 d . . . . .
H01D H 0.273083 0.607751 0.259914 0.022 Uiso 1 1 calc R . . . .
C01E C -0.2431(4) 0.7565(3) 0.44921(17) 0.0157(8) Uani 1 1 d . . . . .
H01E H -0.223788 0.802241 0.473519 0.019 Uiso 1 1 calc R . . . .
C01F C 0.8462(4) 0.6205(3) 0.77764(16) 0.0188(9) Uani 1 1 d . . . . .
C01G C 1.0038(4) 0.6928(3) 0.72705(17) 0.0216(9) Uani 1 1 d . . . . .
H01G H 1.051024 0.697610 0.696207 0.026 Uiso 1 1 calc R . . . .
C01H C 0.1284(4) 0.3797(3) 0.21639(16) 0.0189(9) Uani 1 1 d . . . . .
C01I C 0.7259(4) 0.4434(3) 0.69450(16) 0.0174(8) Uani 1 1 d . . . . .
H01I H 0.662915 0.468046 0.670702 0.021 Uiso 1 1 calc R . . . .
C01J C 0.4030(4) 0.5358(3) 0.29987(19) 0.0262(9) Uani 1 1 d . . . . .
H01B H 0.445137 0.588104 0.313687 0.039 Uiso 1 1 calc GR . . . .
H01F H 0.442584 0.515489 0.267727 0.039 Uiso 1 1 calc GR . . . .
H01H H 0.404492 0.487986 0.326017 0.039 Uiso 1 1 calc GR . . . .
C01K C -0.0612(4) 0.2673(3) 0.23158(19) 0.0260(10) Uani 1 1 d . . . . .
H01K H -0.127801 0.228626 0.235755 0.031 Uiso 1 1 calc R . . . .
C01L C -0.3833(4) 0.6884(3) 0.39011(15) 0.0143(8) Uani 1 1 d . . . . .
H01L H -0.459627 0.687516 0.373768 0.017 Uiso 1 1 calc R . . . .
C01M C 1.1868(3) 0.3113(3) 0.55736(15) 0.0139(8) Uani 1 1 d . . . . .
H01M H 1.113653 0.311533 0.538363 0.017 Uiso 1 1 calc R . . . .
C01N C 0.0960(5) 0.3239(4) 0.17510(18) 0.0307(11) Uani 1 1 d . . . . .
H01N H 0.137542 0.324564 0.142603 0.037 Uiso 1 1 calc R . . . .
O01O O 0.2948(5) 0.7275(4) 0.3842(3) 0.0772(15) Uani 1 1 d D U . . .
H01X H 0.277356 0.761084 0.358991 0.116 Uiso 1 1 calc GR . . . .
C01P C 0.6674(5) 0.3800(3) 0.73298(19) 0.0315(11) Uani 1 1 d . . . . .
H01J H 0.635551 0.328383 0.714014 0.047 Uiso 1 1 calc GR . . . .
H01O H 0.602074 0.410649 0.751175 0.047 Uiso 1 1 calc GR . . . .
H01P H 0.726842 0.359917 0.758652 0.047 Uiso 1 1 calc GR . . . .
C01Q C 0.9521(5) 0.7408(4) 0.8149(2) 0.0345(12) Uani 1 1 d . . . . .
H01Q H 0.966162 0.780768 0.843184 0.041 Uiso 1 1 calc R . . . .
C01R C 0.8639(4) 0.6771(4) 0.82025(17) 0.0282(11) Uani 1 1 d . . . . .
H01R H 0.817645 0.672024 0.851360 0.034 Uiso 1 1 calc R . . . .
C01S C 0.0008(5) 0.2676(4) 0.1838(2) 0.0349(12) Uani 1 1 d . . . . .
H01S H -0.023601 0.228047 0.156722 0.042 Uiso 1 1 calc R . . . .
C01T C 1.0216(5) 0.7488(3) 0.7696(2) 0.0317(11) Uani 1 1 d . . . . .
H01T H 1.081897 0.793294 0.767858 0.038 Uiso 1 1 calc R . . . .
C01U C 0.8369(7) 0.2448(4) 0.5806(2) 0.0478(15) Uani 1 1 d . . . . .
H01U H 0.824359 0.200268 0.552965 0.072 Uiso 1 1 calc GR . . . .
H01V H 0.869445 0.215595 0.611841 0.072 Uiso 1 1 calc GR . . . .
H01W H 0.893260 0.290131 0.568175 0.072 Uiso 1 1 calc GR . . . .
C2 C 0.2173(10) 0.7424(8) 0.4246(4) 0.114(4) Uani 1 1 d D U . . .
H2A H 0.160608 0.692726 0.426963 0.171 Uiso 1 1 calc GR . . . .
H2B H 0.173575 0.797958 0.418372 0.171 Uiso 1 1 calc GR . . . .
H2C H 0.262201 0.747053 0.457514 0.171 Uiso 1 1 calc GR . . . .
loop_
_atom_site_aniso_label
_atom_site_aniso_U_11
_atom_site_aniso_U_22
_atom_site_aniso_U_33
_atom_site_aniso_U_23
_atom_site_aniso_U_13
_atom_site_aniso_U_12
Zn01 0.0060(2) 0.0103(2) 0.0095(2) -0.00189(18) 0.00007(18) -0.00052(19)
Zn02 0.0076(2) 0.0110(3) 0.0104(2) -0.0021(2) 0.0003(2) 0.0002(2)
Zn03 0.0077(2) 0.0120(3) 0.0097(2) -0.0021(2) 0.00029(19) 0.0000(2)
O004 0.0079(12) 0.0142(14) 0.0114(11) -0.0001(10) -0.0007(9) 0.0018(10)
O005 0.0082(12) 0.0106(13) 0.0120(12) 0.0007(10) -0.0001(9) 0.0006(10)
O006 0.0069(12) 0.0253(16) 0.0144(12) 0.0009(11) 0.0009(10) -0.0007(11)
O007 0.0132(13) 0.0135(13) 0.0146(12) 0.0022(11) -0.0035(10) 0.0032(11)
O008 0.0188(14) 0.0127(13) 0.0125(13) -0.0031(11) -0.0016(11) 0.0045(11)
O009 0.0175(14) 0.0140(13) 0.0130(13) -0.0030(11) -0.0014(11) 0.0056(11)
O00A 0.0092(12) 0.0277(16) 0.0133(12) -0.0015(12) -0.0012(10) -0.0014(13)
O00B 0.0202(14) 0.0232(15) 0.0154(13) -0.0077(13) -0.0069(11) 0.0094(13)
O00C 0.0073(11) 0.0216(15) 0.0149(12) 0.0013(11) 0.0013(10) 0.0007(11)
O00D 0.0113(13) 0.0116(13) 0.0195(13) -0.0040(11) -0.0040(11) 0.0020(11)
O00E 0.0192(14) 0.0226(15) 0.0163(13) -0.0094(13) -0.0057(11) 0.0082(13)
O00F 0.0101(13) 0.043(2) 0.0133(13) -0.0040(13) -0.0005(10) -0.0004(14)
N00G 0.0120(15) 0.0128(15) 0.0123(15) -0.0018(12) -0.0002(12) -0.0008(13)
O00H 0.0196(15) 0.0171(15) 0.0323(17) -0.0076(13) 0.0058(13) -0.0024(12)
O00I 0.0218(15) 0.0164(14) 0.0181(14) -0.0054(12) 0.0016(12) -0.0002(12)
N00J 0.0127(15) 0.0151(16) 0.0136(15) 0.0001(13) 0.0005(12) 0.0016(13)
N00K 0.0140(16) 0.0207(18) 0.0130(15) 0.0024(13) 0.0043(12) 0.0039(14)
N00L 0.0183(17) 0.028(2) 0.0121(15) 0.0033(14) 0.0055(13) 0.0014(15)
O00M 0.033(2) 0.049(2) 0.056(3) -0.028(2) 0.0110(19) -0.0214(19)
C00N 0.0077(16) 0.017(2) 0.0139(17) -0.0003(14) -0.0025(13) 0.0005(14)
C00O 0.0115(17) 0.0091(17) 0.0102(16) 0.0006(14) 0.0009(14) 0.0024(14)
C00P 0.0079(16) 0.0112(18) 0.0142(16) 0.0010(14) -0.0016(13) 0.0002(14)
C00Q 0.0119(17) 0.015(2) 0.0157(17) 0.0023(15) 0.0023(14) 0.0059(15)
C00R 0.0136(17) 0.017(2) 0.0109(16) 0.0019(14) 0.0035(14) 0.0019(15)
C00S 0.0121(18) 0.0138(19) 0.0148(17) -0.0002(15) 0.0016(15) 0.0024(15)
C00T 0.0141(17) 0.0127(18) 0.0155(18) -0.0045(16) -0.0024(16) 0.0023(15)
C00U 0.0080(16) 0.020(2) 0.0150(17) 0.0018(15) 0.0010(13) 0.0000(15)
C00V 0.0103(17) 0.0116(18) 0.0124(16) 0.0026(14) 0.0001(13) 0.0010(14)
C00W 0.0065(16) 0.0160(19) 0.0151(17) 0.0036(15) -0.0006(13) -0.0014(14)
C00X 0.0139(18) 0.0089(17) 0.0119(16) 0.0004(14) 0.0031(14) 0.0016(15)
C00Y 0.0160(19) 0.018(2) 0.0112(17) -0.0032(15) -0.0002(15) 0.0002(16)
C00Z 0.0100(16) 0.0106(17) 0.0150(18) 0.0005(15) 0.0009(14) 0.0026(14)
C010 0.0076(16) 0.023(2) 0.0139(16) -0.0005(16) -0.0013(14) -0.0004(16)
C011 0.0103(17) 0.0148(18) 0.0169(18) -0.0013(15) -0.0031(14) 0.0029(15)
C012 0.0107(18) 0.0113(18) 0.0123(17) 0.0019(14) 0.0009(14) 0.0012(14)
C013 0.0117(17) 0.0140(18) 0.0156(18) -0.0011(15) -0.0014(15) 0.0015(15)
C014 0.0104(17) 0.0143(18) 0.0117(16) 0.0027(14) -0.0003(13) 0.0034(14)
C015 0.0072(16) 0.0134(18) 0.0176(17) 0.0032(15) -0.0008(13) -0.0005(14)
C016 0.0125(17) 0.0198(19) 0.0137(17) 0.0001(16) 0.0005(14) -0.0009(17)
C017 0.0071(16) 0.023(2) 0.0139(17) 0.0005(16) 0.0009(13) -0.0002(16)
C018 0.0134(18) 0.0155(19) 0.0128(17) -0.0006(15) 0.0002(14) 0.0009(15)
C019 0.0143(19) 0.019(2) 0.0190(19) -0.0047(16) -0.0001(16) 0.0007(17)
C01A 0.0156(18) 0.0123(18) 0.0154(17) -0.0033(16) -0.0015(16) 0.0023(15)
C01B 0.0103(17) 0.0105(17) 0.0150(17) 0.0005(14) -0.0001(14) 0.0002(14)
C01C 0.017(2) 0.014(2) 0.0134(18) -0.0051(14) -0.0024(15) -0.0008(16)
C01D 0.017(2) 0.0160(19) 0.023(2) 0.0022(16) 0.0082(16) -0.0007(16)
C01E 0.015(2) 0.014(2) 0.0176(19) -0.0038(15) -0.0021(15) 0.0017(16)
C01F 0.018(2) 0.024(2) 0.0143(18) -0.0042(17) 0.0009(16) 0.0036(18)
C01G 0.022(2) 0.024(2) 0.0181(19) -0.0032(17) 0.0009(17) -0.0041(19)
C01H 0.018(2) 0.024(2) 0.0146(18) -0.0016(16) 0.0024(16) 0.0020(18)
C01I 0.0172(19) 0.019(2) 0.0159(19) 0.0002(16) 0.0057(15) -0.0047(16)
C01J 0.016(2) 0.027(2) 0.035(2) -0.006(2) 0.0008(18) -0.0046(19)
C01K 0.022(2) 0.029(2) 0.027(2) -0.009(2) -0.0032(19) -0.003(2)
C01L 0.0118(17) 0.0138(18) 0.0173(18) -0.0005(15) -0.0022(14) 0.0033(15)
C01M 0.0128(18) 0.0160(19) 0.0130(17) -0.0007(15) -0.0029(15) -0.0014(15)
C01N 0.028(3) 0.047(3) 0.017(2) -0.011(2) 0.0028(19) 0.003(2)
O01O 0.050(2) 0.066(2) 0.116(3) -0.043(2) 0.007(2) -0.0135(19)
C01P 0.041(3) 0.026(2) 0.028(2) 0.001(2) 0.009(2) -0.014(2)
C01Q 0.034(3) 0.039(3) 0.031(2) -0.022(2) 0.001(2) -0.003(2)
C01R 0.029(3) 0.039(3) 0.017(2) -0.0116(19) 0.0047(18) 0.006(2)
C01S 0.030(3) 0.046(3) 0.028(2) -0.021(2) -0.002(2) -0.003(2)
C01T 0.029(3) 0.031(3) 0.035(3) -0.015(2) 0.003(2) -0.011(2)
C01U 0.063(4) 0.033(3) 0.048(3) -0.002(3) -0.006(3) 0.001(3)
C2 0.120(4) 0.113(4) 0.109(4) -0.001(3) 0.003(3) -0.011(3)
loop_
_atom_type_symbol
_atom_type_description
_atom_type_scat_dispersion_real
_atom_type_scat_dispersion_imag
_atom_type_scat_source
C C 0.0147 0.0070 'International Tables Vol C Tables 4.2.6.8 and 6.1.1.4'
H H 0.0000 0.0000 'International Tables Vol C Tables 4.2.6.8 and 6.1.1.4'
N N 0.0253 0.0135 'International Tables Vol C Tables 4.2.6.8 and 6.1.1.4'
O O 0.0412 0.0250 'International Tables Vol C Tables 4.2.6.8 and 6.1.1.4'
Zn Zn -2.8157 0.5450 'International Tables Vol C Tables 4.2.6.8 and 6.1.1.4'
loop_
_geom_angle_atom_site_label_1
_geom_angle_atom_site_label_2
_geom_angle_atom_site_label_3
_geom_angle
_geom_angle_site_symmetry_1
_geom_angle_site_symmetry_3
_geom_angle_publ_flag
O005 Zn01 O004 178.46(11) . 1_655 ?
O006 Zn01 O004 90.85(10) 1_655 1_655 ?
O006 Zn01 O005 89.66(10) 1_655 . ?
O006 Zn01 O008 81.73(12) 1_655 4_666 ?
O006 Zn01 O009 97.51(12) 1_655 4_456 ?
O008 Zn01 O004 91.74(10) 4_666 1_655 ?
O008 Zn01 O005 89.77(10) 4_666 . ?
O009 Zn01 O004 89.47(10) 4_456 1_655 ?
O009 Zn01 O005 89.03(10) 4_456 . ?
O009 Zn01 O008 178.58(13) 4_456 4_666 ?
O00C Zn01 O004 88.76(10) . 1_655 ?
O00C Zn01 O005 90.73(10) . . ?
O00C Zn01 O006 179.59(12) . 1_655 ?
O00C Zn01 O008 98.39(12) . 4_666 ?
O00C Zn01 O009 82.37(12) . 4_456 ?
O004 Zn02 O007 103.16(11) . 4_356 ?
O004 Zn02 O00H 90.78(11) . . ?
O007 Zn02 O00H 165.94(11) 4_356 . ?
O00F Zn02 O004 108.22(12) . . ?
O00F Zn02 O007 97.37(13) . 4_356 ?
O00F Zn02 O00H 79.66(13) . . ?
O00F Zn02 N00J 111.25(13) . . ?
N00J Zn02 O004 131.46(12) . . ?
N00J Zn02 O007 98.68(13) . 4_356 ?
N00J Zn02 O00H 70.10(12) . . ?
O00A Zn03 O005 104.73(11) . . ?
O00A Zn03 O00D 100.41(12) . 4_666 ?
O00A Zn03 N00G 103.77(12) . . ?
O00D Zn03 O005 102.33(11) 4_666 . ?
N00G Zn03 O005 140.97(12) . . ?
N00G Zn03 O00D 98.12(12) . 4_666 ?
Zn02 O004 Zn01 104.39(11) . 1_455 ?
C00V O004 Zn01 122.8(2) . 1_455 ?
C00V O004 Zn02 105.5(2) . . ?
Zn03 O005 Zn01 104.89(11) . . ?
C014 O005 Zn01 125.8(2) . . ?
C014 O005 Zn03 101.5(2) . . ?
C015 O006 Zn01 144.4(3) . 1_455 ?
C01B O007 Zn02 123.5(3) . 4_656 ?
C00Z O008 Zn01 135.6(3) . 4_366 ?
C01B O009 Zn01 135.8(3) . 4_556 ?
C00P O00A Zn03 122.9(2) . . ?
C00P O00C Zn01 143.1(3) . . ?
C00Z O00D Zn03 125.3(2) . 4_366 ?
C015 O00F Zn02 121.5(2) . . ?
C00R N00G Zn03 120.0(3) . . ?
C00R N00G C00Y 106.3(3) . . ?
C00Y N00G Zn03 133.7(3) . . ?
C01D O00H Zn02 109.3(2) . . ?
C00Q N00J Zn02 122.1(3) . . ?
C00Q N00J C018 105.3(3) . . ?
C018 N00J Zn02 131.9(3) . . ?
C00R N00K C01F 107.5(3) . . ?
C00Q N00L C01H 107.6(3) . . ?
C00U C00N C015 119.0(3) . . ?
C010 C00N C00U 120.1(3) . . ?
C010 C00N C015 120.8(3) . . ?
C01A C00O C014 120.1(3) . . ?
C01A C00O C01M 119.2(4) . . ?
C01M C00O C014 120.6(3) . . ?
O00A C00P C00W 116.2(3) . . ?
O00C C00P O00A 126.1(3) . . ?
O00C C00P C00W 117.7(3) . . ?
N00J C00Q N00L 112.8(4) . . ?
N00J C00Q C01D 122.9(4) . . ?
N00L C00Q C01D 124.3(4) . . ?
N00G C00R N00K 112.3(4) . . ?
N00G C00R C01I 121.5(3) . . ?
N00K C00R C01I 126.3(3) . . ?
C011 C00S C01B 119.6(4) . . ?
C01C C00S C011 119.3(4) . . ?
C01C C00S C01B 120.9(4) . . ?
C01L C00T C012 120.1(4) . . ?
C016 C00U C00N 119.6(3) . . ?
O004 C00V C012 118.5(3) . . ?
O00B C00V O004 120.9(3) . . ?
O00B C00V C012 120.6(3) . . ?
C016 C00W C00P 120.5(3) . . ?
C016 C00W C017 120.1(3) . . ?
C017 C00W C00P 119.4(3) . . ?
C01E C00X C00Z 119.7(3) . . ?
C01L C00X C00Z 120.8(4) . . ?
C01L C00X C01E 119.4(4) . . ?
N00G C00Y C01F 107.9(4) . . ?
C01G C00Y N00G 130.7(4) . . ?
C01G C00Y C01F 121.3(4) . . ?
O008 C00Z O00D 125.8(3) . . ?
O008 C00Z C00X 118.9(3) . . ?
O00D C00Z C00X 115.3(3) . . ?
C00N C010 C017 119.9(4) . . ?
C01A C011 C00S 120.0(4) . . ?
C00T C012 C00V 118.8(3) . . ?
C013 C012 C00T 119.9(4) . . ?
C013 C012 C00V 121.3(3) . . ?
C01E C013 C012 119.6(4) . . ?
O005 C014 C00O 119.0(3) . . ?
O00E C014 O005 120.2(3) . . ?
O00E C014 C00O 120.8(3) . . ?
O006 C015 O00F 126.1(3) . . ?
O006 C015 C00N 117.3(3) . . ?
O00F C015 C00N 116.6(3) . . ?
C00U C016 C00W 120.3(4) . . ?
C00W C017 C010 120.0(3) . . ?
N00J C018 C01H 108.8(4) . . ?
C019 C018 N00J 130.5(4) . . ?
C019 C018 C01H 120.6(4) . . ?
C01K C019 C018 117.3(4) . . ?
C011 C01A C00O 120.6(4) . . ?
O007 C01B C00S 116.8(3) . . ?
O009 C01B O007 126.3(4) . . ?
O009 C01B C00S 116.9(3) . . ?
C01M C01C C00S 120.8(4) . . ?
O00H C01D C00Q 104.3(3) . . ?
O00H C01D C01J 114.0(4) . . ?
C00Q C01D C01J 111.9(4) . . ?
C013 C01E C00X 120.7(4) . . ?
N00K C01F C00Y 106.0(3) . . ?
N00K C01F C01R 132.5(4) . . ?
C01R C01F C00Y 121.5(4) . . ?
C01T C01G C00Y 117.1(4) . . ?
N00L C01H C018 105.4(4) . . ?
N00L C01H C01N 132.4(4) . . ?
C01N C01H C018 122.1(4) . . ?
O00I C01I C00R 104.0(3) . . ?
O00I C01I C01P 113.1(4) . . ?
C00R C01I C01P 113.3(4) . . ?
C019 C01K C01S 121.8(5) . . ?
C00T C01L C00X 120.4(4) . . ?
C01C C01M C00O 120.0(4) . . ?
C01S C01N C01H 116.6(4) . . ?
C01R C01Q C01T 122.5(4) . . ?
C01Q C01R C01F 116.6(4) . . ?
C01N C01S C01K 121.6(4) . . ?
C01G C01T C01Q 121.0(5) . . ?
loop_
_geom_bond_atom_site_label_1
_geom_bond_atom_site_label_2
_geom_bond_distance
_geom_bond_site_symmetry_2
_geom_bond_publ_flag
Zn01 O004 2.237(3) 1_655 ?
Zn01 O005 2.230(3) . ?
Zn01 O006 2.006(3) 1_655 ?
Zn01 O008 2.084(3) 4_666 ?
Zn01 O009 2.072(3) 4_456 ?
Zn01 O00C 2.004(3) . ?
Zn02 O004 2.011(3) . ?
Zn02 O007 2.041(3) 4_356 ?
Zn02 O00F 1.970(3) . ?
Zn02 O00H 2.486(3) . ?
Zn02 N00J 1.988(3) . ?
Zn03 O005 2.038(3) . ?
Zn03 O00A 1.969(3) . ?
Zn03 O00D 2.028(3) 4_666 ?
Zn03 N00G 2.001(3) . ?
O004 C00V 1.299(4) . ?
O005 C014 1.294(4) . ?
O006 C015 1.247(5) . ?
O007 C01B 1.268(5) . ?
O008 C00Z 1.240(5) . ?
O009 C01B 1.243(5) . ?
O00A C00P 1.264(5) . ?
O00B C00V 1.243(5) . ?
O00C C00P 1.246(5) . ?
O00D C00Z 1.275(5) . ?
O00E C014 1.241(5) . ?
O00F C015 1.263(5) . ?
N00G C00R 1.321(5) . ?
N00G C00Y 1.397(5) . ?
O00H C01D 1.415(5) . ?
O00I C01I 1.423(5) . ?
N00J C00Q 1.327(5) . ?
N00J C018 1.397(5) . ?
N00K C00R 1.346(5) . ?
N00K C01F 1.381(6) . ?
N00L C00Q 1.337(5) . ?
N00L C01H 1.388(6) . ?
O00M C01U 1.366(8) . ?
C00N C00U 1.399(5) . ?
C00N C010 1.387(5) . ?
C00N C015 1.499(5) . ?
C00O C014 1.490(5) . ?
C00O C01A 1.391(5) . ?
C00O C01M 1.406(5) . ?
C00P C00W 1.501(5) . ?
C00Q C01D 1.498(6) . ?
C00R C01I 1.495(6) . ?
C00S C011 1.403(5) . ?
C00S C01B 1.506(5) . ?
C00S C01C 1.388(6) . ?
C00T C012 1.397(5) . ?
C00T C01L 1.382(5) . ?
C00U C016 1.383(5) . ?
C00V C012 1.494(5) . ?
C00W C016 1.387(5) . ?
C00W C017 1.390(5) . ?
C00X C00Z 1.506(5) . ?
C00X C01E 1.394(6) . ?
C00X C01L 1.388(5) . ?
C00Y C01F 1.403(6) . ?
C00Y C01G 1.394(6) . ?
C010 C017 1.390(5) . ?
C011 C01A 1.390(5) . ?
C012 C013 1.391(5) . ?
C013 C01E 1.386(5) . ?
C018 C019 1.394(6) . ?
C018 C01H 1.398(5) . ?
C019 C01K 1.378(6) . ?
C01C C01M 1.384(6) . ?
C01D C01J 1.525(6) . ?
C01F C01R 1.393(6) . ?
C01G C01T 1.386(6) . ?
C01H C01N 1.394(6) . ?
C01I C01P 1.515(6) . ?
C01K C01S 1.402(7) . ?
C01N C01S 1.377(8) . ?
O01O C2 1.364(3) . ?
C01Q C01R 1.380(8) . ?
C01Q C01T 1.399(7) . ?
