#------------------------------------------------------------------------------
#$Date: 2022-04-08 01:35:06 +0300 (Fri, 08 Apr 2022) $
#$Revision: 274417 $
#$URL: file:///home/coder/svn-repositories/cod/cif/7/24/47/7244727.cif $
#------------------------------------------------------------------------------
#
# This file is available in the Crystallography Open Database (COD),
# http://www.crystallography.net/
#
# All data on this site have been placed in the public domain by the
# contributors.
#
data_7244727
loop_
_publ_author_name
'Wang, Zhi-Wen'
'Zhu, Zi-Yi'
'Li, Shangda'
'Wang, Fei'
_publ_section_title
;
 Design Syntheses of Metal-Organic Layer with Rich N-sites for CO2
 Chemical Fixation
;
_journal_name_full               CrystEngComm
_journal_paper_doi               10.1039/D2CE00088A
_journal_year                    2022
_chemical_absolute_configuration rm
_chemical_formula_moiety         'C42 H32 N4 O14 Zn3, C H4 O, C H O'
_chemical_formula_sum            'C44 H37 N4 O16 Zn3'
_chemical_formula_weight         1073.88
_space_group_crystal_system      orthorhombic
_space_group_IT_number           19
_space_group_name_Hall           'P 2ac 2ab'
_space_group_name_H-M_alt        'P 21 21 21'
_atom_sites_solution_hydrogens   geom
_audit_creation_date             2021-11-24
_audit_creation_method
;
Olex2 1.2
(compiled 2018.05.29 svn.r3508 for OlexSys, GUI svn.r5506)
;
_audit_update_record
;
2021-11-24 deposited with the CCDC.	2022-04-07 downloaded from the CCDC.
;
_cell_angle_alpha                90
_cell_angle_beta                 90
_cell_angle_gamma                90
_cell_formula_units_Z            4
_cell_length_a                   11.18090(10)
_cell_length_b                   15.00360(10)
_cell_length_c                   25.50610(10)
_cell_measurement_reflns_used    27653
_cell_measurement_temperature    100.00(10)
_cell_measurement_theta_max      60.3810
_cell_measurement_theta_min      2.5440
_cell_volume                     4278.74(5)
_computing_cell_refinement       'CrysAlisPro 1.171.41.93a (Rigaku OD, 2020)'
_computing_data_collection       'CrysAlisPro 1.171.41.93a (Rigaku OD, 2020)'
_computing_data_reduction        'CrysAlisPro 1.171.41.93a (Rigaku OD, 2020)'
_computing_molecular_graphics    'Olex2 (Dolomanov et al., 2009)'
_computing_publication_material  'Olex2 (Dolomanov et al., 2009)'
_computing_structure_refinement  'ShelXL (Sheldrick, 2015)'
_computing_structure_solution    'SHELXT 2014/5 (Sheldrick, 2014)'
_diffrn_ambient_environment      N~2~
_diffrn_ambient_temperature      100.00(10)
_diffrn_detector                 'Hybrid Pixel Array Detector'
_diffrn_detector_area_resol_mean 10.0000
_diffrn_detector_type            HyPix
_diffrn_measured_fraction_theta_full 0.999
_diffrn_measured_fraction_theta_max 0.986
_diffrn_measurement_details
;
List of Runs (angles in degrees, time in seconds):

  # Type    Start    End  Width  t~exp~   \w     \q     \k     \f   Frames
#--------------------------------------------------------------------------
  1  \w    -15.00  73.00   0.50    0.05    --   -0.62  38.00  60.00  176
  2  \w    -94.00  -2.00   0.50    0.05    --  -74.78  66.00  86.00  184
  3  \w    -71.00  -1.00   0.50    0.05    --  -74.78  38.00  30.00  140
  4  \w    -17.00  72.00   0.50    0.05    --   -0.62  57.00 -90.00  178
  5  \w    -15.00  73.00   0.50    0.05    --   -0.62  38.00-180.00  176
  6  \w   -148.00 -88.00   0.50    0.05    --  -74.78 -99.00  90.00  120
  7  \w   -148.00 -81.00   0.50    0.05    --  -74.78 -85.00  76.00  134
  8  \w   -148.00 -88.00   0.50    0.05    --  -74.78 -99.00   0.00  120
  9  \w   -148.00 -88.00   0.50    0.05    --  -74.78 -99.00 -30.00  120
 10  \w   -148.00 -54.00   0.50    0.05    --  -74.78 -71.00-176.00  188
;
_diffrn_measurement_device       'four-circle diffractometer'
_diffrn_measurement_device_type  'ROD, Synergy Custom system, HyPix'
_diffrn_measurement_method       '\w scans'
_diffrn_orient_matrix_type
'CrysAlisPro convention (1999,Acta A55,543-557)'
_diffrn_orient_matrix_UB_11      -0.0861490000
_diffrn_orient_matrix_UB_12      -0.0564032000
_diffrn_orient_matrix_UB_13      -0.0151940000
_diffrn_orient_matrix_UB_21      -0.0295665000
_diffrn_orient_matrix_UB_22      0.0554241000
_diffrn_orient_matrix_UB_23      -0.0390354000
_diffrn_orient_matrix_UB_31      0.0778338000
_diffrn_orient_matrix_UB_32      -0.0413178000
_diffrn_orient_matrix_UB_33      -0.0316703000
_diffrn_radiation_monochromator  mirror
_diffrn_radiation_probe          x-ray
_diffrn_radiation_type           GaK\a
_diffrn_radiation_wavelength     1.3405
_diffrn_reflns_av_R_equivalents  0.0198
_diffrn_reflns_av_unetI/netI     0.0202
_diffrn_reflns_Laue_measured_fraction_full 0.999
_diffrn_reflns_Laue_measured_fraction_max 0.986
_diffrn_reflns_limit_h_max       13
_diffrn_reflns_limit_h_min       -14
_diffrn_reflns_limit_k_max       19
_diffrn_reflns_limit_k_min       -19
_diffrn_reflns_limit_l_max       32
_diffrn_reflns_limit_l_min       -33
_diffrn_reflns_number            30314
_diffrn_reflns_point_group_measured_fraction_full 0.984
_diffrn_reflns_point_group_measured_fraction_max 0.944
_diffrn_reflns_theta_full        53.543
_diffrn_reflns_theta_max         60.486
_diffrn_reflns_theta_min         2.971
_diffrn_source                   'micro-focus metaljet'
_exptl_absorpt_coefficient_mu    1.742
_exptl_absorpt_correction_T_max  1.00000
_exptl_absorpt_correction_T_min  0.18346
_exptl_absorpt_correction_type   multi-scan
_exptl_absorpt_process_details
;
CrysAlisPro 1.171.41.93a (Rigaku Oxford Diffraction, 2020)
Empirical absorption correction using spherical harmonics,
implemented in SCALE3 ABSPACK scaling algorithm.
;
_exptl_crystal_colour            colourless
_exptl_crystal_colour_primary    colourless
_exptl_crystal_density_diffrn    1.667
_exptl_crystal_description       block
_exptl_crystal_F_000             2188
_exptl_crystal_size_max          0.2
_exptl_crystal_size_mid          0.1
_exptl_crystal_size_min          0.1
_refine_diff_density_max         1.332
_refine_diff_density_min         -0.725
_refine_diff_density_rms         0.070
_refine_ls_abs_structure_details
;
 Flack x determined using 3683 quotients [(I+)-(I-)]/[(I+)+(I-)]
 (Parsons, Flack and Wagner, Acta Cryst. B69 (2013) 249-259).
;
_refine_ls_abs_structure_Flack   -0.004(7)
_refine_ls_extinction_method     none
_refine_ls_goodness_of_fit_ref   1.072
_refine_ls_hydrogen_treatment    constr
_refine_ls_matrix_type           full
_refine_ls_number_parameters     611
_refine_ls_number_reflns         9259
_refine_ls_number_restraints     20
_refine_ls_restrained_S_all      1.155
_refine_ls_R_factor_all          0.0325
_refine_ls_R_factor_gt           0.0311
_refine_ls_shift/su_max          0.001
_refine_ls_shift/su_mean         0.000
_refine_ls_structure_factor_coef Fsqd
_refine_ls_weighting_details
'w=1/[\s^2^(Fo^2^)+(0.0258P)^2^+6.9004P] where P=(Fo^2^+2Fc^2^)/3'
_refine_ls_weighting_scheme      calc
_refine_ls_wR_factor_gt          0.0757
_refine_ls_wR_factor_ref         0.0761
_reflns_Friedel_coverage         0.725
_reflns_Friedel_fraction_full    0.964
_reflns_Friedel_fraction_max     0.891
_reflns_number_gt                9056
_reflns_number_total             9259
_reflns_threshold_expression     'I > 2\s(I)'
_cod_data_source_file            d2ce00088a2.cif
_cod_data_source_block           d-oh-bim+bdc+zn_autored
_cod_database_code               7244727
_shelx_shelxl_version_number     2017/1
_chemical_oxdiff_formula         'Zn C H O N'
_shelx_space_group_comment
;
The symmetry employed for this shelxl refinement is uniquely defined
by the following loop, which should always be used as a source of
symmetry information in preference to the above space-group names.
They are only intended as comments.
;
_diffrn_oxdiff_digest_frames
;
01f67c29ac4000c4668d4d84c0c8a769c501536d1f5
;
_diffrn_oxdiff_digest_hkl
;
0168f3198973b1fadfcbf1205c03b66a8eca3c
;
_reflns_odcompleteness_completeness 99.86
_reflns_odcompleteness_iscentric 1
_reflns_odcompleteness_theta     56.82
_olex2_refinement_description
;
1. Fixed Uiso
 At 1.2 times of:
  All C(H) groups, All N(H) groups
 At 1.5 times of:
  All C(H,H,H) groups, All O(H) groups
2. Restrained distances
 O66-C1
 1.35 with sigma of 0.002
3. Rigid bond restraints
 C1, O66
 with sigma for 1-2 distances of 0.01 and sigma for 1-3 distances of 0.01
4. Uiso/Uaniso restraints and constraints
C1 \\sim O66: within 1.7A with sigma of 0.04 and sigma for terminal atoms of
0.08
Uanis(C1) \\sim Ueq, Uanis(O66) \\sim Ueq: with sigma of 0.001 and sigma for
terminal atoms of 0.002
5.a Ternary CH refined with riding coordinates:
 C49(H49), C61(H61)
5.b Aromatic/amide H refined with riding coordinates:
 N60(H60), N41(H41), C21(H21), C17(H17), C46(H46), C29(H29), C8(H8), C5(H5),
 C32(H32), C6(H6), C20(H20), C33(H33), C30(H30), C55(H55), C9(H9), C45(H45),
 C18(H18), C43(H43), C44(H44), C58(H58), C57(H57), C56(H56)
5.c Idealised Me refined as rotating group:
 C51(H51A,H51B,H51C), C63(H63A,H63B,H63C), C65(H65A,H65B,H65C)
5.d Idealised tetrahedral OH refined as rotating group:
 O50(H50), O62(H62), O64(H64), O66(H66)
;
_shelx_res_file
;
TITL d-oh-bim+bdc+zn_autored_a.res in P2(1)2(1)2(1)
    d-oh-bim+bdc+zn_autored.res
    created by SHELXL-2017/1 at 11:14:21 on 24-Nov-2021
REM Old TITL D-OH-bim+BDC+Zn_autored in P2(1)2(1)2(1)
REM SHELXT solution in P2(1)2(1)2(1)
REM R1 0.066, Rweak 0.016, Alpha 0.008, Orientation as input
REM Flack x = 0.099 ( 0.007 ) from Parsons' quotients
REM Formula found by SHELXT: C47 N60 O14 Zn3
CELL 1.3405 11.1809 15.0036 25.5061 90 90 90
ZERR 4 0.0001 0.0001 0.0001 0 0 0
LATT -1
SYMM 0.5-X,-Y,0.5+Z
SYMM -X,0.5+Y,0.5-Z
SYMM 0.5+X,0.5-Y,-Z
SFAC C N O Zn H
DISP C 0.0137 0.0067 57.1
DISP H 0 0 0.6
DISP N 0.0241 0.0134 109.9
DISP O 0.0389 0.0241 193.4
DISP Zn -2.7473 0.5279 4188.7
UNIT 176 16 64 12 148
DFIX 1.35 0.002 O66 C1
DELU C1 O66
SIMU 0.04 0.08 1.7 C1 O66
ISOR 0.001 0.002 C1 O66

L.S. 50
PLAN  20
TEMP -173
fmap 2
acta
REM <olex2.extras>
REM <HklSrc "%.\\D-OH-bim+BDC+Zn_autored.hkl">
REM </olex2.extras>

WGHT    0.025800    6.900400
FVAR       0.31801
ZN1   4    0.011595    0.500751    0.502550    11.00000    0.00524    0.01003 =
         0.00840    0.00186   -0.00014   -0.00064
ZN2   4    0.104668    0.464587    0.625994    11.00000    0.00709    0.01065 =
         0.00921    0.00197   -0.00047    0.00004
ZN3   4    0.916945    0.534365    0.378004    11.00000    0.00692    0.01172 =
         0.00842    0.00197   -0.00034   -0.00003
O12   3    1.020912    0.449473    0.420520    11.00000    0.00662    0.01140 =
         0.00965    0.00008   -0.00021    0.00046
O24   3   -0.000302    0.548926    0.585450    11.00000    0.00770    0.01296 =
         0.00888    0.00079    0.00032    0.00155
O36   3    0.188120    0.481648    0.509992    11.00000    0.00594    0.02347 =
         0.01402   -0.00095   -0.00066   -0.00104
O15   3    1.456608    0.124547    0.472950    11.00000    0.01684    0.01420 =
         0.01151    0.00229    0.00128    0.00590
O27   3   -0.430722    0.875073    0.523638    11.00000    0.01696    0.01220 =
         0.01171    0.00299    0.00067    0.00457
O14   3    1.543715    0.157963    0.396116    11.00000    0.01297    0.01187 =
         0.01316   -0.00078    0.00309    0.00296
O26   3   -0.518301    0.844915    0.600599    11.00000    0.01066    0.01061 =
         0.01834    0.00310    0.00456    0.00159
O23   3   -0.121280    0.499497    0.647513    11.00000    0.01707    0.02160 =
         0.01472    0.00913    0.00636    0.00912
O39   3    0.834923    0.520327    0.495588    11.00000    0.00630    0.01997 =
         0.01329   -0.00144    0.00013    0.00034
O38   3    0.761724    0.534980    0.414452    11.00000    0.00721    0.02674 =
         0.01087    0.00159    0.00128   -0.00046
O35   3    0.260840    0.458373    0.590606    11.00000    0.00722    0.04161 =
         0.01198    0.00408    0.00134   -0.00056
O11   3    1.126936    0.493914    0.352951    11.00000    0.01856    0.02210 =
         0.01439    0.00850    0.00573    0.00840
O50   3    0.208831    0.592061    0.668720    11.00000    0.01689    0.01693 =
         0.02992    0.00786   -0.00696   -0.00348
AFIX 147
H50   5    0.251204    0.628199    0.651758    11.00000   -1.50000
AFIX   0
N53   2    0.874832    0.564212    0.303867    11.00000    0.01118    0.01381 =
         0.00963    0.00133    0.00004   -0.00110
O62   3    0.816218    0.402041    0.336663    11.00000    0.02030    0.01616 =
         0.01651    0.00477   -0.00257   -0.00065
AFIX 147
H62   5    0.784198    0.366195    0.357710    11.00000   -1.50000
AFIX   0
N48   2    0.120072    0.442543    0.702737    11.00000    0.01063    0.01315 =
         0.01091   -0.00142   -0.00116   -0.00025
N60   2    0.768952    0.550274    0.230825    11.00000    0.01524    0.01916 =
         0.01110   -0.00181   -0.00409    0.00236
AFIX  43
H60   5    0.716186    0.529370    0.208372    11.00000   -1.20000
AFIX   0
N41   2    0.212358    0.447297    0.779579    11.00000    0.01747    0.02526 =
         0.01055   -0.00379   -0.00501    0.00156
AFIX  43
H41   5    0.262768    0.464092    0.804164    11.00000   -1.20000
AFIX   0
C7    1    1.378827    0.244738    0.424580    11.00000    0.01054    0.01265 =
         0.01310   -0.00093   -0.00137    0.00142
C22   1   -0.100270    0.552282    0.611263    11.00000    0.00939    0.01270 =
         0.00887   -0.00136   -0.00095    0.00253
C37   1    0.751531    0.522394    0.463262    11.00000    0.00725    0.01126 =
         0.01165   -0.00235    0.00264    0.00024
C52   1    0.789383    0.519338    0.279655    11.00000    0.01300    0.01699 =
         0.00828   -0.00173   -0.00206    0.00283

O64   3    0.729928    0.284614    0.407684    11.00000    0.03319    0.04435 =
         0.04925    0.02429   -0.00960   -0.01925
AFIX 147
H64   5    0.683677    0.246818    0.394296    11.00000   -1.50000
AFIX   0

C25   1   -0.441349    0.831334    0.564748    11.00000    0.00802    0.01159 =
         0.01189   -0.00063   -0.00047    0.00219
C21   1   -0.159908    0.690657    0.562067    11.00000    0.01085    0.01305 =
         0.01281    0.00196    0.00079    0.00159
AFIX  43
H21   5   -0.083722    0.691302    0.545581    11.00000   -1.20000
AFIX   0
C54   1    0.913369    0.629336    0.268649    11.00000    0.01589    0.01630 =
         0.00883    0.00272    0.00016    0.00152
C16   1   -0.188281    0.623651    0.597580    11.00000    0.01118    0.01082 =
         0.01001   -0.00130   -0.00089    0.00205
C4    1    1.208855    0.376830    0.404598    11.00000    0.01251    0.01074 =
         0.00834   -0.00037   -0.00137    0.00179
C28   1    0.396524    0.483827    0.521613    11.00000    0.00714    0.01612 =
         0.01287   -0.00118    0.00174   -0.00090
C40   1    0.203279    0.482283    0.731412    11.00000    0.01192    0.01289 =
         0.01312   -0.00310   -0.00100    0.00478
C31   1    0.626553    0.509636    0.483511    11.00000    0.00497    0.01642 =
         0.01408   -0.00333    0.00091   -0.00098
C10   1    1.115940    0.444951    0.391872    11.00000    0.00985    0.01244 =
         0.01030   -0.00157   -0.00050    0.00073
C17   1   -0.300761    0.622653    0.621011    11.00000    0.01419    0.01369 =
         0.01392    0.00451    0.00093    0.00251
AFIX  43
H17   5   -0.321053    0.576454    0.644877    11.00000   -1.20000
AFIX   0
C34   1    0.271652    0.473602    0.542134    11.00000    0.00730    0.01263 =
         0.01500   -0.00277    0.00097    0.00003
C13   1    1.466849    0.169753    0.432341    11.00000    0.00907    0.00947 =
         0.01345    0.00037   -0.00200   -0.00019
C46   1   -0.027940    0.321578    0.727169    11.00000    0.01429    0.01720 =
         0.01676    0.00277   -0.00042    0.00048
AFIX  43
H46   5   -0.069536    0.320583    0.694696    11.00000   -1.20000
AFIX   0
C47   1    0.069179    0.378030    0.735383    11.00000    0.01153    0.01587 =
         0.01054    0.00109    0.00123    0.00257
C29   1    0.413715    0.520872    0.471848    11.00000    0.00792    0.01774 =
         0.01426   -0.00208   -0.00160    0.00008
AFIX  43
H29   5    0.346843    0.537664    0.451101    11.00000   -1.20000
AFIX   0
C59   1    0.845932    0.620673    0.222548    11.00000    0.01615    0.02212 =
         0.01296    0.00385   -0.00095    0.00485
C8    1    1.271818    0.246076    0.452563    11.00000    0.01673    0.01201 =
         0.01231    0.00544    0.00254   -0.00089
AFIX  43
H8    5    1.256962    0.201979    0.478486    11.00000   -1.20000
AFIX   0
C19   1   -0.354640    0.756324    0.574868    11.00000    0.01310    0.00968 =
         0.01046    0.00051   -0.00322    0.00237
C5    1    1.316287    0.375748    0.376996    11.00000    0.01403    0.01260 =
         0.01329    0.00244    0.00242    0.00177
AFIX  43
H5    5    1.331656    0.420130    0.351300    11.00000   -1.20000
AFIX   0
C49   1    0.273752    0.560571    0.712559    11.00000    0.01517    0.01619 =
         0.02135   -0.00181   -0.00778   -0.00018
AFIX  13
H49   5    0.273403    0.607536    0.740378    11.00000   -1.20000
AFIX   0
C32   1    0.609777    0.473069    0.533076    11.00000    0.00663    0.01982 =
         0.01343   -0.00004   -0.00160    0.00045
AFIX  43
H32   5    0.676846    0.456969    0.553889    11.00000   -1.20000
AFIX   0
C6    1    1.401082    0.310248    0.386776    11.00000    0.01097    0.01478 =
         0.01385    0.00270    0.00267    0.00262
AFIX  43
H6    5    1.474203    0.309900    0.367807    11.00000   -1.20000
AFIX   0
C20   1   -0.242955    0.756600    0.550716    11.00000    0.01502    0.01370 =
         0.01547    0.00325    0.00071    0.00281
AFIX  43
H20   5   -0.223509    0.802206    0.526324    11.00000   -1.20000
AFIX   0
C33   1    0.494542    0.460165    0.552050    11.00000    0.00856    0.02230 =
         0.01346    0.00238    0.00029   -0.00044
AFIX  43
H33   5    0.482794    0.435135    0.585872    11.00000   -1.20000
AFIX   0
C30   1    0.528998    0.532967    0.452940    11.00000    0.01003    0.01945 =
         0.01273    0.00103    0.00002   -0.00097
AFIX  43
H30   5    0.541044    0.557297    0.418961    11.00000   -1.20000
AFIX   0
C42   1    0.128279    0.380048    0.783725    11.00000    0.01464    0.02296 =
         0.01343    0.00076   -0.00257    0.00255
C51   1    0.402777    0.535686    0.700172    11.00000    0.01470    0.02410 =
         0.03070    0.00286   -0.00318   -0.00243
AFIX 137
H51A  5    0.403958    0.488233    0.673775    11.00000   -1.50000
H51B  5    0.442346    0.514760    0.732170    11.00000   -1.50000
H51C  5    0.445035    0.588055    0.686602    11.00000   -1.50000
AFIX   0
C55   1    1.003774    0.692865    0.273003    11.00000    0.02108    0.02164 =
         0.01787    0.00455   -0.00033   -0.00416
AFIX  43
H55   5    1.051431    0.697564    0.303715    11.00000   -1.20000
AFIX   0
C9    1    1.186916    0.311297    0.442834    11.00000    0.01065    0.01602 =
         0.01133   -0.00020    0.00237   -0.00070
AFIX  43
H9    5    1.114011    0.311743    0.461960    11.00000   -1.20000
AFIX   0
C45   1   -0.061081    0.267084    0.768364    11.00000    0.01939    0.02693 =
         0.02769    0.00804    0.00228   -0.00221
AFIX  43
H45   5   -0.127474    0.228220    0.764171    11.00000   -1.20000
AFIX   0
C61   1    0.726127    0.443192    0.305439    11.00000    0.01622    0.01906 =
         0.01460    0.00005   -0.00480   -0.00447
AFIX  13
H61   5    0.663031    0.467687    0.329199    11.00000   -1.20000
AFIX   0
C18   1   -0.382962    0.688679    0.609646    11.00000    0.01015    0.01504 =
         0.01554    0.00032    0.00222    0.00293
AFIX  43
H18   5   -0.459487    0.687645    0.625819    11.00000   -1.20000
AFIX   0
C43   1    0.096054    0.323854    0.824790    11.00000    0.02602    0.04784 =
         0.01505    0.01145   -0.00272    0.00277
AFIX  43
H43   5    0.137773    0.324186    0.857236    11.00000   -1.20000
AFIX   0
C44   1    0.000503    0.267668    0.815996    11.00000    0.03060    0.04318 =
         0.02564    0.02160    0.00179   -0.00170
AFIX  43
H44   5   -0.024097    0.228278    0.843091    11.00000   -1.20000
AFIX   0
C58   1    0.863612    0.677195    0.179809    11.00000    0.02702    0.03489 =
         0.01529    0.01118   -0.00387    0.00362
AFIX  43
H58   5    0.817305    0.671927    0.148734    11.00000   -1.20000
AFIX   0
C57   1    0.951656    0.741159    0.184852    11.00000    0.03338    0.03862 =
         0.02846    0.02203   -0.00161   -0.00269
AFIX  43
H57   5    0.965723    0.781103    0.156618    11.00000   -1.20000
AFIX   0
C63   1    0.667697    0.379801    0.266939    11.00000    0.03938    0.02568 =
         0.02616   -0.00064   -0.00991   -0.01440
AFIX 137
H63A  5    0.727283    0.359330    0.241464    11.00000   -1.50000
H63B  5    0.602834    0.410631    0.248530    11.00000   -1.50000
H63C  5    0.635182    0.328441    0.285922    11.00000   -1.50000
AFIX   0
C56   1    1.020902    0.748824    0.230477    11.00000    0.02730    0.02899 =
         0.03392    0.01351   -0.00069   -0.00746
AFIX  43
H56   5    1.081005    0.793477    0.232255    11.00000   -1.20000
AFIX   0

C65   1    0.836739    0.244906    0.419563    11.00000    0.05974    0.03728 =
         0.04294    0.00242    0.00506   -0.00010
AFIX 137
H65A  5    0.867751    0.214321    0.388454    11.00000   -1.50000
H65B  5    0.824853    0.201584    0.447842    11.00000   -1.50000
H65C  5    0.894100    0.290379    0.430899    11.00000   -1.50000
AFIX   0

O66   3    0.292285    0.729265    0.616647    11.00000    0.04188    0.06371 =
         0.12058    0.04587   -0.00832   -0.01350
AFIX 147
H66   5    0.353213    0.701690    0.606247    11.00000   -1.50000
AFIX   0
C1    1    0.217891    0.743008    0.575973    11.00000    0.11350    0.10671 =
         0.10000    0.00271   -0.00531   -0.01420
HKLF 4




REM  d-oh-bim+bdc+zn_autored_a.res in P2(1)2(1)2(1)
REM R1 =  0.0311 for    9056 Fo > 4sig(Fo)  and  0.0325 for all    9259 data
REM    611 parameters refined using     20 restraints

END

WGHT      0.0249      7.0002

REM Highest difference peak  1.332,  deepest hole -0.725,  1-sigma level  0.070
Q1    1   0.3027  0.7054  0.5910  11.00000  0.05    1.33
Q2    1   0.2864  0.7149  0.5816  11.00000  0.05    1.23
Q3    1   0.2818  0.7399  0.6313  11.00000  0.05    0.83
Q4    1   0.1936  0.7581  0.5835  11.00000  0.05    0.78
Q5    1   0.7508  0.2492  0.3817  11.00000  0.05    0.55
Q6    1   0.0941  0.3784  0.7601  11.00000  0.05    0.33
Q7    1   0.6880  0.5175  0.4728  11.00000  0.05    0.32
Q8    1  -0.1971  0.7379  0.5714  11.00000  0.05    0.31
Q9    1   0.7030  0.2012  0.3421  11.00000  0.05    0.31
Q10   1   0.1136  0.4423  0.6711  11.00000  0.05    0.31
Q11   1   0.3313  0.4788  0.5297  11.00000  0.05    0.30
Q12   1  -0.1481  0.5880  0.6048  11.00000  0.05    0.30
Q13   1   0.1657  0.6826  0.5792  11.00000  0.05    0.30
Q14   1   1.4102  0.2023  0.4280  11.00000  0.05    0.29
Q15   1   0.2529  0.4181  0.5813  11.00000  0.05    0.28
Q16   1   0.9012  0.5577  0.3309  11.00000  0.05    0.28
Q17   1  -0.0380  0.2770  0.7927  11.00000  0.05    0.27
Q18   1  -0.3704  0.7127  0.5822  11.00000  0.05    0.27
Q19   1   0.1779  0.7870  0.6207  11.00000  0.05    0.26
Q20   1   0.5750  0.5326  0.4722  11.00000  0.05    0.26
;
_shelx_res_checksum              90853
_shelx_hkl_file
;
   0   0   3    0.51    0.16
   0   0   3    0.77    0.22
   0   0   4  217.14    3.28
   0   0   4  226.19    3.63
   0   0   5    8.92    0.54
   0   0   5    1.33    0.34
   0   0   6 2558.11   29.70
   0   0   6 2511.37   30.29
   0   0  -6 2598.30   30.32
   0   0   7    1.05    0.33
   0   0  -7    0.75    0.37
   0   0   7    1.45    0.41
   0   0   8 4743.78   54.45
   0   0  -8 4813.15   55.30
   0   0   8 4680.20   55.25
   0   0   9    0.94    0.39
   0   0   9    0.13    0.38
   0   0  10 4015.01   46.46
   0   0 -10 4037.90   47.57
   0   0  11    1.45    0.43
   0   0 -11    0.22    0.54
   0   0 -11    1.83    0.58
   0   0  12  265.03    5.29
   0   0 -12  263.90    6.67
   0   0 -12  274.76    6.10
   0   0 -12  269.51    6.48
   0   0 -13    0.81    0.66
   0   0 -13    0.91    0.56
   0   0 -13    0.33    0.60
   0   0  14  161.76    4.16
   0   0 -14  155.56    5.43
   0   0 -14  165.03    4.91
   0   0 -14  159.51    5.26
   0   0  15    1.23    0.53
   0   0 -15    1.43    0.83
   0   0 -15    0.59    0.50
   0   0 -15    0.60    0.76
   0   0 -16  566.66   12.35
   0   0 -16  552.53   11.08
   0   0 -16  558.40   11.80
   0   0 -17    0.53    0.91
   0   0 -17    0.24    0.84
   0   0 -18 1096.98   20.27
   0   0 -18 1121.17   19.87
   0   0 -19    1.39    1.14
   0   0 -19    0.56    0.95
   0   0 -20  928.32   18.88
   0   0 -20  895.21   18.14
   0   0 -21   -0.36    1.10
   0   0 -21    0.97    1.08
   0   0 -22  588.81   15.13
   0   0 -22  595.97   14.65
   0   0 -23    2.39    1.40
   0   0 -23    2.00    1.34
   0   0 -24  482.54   13.95
   0   0 -24  478.01   13.42
   0   0 -25    4.54    1.76
   0   0 -26  835.26   19.16
   0   0 -27    2.23    1.55
   0   0 -28  387.27   12.09
   0   0 -29    1.16    1.47
   0   0 -30   29.39    3.21
   0   0 -31   -0.17    1.40
   0   0 -32  263.34    8.77
   0   0 -33    0.55    1.25
   0   1   0    1.08    0.12
   0   1  -1    1.87    0.20
   0  -1   1    1.67    0.20
   0   1   1    1.44    0.21
   0  -1   2   13.62    0.60
   0   1   2   13.46    0.59
   0  -1   3    6.09    0.47
   0   1   3    7.22    0.49
   0   1   4    0.53    0.12
   0  -1   4    0.64    0.29
   0   1   4    0.92    0.29
   0   1   5    4.46    0.30
   0  -1   5    4.22    0.49
   0   1   5    5.28    0.57
   0   1   6   15.86    0.62
   0  -1   6   16.25    0.92
   0   1  -6   17.24    1.02
   0  -1  -6   16.61    0.99
   0   1   6   16.06    0.99
   0   1   7    6.45    0.46
   0  -1   7    8.51    0.74
   0   1   7    8.12    0.77
   0  -1  -7    7.81    0.74
   0   1  -7    7.67    0.78
   0  -1   8   20.05    1.17
   0   1   8   17.88    0.80
   0   1   8   17.73    1.18
   0   1  -8   18.94    1.22
   0  -1  -8   20.50    1.23
   0  -1   9    1.42    0.48
   0   1   9    1.40    0.32
   0  -1  -9    1.34    0.59
   0   1   9    2.80    0.61
   0  -1  -9    1.09    0.45
   0   1  -9    1.05    0.46
   0  -1  10  152.34    3.73
   0   1  10  148.13    2.98
   0  -1 -10  143.08    4.13
   0   1  10  149.55    4.00
   0   1 -10  150.21    4.00
   0  -1 -10  145.83    3.91
   0   1 -10  139.06    4.27
   0  -1 -10  149.42    4.40
   0   1  11    6.07    0.59
   0  -1  11    4.62    0.71
   0   1  11    4.98    0.85
   0  -1 -11    5.10    0.79
   0  -1 -11    5.25    0.95
   0   1 -11    6.07    0.89
   0  -1 -11    4.00    0.89
   0   1 -11    4.40    0.90
   0   1 -11    5.58    0.94
   0   1  12    3.05    0.48
   0  -1  12    1.77    0.54
   0  -1 -12    2.69    0.76
   0   1  12    3.47    0.76
   0  -1 -12    2.67    0.69
   0   1 -12    2.44    0.66
   0   1 -12    1.49    0.73
   0  -1 -12    1.32    0.73
   0   1 -12    2.65    0.80
   0  -1  13   17.59    1.76
   0   1  13   14.25    0.96
   0  -1  13   13.96    1.22
   0  -1 -13   14.33    1.37
   0   1 -13   15.89    1.46
   0  -1 -13   12.24    1.43
   0   1  13   10.50    1.25
   0   1 -13   12.43    1.52
   0  -1 -13   13.72    1.56
   0   1 -13   14.34    1.50
   0   1  14   30.67    1.46
   0  -1  14   26.70    2.23
   0  -1  14   27.35    1.74
   0   1 -14   25.40    1.90
   0  -1 -14   25.99    2.10
   0   1  14   24.82    1.86
   0  -1 -14   26.29    1.89
   0   1 -14   27.84    2.27
   0  -1 -14   27.68    2.25
   0   1 -14   25.63    2.05
   0   1  15   42.37    1.79
   0  -1  15   42.91    2.94
   0  -1  15   41.90    2.26
   0   1 -15   44.45    2.99
   0  -1 -15   42.47    2.91
   0  -1 -15   49.45    2.98
   0   1 -15   44.60    2.62
   0  -1 -15   39.66    2.44
   0  -1  16   21.69    1.71
   0   1 -16   21.47    2.23
   0  -1 -16   22.10    2.25
   0   1 -16   21.40    2.07
   0   1 -16   18.76    1.80
   0  -1 -16   21.86    1.89
   0  -1 -16   22.52    2.16
   0   1 -17    7.36    1.51
   0  -1 -17    8.10    1.61
   0   1 -17    7.20    1.47
   0  -1 -17    7.93    1.45
   0  -1 -18   34.59    3.01
   0   1 -18   37.29    3.14
   0  -1 -18   34.19    2.91
   0   1 -18   37.63    3.01
   0  -1 -19   24.39    2.64
   0   1 -19   19.40    2.43
   0   1 -19   22.51    2.49
   0  -1 -19   21.96    2.47
   0  -1 -20   16.83    2.41
   0   1 -20   21.40    2.60
   0   1 -20   24.73    2.63
   0  -1 -20   17.66    2.31
   0  -1 -21   47.62    3.88
   0   1 -21   44.08    3.85
   0  -1 -21   54.51    4.00
   0   1 -21   51.96    3.94
   0   1 -22   93.59    5.64
   0   1 -22   86.11    5.17
   0  -1 -22   86.15    5.12
   0   1 -23    2.03    1.38
   0  -1 -23    2.17    1.38
   0   1 -23    2.58    1.38
   0   1 -24  154.77    7.62
   0   1 -24  162.00    7.55
   0  -1 -24  159.20    7.41
   0   1 -25   12.19    2.52
   0  -1 -25   13.07    2.31
   0   1 -25   14.94    2.49
   0  -1 -26   89.82    5.63
   0   1 -26   88.41    5.66
   0   1 -27    1.02    1.41
   0  -1 -27    1.00    1.57
   0  -1 -28   78.84    5.27
   0   1 -28   78.53    5.35
   0  -1 -29    2.10    1.45
   0   1 -29    1.37    1.46
   0  -1 -30   41.86    3.71
   0   1 -30   44.19    3.88
   0  -1 -31    3.39    1.63
   0   1 -31    1.37    1.47
   0  -1 -32   64.23    4.16
   0   1 -32   60.10    4.04
   0  -1 -33    4.92    1.49
   0   1 -33    5.39    1.48
   0  -2  -1 1567.84   18.32
   0   2  -1 1581.73   18.55
   0  -2  -1 1624.22   18.40
   0  -2  -2 2123.77   24.00
   0  -2   2 2101.10   24.90
   0   2  -2 2123.42   24.72
   0   2   2 2125.20   24.99
   0  -2   3  561.32    7.91
   0   2   3  576.81    7.93
   0  -2   4  631.66    8.91
   0   2   4  637.78    8.83
   0  -2   5 2873.02   34.07
   0   2   5 2883.49   34.00
   0   2   6 6556.21   74.90
   0  -2   7  205.35    4.33
   0   2  -7  196.80    4.30
   0  -2  -7  204.82    4.31
   0   2   7  203.37    4.33
   0   2  -8 9999.00  113.76
   0   2   9  799.02    9.63
   0  -2   9  827.33   12.24
   0  -2  -9  800.83   12.80
   0   2  -9  849.65   13.21
   0  -2  -9  824.05   12.51
   0   2  -9  864.74   12.48
   0  -2  -9  839.61   12.23
   0   2   9  805.16   12.25
   0  -2  10 1757.54   24.56
   0  -2  10 1821.16   23.75
   0   2  10 1798.61   20.91
   0   2  10 1845.41   24.05
   0   2 -10 1894.72   24.22
   0  -2 -10 1843.61   23.90
   0  -2 -10 1871.57   24.38
   0  -2 -10 1767.90   24.66
   0   2 -10 1821.27   24.76
   0  -2  11 1417.11   18.95
   0   2  11 1353.61   15.92
   0  -2  11 1387.67   20.01
   0  -2 -11 1308.75   18.78
   0  -2 -11 1335.77   19.40
   0   2 -11 1368.09   19.20
   0   2  11 1333.55   19.05
   0  -2 -11 1319.92   19.74
   0   2 -11 1295.65   19.73
   0   2 -11 1356.32   19.41
   0  -2  12  599.08   10.38
   0  -2  12  632.27   11.50
   0   2  12  586.42    7.66
   0   2 -12  607.31   10.66
   0  -2 -12  591.12   10.86
   0  -2 -12  592.45   10.40
   0   2  12  589.63   10.56
   0  -2 -12  590.69   11.26
   0   2 -12  565.51   11.15
   0   2 -12  606.74   10.93
   0  -2  13  126.81    4.69
   0   2  13  118.89    2.28
   0  -2  13  121.31    3.96
   0   2  13  119.49    4.14
   0   2 -13  115.63    4.10
   0  -2 -13  120.89    4.37
   0  -2 -13  128.23    4.17
   0   2 -13  124.44    4.69
   0  -2 -13  119.36    4.54
   0   2 -13  124.97    4.38
   0  -2  14 1294.03   20.26
   0   2  14 1199.00   14.72
   0  -2  14 1260.38   18.37
   0  -2 -14 1230.54   18.60
   0   2  14 1211.22   18.81
   0  -2 -14 1247.52   19.39
   0   2 -14 1274.25   19.00
   0  -2 -14 1252.39   19.94
   0   2 -14 1233.64   20.06
   0   2 -14 1209.05   19.24
   0  -2  15   22.81    1.83
   0  -2 -15   18.42    1.91
   0   2  15   20.89    1.87
   0  -2 -15   20.97    1.84
   0   2 -15   23.65    1.96
   0  -2 -15   19.60    2.07
   0   2 -15   20.28    2.09
   0   2 -15   23.82    2.08
   0  -2  16  477.21    9.82
   0   2 -16  483.97   10.37
   0   2  16  475.01   10.24
   0  -2 -16  502.83   10.96
   0  -2 -16  460.40   10.02
   0   2 -16  479.64   11.40
   0  -2 -16  475.16   11.15
   0   2 -16  471.95   10.56
   0  -2  17   78.16    3.57
   0   2 -17   73.26    4.26
   0  -2 -17   72.87    4.11
   0  -2 -17   77.19    4.06
   0   2 -18   15.60    2.17
   0  -2 -18   14.48    1.96
   0   2 -19  236.49    8.40
   0   2 -19  227.94    7.94
   0  -2 -19  221.45    7.66
   0   2 -20    0.87    1.05
   0   2 -20    2.06    1.25
   0  -2 -20    1.50    1.12
   0   2 -21  444.60   12.71
   0   2 -21  435.76   12.16
   0  -2 -21  448.97   12.05
   0   2 -22  135.98    6.91
   0  -2 -22  131.93    6.37
   0   2 -22  135.30    6.60
   0   2 -23   31.93    3.49
   0   2 -23   27.28    3.21
   0  -2 -23   29.83    3.23
   0   2 -24 2226.37   37.54
   0   2 -24 2289.99   37.00
   0  -2 -24 2242.66   36.21
   0   2 -25   30.09    3.56
   0   2 -25   33.79    3.65
   0  -2 -25   30.29    3.32
   0   2 -26  357.67   12.27
   0  -2 -26  402.41   12.23
   0   2 -26  380.27   12.28
   0   2 -27   -0.67    1.40
   0   2 -27    1.03    1.49
   0  -2 -27    1.18    1.51
   0  -2 -28  185.25    8.11
   0   2 -28  186.64    8.26
   0  -2 -29   56.92    4.40
   0   2 -29   56.43    4.46
   0   2 -30    6.87    1.96
   0  -2 -30    4.28    1.70
   0  -2 -31   14.39    2.31
   0   2 -31   12.01    2.28
   0  -2 -32  415.61   11.24
   0   2 -32  430.91   11.49
   0  -3   0    1.24    0.27
   0   3   0    0.69    0.27
   0  -3   0    0.81    0.30
   0   3   1    5.17    0.43
   0  -3  -1    4.86    0.45
   0   3  -1    5.17    0.50
   0  -3  -1    5.74    0.44
   0  -3  -2   44.45    1.20
   0   3  -2   44.47    1.41
   0   3   2   42.86    1.22
   0  -3   2   45.07    1.39
   0   3   2   41.99    1.60
   0  -3   3    0.61    0.32
   0   3  -3    0.82    0.39
   0   3   3    0.52    0.27
   0  -3  -3    1.26    0.24
   0  -3   3    0.59    0.38
   0   3   3    1.39    0.46
   0  -3   4   52.14    1.75
   0  -3   4   48.33    1.82
   0  -3  -4   47.39    0.95
   0   3   4   47.18    1.81
   0  -3   5   52.95    1.92
   0  -3   5   51.35    2.00
   0   3   5   52.34    1.96
   0  -3   6  112.04    3.09
   0   3   6  115.45    3.14
   0  -3  -6  117.04    3.13
   0  -3   7   56.14    2.24
   0  -3   7   51.27    2.16
   0   3   7   52.78    2.14
   0  -3  -7   56.53    2.21
   0  -3   8   10.56    1.04
   0  -3  -8    9.95    1.01
   0  -3  -8   12.13    1.11
   0   3   8   11.09    1.06
   0  -3   9   73.53    2.84
   0   3  -9   68.44    2.73
   0  -3  -9   79.27    2.89
   0  -3  -9   83.23    3.02
   0   3   9   78.22    2.88
   0  -3  10  136.64    4.07
   0  -3 -10  129.20    4.08
   0   3  10  134.03    4.04
   0   3 -10  139.30    4.14
   0  -3 -10  132.55    4.01
   0   3 -10  128.59    4.81
   0   3 -10  129.04    4.03
   0  -3  11  258.41    6.17
   0   3 -11  275.56    6.40
   0   3  11  270.77    6.33
   0  -3 -11  271.01    6.25
   0  -3 -11  263.15    6.38
   0   3 -11  264.46    6.97
   0   3 -11  268.75    6.44
   0  -3  12   31.73    2.06
   0   3 -12   36.93    2.25
   0  -3 -12   35.92    2.29
   0  -3 -12   34.94    2.13
   0   3  12   36.61    2.23
   0   3 -12   33.51    2.40
   0   3 -12   35.00    2.26
   0  -3  13   64.88    3.02
   0  -3 -13   65.97    3.07
   0  -3 -13   63.65    3.18
   0   3  13   66.15    3.12
   0   3 -13   66.26    3.14
   0   3 -13   63.09    3.40
   0   3 -13   65.66    3.21
   0  -3  14  123.90    4.43
   0   3  14  120.40    4.53
   0  -3 -14  126.03    4.72
   0  -3 -14  126.56    4.48
   0   3 -14  125.33    4.59
   0   3 -14  120.30    4.95
   0   3 -14  128.85    4.74
   0  -3  15    1.75    0.68
   0  -3 -15    1.36    0.87
   0   3 -15    1.79    0.78
   0  -3 -15    0.09    0.59
   0   3  15   -0.10    0.54
   0   3 -15    0.36    0.84
   0   3 -15    0.61    0.78
   0  -3  16   44.58    2.82
   0  -3 -16   44.28    3.03
   0   3 -16   45.54    3.30
   0   3 -16   45.36    2.98
   0  -3 -17   28.80    2.55
   0   3 -17   27.35    2.70
   0   3 -17   28.98    2.50
   0  -3 -18   12.01    1.91
   0   3 -18   10.14    1.87
   0   3 -18   13.70    1.88
   0   3 -19  105.95    5.66
   0  -3 -19  112.41    5.37
   0   3 -20    9.02    1.92
   0  -3 -20   12.14    2.03
   0   3 -20   13.13    2.18
   0   3 -21   56.43    4.37
   0   3 -21   45.90    3.83
   0  -3 -21   53.60    3.95
   0   3 -22  117.70    6.46
   0   3 -22  104.36    5.91
   0  -3 -22  113.61    5.88
   0   3 -23   31.76    3.58
   0  -3 -23   26.53    3.01
   0   3 -23   26.36    3.18
   0   3 -24  225.53    9.48
   0   3 -24  221.55    9.07
   0  -3 -24  233.08    8.90
   0   3 -25    1.35    1.42
   0   3 -25    1.03    1.68
   0  -3 -25    1.72    1.60
   0   3 -26  224.19    9.58
   0  -3 -26  224.10    8.91
   0   3 -26  222.57    9.26
   0   3 -27   51.78    4.68
   0   3 -27   57.35    4.67
   0  -3 -27   58.79    4.55
   0   3 -28   44.34    4.22
   0   3 -28   42.18    4.01
   0  -3 -28   43.52    3.97
   0  -3 -29   27.77    3.11
   0   3 -29   22.62    3.01
   0  -3 -30    2.43    1.44
   0   3 -30    1.84    1.58
   0   3 -31   58.55    4.28
   0  -3 -31   56.25    4.09
   0   3 -32   30.01    3.04
   0  -3 -32   27.29    2.88
   0  -4   1  234.58    4.45
   0   4   1  234.46    3.86
   0  -4  -1  226.88    3.82
   0   4  -1  228.01    4.03
   0  -4  -1  226.75    4.12
   0  -4   1  232.30    4.01
   0  -4  -2 6104.31   69.11
   0   4   3 2026.27   25.51
   0   4  -3 2062.45   24.88
   0  -4  -3 2058.62   23.95
   0  -4   3 2051.08   24.72
   0   4   3 1988.13   24.19
   0   4   4  138.88    3.64
   0  -4  -4  140.84    2.51
   0   4  -4  140.30    3.42
   0  -4   4  143.63    3.33
   0   4   5  215.02    4.82
   0  -4  -5  214.56    3.07
   0  -4   5  216.37    4.52
   0  -4  -6  882.23   12.97
   0   4   6  908.62   13.02
   0  -4  -6  866.65   12.77
   0  -4   6  830.93   12.94
   0  -4   6  860.61   12.56
   0   4   7  680.28   10.76
   0  -4  -7  685.27   10.83
   0  -4  -7  666.31   10.59
   0  -4   7  643.61   10.45
   0  -4   7  629.63   10.76
   0  -4  -8 1307.54   17.76
   0  -4  -8 1232.18   17.53
   0   4   8 1278.63   17.74
   0  -4   8 1298.40   17.97
   0  -4   8 1265.92   17.59
   0   4   9 2364.19   30.64
   0  -4  -9 2414.10   30.69
   0  -4  -9 2311.30   30.54
   0  -4   9 2430.48   30.94
   0  -4   9 2327.34   30.62
   0   4  -9 2371.80   30.61
   0  -4  10  338.00    6.96
   0  -4  10  331.81    6.94
   0  -4 -10  325.85    6.85
   0   4  10  341.87    6.97
   0  -4 -10  339.70    6.87
   0   4 -10  330.81    6.88
   0  -4  11 2333.06   30.37
   0  -4  11 2222.38   30.27
   0  -4 -11 2266.30   30.19
   0   4  11 2191.32   30.03
   0  -4 -11 2271.53   30.04
   0   4 -11 2332.39   30.33
   0   4 -11 2172.14   33.23
   0   4 -11 2221.07   30.15
   0  -4  12    9.31    1.30
   0   4 -12   12.84    1.44
   0   4  12   10.37    1.33
   0  -4 -12   13.24    1.49
   0  -4 -12   11.73    1.36
   0   4 -12   10.78    1.73
   0   4 -12   11.25    1.44
   0  -4  13 1427.71   22.18
   0  -4  13 1508.97   21.99
   0   4 -13 1499.30   22.06
   0   4  13 1424.45   21.76
   0  -4 -13 1427.45   21.47
   0  -4 -13 1461.11   21.94
   0   4 -13 1420.92   22.90
   0   4 -13 1440.72   21.85
   0  -4  14 1910.23   27.14
   0  -4 -14 1838.26   27.03
   0   4 -14 1917.48   27.30
   0  -4 -14 1851.11   26.74
   0   4  14 1927.32   27.03
   0   4 -14 1810.07   28.04
   0   4 -14 1856.75   27.13
   0  -4  15  500.23   10.74
   0  -4 -15  490.59   10.79
   0  -4 -15  469.37   10.36
   0   4  15  468.16   10.54
   0   4 -15  489.54   11.52
   0   4 -15  483.92   10.67
   0  -4 -16 2297.96   32.57
   0   4 -16 2268.24   33.70
   0  -4 -17  237.40    7.52
   0   4 -17  230.03    8.05
   0   4 -17  222.74    7.16
   0  -4 -18   14.72    2.03
   0   4 -18   10.58    1.95
   0   4 -18   12.16    1.82
   0  -4 -19   88.71    4.79
   0   4 -19   87.32    5.22
   0   4 -19   88.11    4.59
   0   4 -20   24.41    2.95
   0  -4 -20   26.36    2.73
   0   4 -21  160.87    7.50
   0  -4 -21  148.71    6.62
   0   4 -22  742.91   17.95
   0   4 -22  754.89   17.40
   0  -4 -22  698.22   16.31
   0   4 -23  187.30    8.56
   0   4 -23  181.16    8.11
   0  -4 -23  193.37    7.99
   0   4 -24 1176.65   24.61
   0   4 -24 1178.56   23.85
   0  -4 -24 1160.45   22.95
   0   4 -25  351.03   12.21
   0   4 -25  332.46   11.42
   0  -4 -25  342.71   11.13
   0   4 -26  847.13   20.19
   0   4 -26  861.24   19.67
   0  -4 -26  831.88   18.83
   0   4 -27  422.54   13.40
   0   4 -27  424.64   13.08
   0  -4 -27  429.68   12.63
   0   4 -28    1.31    1.38
   0  -4 -28    3.73    1.41
   0   4 -28    1.21    1.50
   0   4 -29  169.99    7.87
   0   4 -29  172.27    7.74
   0  -4 -29  172.11    7.45
   0   4 -30   83.73    5.18
   0  -4 -30   81.52    4.95
   0   4 -31  265.17    9.06
   0  -4 -31  273.55    8.94
   0   4 -32   54.76    3.83
   0  -4 -32   55.32    3.79
   0   5   0    0.24    0.28
   0  -5   0    0.74    0.33
   0  -5   0    0.83    0.40
   0   5   1    0.90    0.33
   0  -5   1    0.31    0.29
   0  -5   1    0.52    0.37
   0  -5  -1    0.86    0.43
   0   5   2    4.34    0.78
   0  -5  -2    3.93    0.54
   0   5   2    3.73    0.50
   0   5  -2    4.00    0.58
   0  -5   2    4.37    0.69
   0   5   3   36.81    1.92
   0  -5  -3   38.06    1.87
   0  -5  -3   37.70    1.42
   0   5  -3   37.97    1.66
   0   5   3   36.81    1.40
   0  -5   3   37.28    1.85
   0  -5   3   38.30    1.61
   0  -5  -4    5.91    0.87
   0   5   4    6.52    0.89
   0  -5   4    4.95    0.89
   0  -5  -4    5.49    0.84
   0  -5   4    6.04    0.72
   0   5   4    5.84    0.61
   0  -5  -4    6.27    0.57
   0   5   5   53.19    2.38
   0  -5  -5   58.68    2.47
   0   5   5   54.60    1.86
   0  -5  -5   52.10    1.41
   0  -5   5   51.65    2.44
   0  -5  -5   49.37    2.22
   0  -5   5   51.17    2.08
   0  -5  -6    1.13    0.64
   0   5   6    0.19    0.47
   0  -5   6    0.47    0.64
   0  -5  -6    1.10    0.19
   0  -5   6    0.56    0.43
   0  -5   6    0.83    0.56
   0  -5  -7   18.90    1.51
   0   5   7   19.70    1.54
   0  -5   7   21.08    1.65
   0  -5   7   17.72    1.38
   0  -5   7   19.93    1.58
   0  -5   8   32.39    2.12
   0   5   8   33.85    2.07
   0  -5  -8   32.11    2.00
   0  -5   8   31.17    1.88
   0  -5   8   34.26    2.13
   0   5  -8   38.80    2.18
   0   5   9  150.68    4.60
   0  -5  -9  140.26    4.41
   0  -5  -9  149.63    4.64
   0  -5   9  152.08    4.74
   0  -5   9  143.16    4.34
   0   5  -9  147.70    4.51
   0  -5 -10   12.82    1.40
   0   5  10   11.68    1.35
   0  -5 -10   12.02    1.36
   0  -5  10   12.47    1.31
   0  -5  10   11.74    1.39
   0   5 -10   17.11    1.61
   0  -5  11    0.91    0.64
   0  -5  11    0.50    0.59
   0  -5 -11    3.38    1.00
   0  -5 -11    2.60    0.87
   0   5  11    1.57    0.77
   0   5 -11    0.27    2.40
   0   5 -11    0.93    0.65
   0  -5  12    2.39    0.79
   0  -5  12    1.94    0.81
   0   5  12    1.03    0.65
   0   5 -12    2.16    0.80
   0  -5 -12    2.55    0.85
   0  -5 -12    1.75    0.81
   0   5 -12    2.24    1.64
   0   5 -12    1.63    0.87
   0  -5  13   17.46    1.83
   0  -5  13   15.33    1.70
   0  -5 -13   19.72    1.89
   0   5 -13   20.59    1.94
   0  -5 -13   17.57    1.84
   0   5  13   18.98    1.88
   0   5 -13   20.90    2.48
   0   5 -13   17.19    1.80
   0   5  14   11.20    1.54
   0  -5 -14   14.07    1.69
   0  -5 -14   10.89    1.52
   0   5 -14   15.94    2.09
   0   5 -14   11.38    1.54
   0  -5 -15    1.83    0.86
   0   5 -15    0.71    0.99
   0   5 -15    0.67    0.76
   0  -5 -16  111.34    4.97
   0   5 -16  112.09    5.50
   0   5 -16  109.15    4.84
   0  -5 -17   26.26    2.56
   0   5 -17   25.63    2.81
   0   5 -17   23.74    2.33
   0  -5 -18   40.05    3.22
   0   5 -18   37.78    3.45
   0   5 -18   38.90    3.02
   0  -5 -19   41.94    3.42
   0   5 -19   36.61    3.52
   0   5 -19   34.91    2.97
   0  -5 -20   13.03    2.10
   0   5 -20   13.09    2.35
   0   5 -20   12.92    1.98
   0   5 -21   90.38    5.80
   0  -5 -21   91.72    5.27
   0   5 -22  118.62    6.72
   0  -5 -22  122.13    6.21
   0   5 -23    0.67    1.49
   0  -5 -23    0.36    1.17
   0   5 -23    1.22    1.29
   0  -5 -24   10.98    2.18
   0   5 -24    6.88    2.02
   0   5 -25   25.58    3.44
   0   5 -25   27.23    3.32
   0  -5 -25   22.89    3.02
   0   5 -26   30.97    3.68
   0   5 -26   33.77    3.67
   0  -5 -26   23.96    3.06
   0   5 -27   95.97    6.13
   0   5 -27   95.90    5.92
   0  -5 -27   98.07    5.71
   0   5 -28    0.43    1.46
   0  -5 -28    2.75    1.38
   0   5 -28    2.58    1.37
   0   5 -29   33.07    3.44
   0  -5 -29   35.82    3.35
   0   5 -29   28.52    3.26
   0  -5 -30   13.13    2.21
   0   5 -30   10.78    2.17
   0  -5 -31   24.52    2.61
   0   5 -31   21.65    2.48
   0   5 -32  120.24    5.53
   0  -5 -32  129.01    5.71
   0  -6   0 3391.17   41.72
   0  -6   0 3435.51   40.73
   0   6   0 3398.97   39.83
   0  -6   0 3273.97   39.60
   0  -6   0 3357.20   41.40
   0  -6   0 3395.83   41.46
   0  -6   1 2818.18   34.24
   0  -6   1 2686.25   34.91
   0  -6  -1 2707.52   32.77
   0  -6  -1 2881.04   33.75
   0  -6   1 2817.58   33.16
   0   6  -1 2725.67   33.21
   0  -6  -1 2747.75   34.84
   0   6   1 2713.57   32.90
   0  -6   1 2754.62   34.68
   0  -6  -1 2757.57   34.60
   0  -6   2 3983.54   46.86
   0   6   2 3992.75   46.49
   0  -6   2 4103.65   48.20
   0   6  -2 3890.90   47.01
   0  -6  -2 4086.67   47.03
   0  -6   2 4029.50   48.77
   0  -6   2 3857.58   48.17
   0  -6  -2 3933.28   48.25
   0   6   2 4018.81   48.88
   0  -6   3  591.92   10.02
   0   6  -3  574.88    9.26
   0  -6   3  569.16   10.28
   0  -6  -3  612.46    8.89
   0  -6   3  594.34    9.14
   0   6   3  572.14    8.58
   0  -6  -3  574.15    9.93
   0  -6   3  573.83    9.96
   0   6   3  565.33   10.23
   0  -6  -3  565.05    9.96
   0  -6   4  540.98    9.67
   0  -6  -4  523.55    9.49
   0  -6  -4  541.44    8.02
   0   6  -4  522.59    8.93
   0   6   4  534.00    8.14
   0  -6   4  531.01    8.72
   0  -6   4  518.32    9.81
   0  -6  -4  533.26    9.44
   0  -6   4  554.25    9.53
   0   6   4  533.80    9.77
   0  -6  -4  529.78    9.54
   0  -6   5  475.12    8.29
   0  -6   5  474.73    9.32
   0  -6  -5  475.55    7.07
   0  -6  -5  477.19    8.96
   0   6   5  483.95    7.65
   0  -6   5  487.82    8.84
   0  -6  -5  476.99    8.73
   0  -6  -5  485.56    9.06
   0   6   5  481.26    9.20
   0  -6   6 1622.12   22.04
   0  -6  -6 1618.60   19.64
   0  -6  -6 1684.81   22.83
   0  -6   6 1706.41   23.60
   0   6   6 1694.77   21.21
   0  -6   6 1588.17   22.31
   0  -6  -6 1691.47   22.51
   0  -6  -6 1734.09   23.11
   0   6   6 1640.88   23.05
   0  -6  -7  134.11    4.24
   0   6   7  141.71    3.57
   0  -6   7  138.71    4.06
   0  -6   7  131.74    4.44
   0  -6   7  126.42    3.96
   0  -6  -7  133.93    4.03
   0  -6   7  134.32    4.59
   0   6   7  123.69    4.24
   0  -6  -7  136.30    4.38
   0  -6   8 4311.49   52.92
   0   6   8 4298.40   50.43
   0  -6  -8 4343.55   52.16
   0  -6   8 4194.87   51.58
   0   6   8 4198.35   52.37
   0  -6   8 4321.07   53.10
   0  -6  -8 4234.59   52.24
   0  -6  -8 4278.02   51.32
   0   6  -8 4229.57   52.51
   0  -6   9 1454.47   21.00
   0  -6   9 1524.91   22.14
   0   6   9 1512.78   19.92
   0  -6   9 1444.44   21.93
   0  -6  -9 1474.16   21.45
   0   6   9 1429.10   21.50
   0  -6  -9 1480.15   20.46
   0  -6   9 1425.99   20.38
   0   6  -9 1457.82   21.46
   0  -6  10  295.23    7.13
   0  -6  10  328.85    8.01
   0   6  10  307.62    6.42
   0  -6  10  301.62    7.54
   0  -6 -10  316.73    7.55
   0   6  10  297.57    7.45
   0  -6  10  288.33    6.48
   0  -6 -10  302.16    6.60
   0   6 -10  301.02    7.40
   0  -6  11  720.51   13.00
   0  -6  11  721.05   13.72
   0  -6 -11  718.14   13.20
   0   6  11  708.84   13.26
   0  -6  11  722.13   11.80
   0  -6 -11  732.24   11.87
   0   6 -11  727.63   13.26
   0  -6  12   42.88    2.71
   0  -6 -12   45.54    2.86
   0   6  12   45.45    2.88
   0  -6 -12   46.80    2.28
   0   6 -12   40.91    2.68
   0  -6 -13  602.57   12.26
   0   6 -13  584.72   15.47
   0   6 -13  595.51   12.16
   0  -6 -14  355.41    9.08
   0   6 -14  360.43   10.73
   0   6 -14  342.90    8.93
   0  -6 -15 1013.43   18.18
   0   6 -15 1032.38   19.77
   0   6 -15  995.23   17.95
   0  -6 -16  450.28   11.07
   0   6 -16  435.56   12.04
   0   6 -16  448.30   10.89
   0  -6 -17  230.53    7.76
   0   6 -17  224.95    8.49
   0   6 -17  218.91    7.37
   0  -6 -18  567.04   13.26
   0   6 -18  551.75   14.28
   0   6 -18  518.49   12.45
   0  -6 -19  467.49   10.65
   0  -6 -19  465.27   12.11
   0   6 -19  452.19   13.09
   0   6 -19  424.86   11.24
   0  -6 -20  149.37    5.61
   0  -6 -20  148.77    6.69
   0   6 -20  148.20    7.34
   0   6 -20  148.99    6.27
   0  -6 -21  933.87   16.81
   0   6 -21  930.64   20.80
   0  -6 -21  905.37   19.13
   0   6 -22  145.41    7.55
   0  -6 -22  156.22    7.07
   0   6 -23  119.45    6.88
   0  -6 -23  104.12    5.87
   0   6 -24    4.89    1.76
   0   6 -24    8.86    2.21
   0  -6 -24    7.51    1.86
   0   6 -25  610.25   16.76
   0  -6 -25  602.18   15.24
   0   6 -25  587.88   15.84
   0   6 -26   11.98    2.60
   0   6 -26   13.40    2.56
   0  -6 -26   11.31    2.17
   0   6 -27  662.97   17.30
   0  -6 -27  688.21   16.34
   0   6 -27  688.90   17.06
   0   6 -28  183.40    8.27
   0   6 -28  183.08    8.04
   0  -6 -28  207.02    8.14
   0   6 -29  157.52    7.38
   0  -6 -29  168.94    7.17
   0   6 -29  152.82    7.12
   0   6 -30  110.80    5.87
   0  -6 -30  124.97    6.01
   0   6 -30  117.71    5.92
   0   6 -31  119.31    5.64
   0  -6 -31  118.55    5.53
   0  -7   0    1.06    0.53
   0   7   0    1.40    0.51
   0  -7   0    0.95    0.80
   0  -7   0    1.60    0.78
   0  -7   0    0.63    0.76
   0  -7   1    0.39    0.37
   0   7   1    2.93    0.56
   0   7  -1    0.19    0.36
   0  -7  -1    0.22    0.38
   0  -7   1    1.45    0.63
   0  -7   1    0.66    0.68
   0   7   1    1.42    0.69
   0  -7  -1    0.69    0.69
   0  -7   1    0.95    0.76
   0  -7  -1    1.67    0.73
   0   7   2    2.21    0.53
   0  -7   2    0.95    0.60
   0  -7   2    2.61    0.60
   0  -7  -2    0.97    0.48
   0   7  -2    1.45    0.52
   0  -7   2    2.63    0.82
   0  -7  -2    1.30    0.70
   0   7   2    2.49    0.83
   0  -7   2    3.32    0.88
   0  -7   3    8.34    0.90
   0   7  -3    6.89    0.92
   0  -7   3    6.20    1.04
   0  -7   3    8.80    1.32
   0  -7  -3    9.10    0.89
   0   7   3    8.00    0.80
   0  -7   3    6.44    1.10
   0  -7  -3    7.54    1.18
   0   7   3   10.88    1.36
   0  -7  -3    6.16    1.06
   0   7   4    7.60    0.79
   0  -7  -4    6.46    0.75
   0   7  -4    6.52    0.93
   0  -7   4    6.15    0.84
   0  -7   4    6.07    1.01
   0  -7  -4    6.02    1.06
   0  -7   4    7.29    1.12
   0   7   4    6.82    1.12
   0  -7  -4    6.42    1.14
   0  -7  -4    6.54    1.10
   0  -7   4    8.63    1.29
   0   7   5    3.49    0.63
   0  -7   5    2.86    0.86
   0  -7  -5    4.75    0.62
   0  -7   5    3.05    0.68
   0  -7   5    3.78    0.93
   0  -7  -5    4.44    0.98
   0   7   5    3.37    0.91
   0  -7  -5    3.14    0.92
   0  -7   5    4.18    1.11
   0  -7  -5    4.24    0.99
   0  -7  -6   33.56    2.24
   0  -7  -6   34.77    1.35
   0  -7   6   33.99    2.39
   0  -7   6   36.00    2.35
   0  -7   6   32.03    1.91
   0   7   6   36.03    1.73
   0  -7  -6   34.39    2.19
   0  -7   6   34.95    2.19
   0  -7  -6   36.01    2.30
   0   7   6   32.20    2.24
   0   7   7   61.58    2.36
   0  -7  -7   58.05    2.95
   0  -7  -7   49.44    1.23
   0  -7   7   56.97    3.17
   0  -7   7   57.58    2.65
   0  -7  -7   58.46    2.81
   0  -7   7   60.18    2.86
   0   7   7   57.79    3.02
   0  -7  -7   58.28    2.96
   0  -7   8   12.47    1.32
   0   7   8   12.89    1.14
   0  -7  -8   11.21    1.42
   0  -7   8   10.39    1.51
   0  -7  -8   13.28    1.58
   0   7   8   11.88    1.45
   0  -7  -8   13.21    1.43
   0  -7   8    9.72    1.27
   0  -7   9   74.06    3.27
   0   7   9   71.39    2.75
   0  -7   9   77.40    3.80
   0  -7  -9   77.38    3.52
   0  -7  -9   78.89    3.65
   0   7   9   76.22    3.61
   0  -7   9   68.72    3.63
   0  -7  -9   70.70    3.17
   0  -7   9   65.91    3.07
   0   7  -9   71.13    3.45
   0  -7  10    1.04    0.68
   0   7  10    0.94    0.52
   0   7  10    0.41    0.59
   0  -7  10    1.98    0.99
   0  -7 -10    2.60    0.95
   0  -7 -10    1.90    0.93
   0  -7  10    1.16    0.72
   0  -7 -10    1.62    0.66
   0   7 -10    1.45    0.82
   0  -7 -11   50.20    2.94
   0  -7  11   49.15    2.88
   0   7  11   49.06    2.44
   0  -7 -11   54.62    3.17
   0  -7 -11   51.53    2.68
   0  -7  11   52.46    2.74
   0   7 -11   50.86    3.06
   0  -7 -12   18.75    1.87
   0   7  12   22.23    1.73
   0  -7 -12   20.60    2.12
   0  -7 -12   19.31    1.71
   0   7 -12   20.23    2.05
   0  -7 -13    6.09    1.34
   0  -7 -13    7.55    1.40
   0  -7 -13    8.29    1.17
   0   7 -13   10.46    3.79
   0   7 -13    7.35    1.37
   0  -7 -14   17.58    1.95
   0  -7 -14   18.76    2.19
   0   7 -14   20.43    3.49
   0   7 -14   17.01    2.03
   0  -7 -15   64.91    3.55
   0  -7 -15   59.10    3.76
   0   7 -15   68.13    4.86
   0   7 -15   59.24    3.70
   0  -7 -16    5.32    1.48
   0  -7 -16    3.10    1.09
   0   7 -16    3.73    1.76
   0   7 -16    4.31    1.34
   0  -7 -17    2.72    1.10
   0  -7 -17    0.89    1.06
   0   7 -17    0.18    1.20
   0   7 -17    0.84    0.81
   0  -7 -18   36.02    2.82
   0  -7 -18   38.06    3.30
   0   7 -18   33.00    3.42
   0   7 -18   29.64    2.81
   0  -7 -19   63.38    3.76
   0  -7 -19   67.29    4.52
   0   7 -19   67.29    4.93
   0   7 -19   59.03    3.95
   0   7 -20    1.06    1.49
   0  -7 -20    0.50    0.95
   0  -7 -20    1.37    1.20
   0  -7 -21   26.71    2.56
   0   7 -21   32.09    3.59
   0  -7 -21   36.56    3.47
   0   7 -22  118.55    6.90
   0  -7 -22  105.77    5.93
   0   7 -23    0.70    1.82
   0  -7 -23    4.50    1.60
   0   7 -24   -0.23    1.45
   0   7 -24    0.64    1.22
   0  -7 -24    1.33    1.19
   0   7 -25   58.40    4.90
   0  -7 -25   57.44    4.47
   0   7 -25   59.46    4.73
   0   7 -26    5.44    1.92
   0  -7 -26    6.41    1.81
   0   7 -26    5.54    1.85
   0   7 -27   58.18    4.76
   0   7 -27   67.22    4.86
   0  -7 -27   60.92    4.54
   0   7 -28   74.74    5.16
   0  -7 -28   67.40    4.63
   0   7 -28   73.22    5.00
   0   7 -29   13.18    2.38
   0  -7 -29   14.12    2.22
   0   7 -29   15.29    2.51
   0   7 -30    5.97    1.67
   0  -7 -30    7.61    1.78
   0   7 -30    6.54    1.60
   0  -8   0 1455.09   20.71
   0  -8   0 1489.47   22.18
   0   8   0 1471.66   19.66
   0  -8   0 1444.77   19.30
   0  -8   0 1501.95   21.86
   0   8   0 1438.75   22.21
   0  -8   1 4148.88   50.36
   0  -8  -1 4060.49   51.44
   0  -8   1 4073.37   48.60
   0  -8  -1 4096.86   49.74
   0   8  -1 4046.84   48.96
   0   8   1 4124.33   48.62
   0  -8   1 4161.02   51.76
   0  -8   1 4054.73   51.16
   0  -8  -1 4044.51   51.10
   0   8   1 4000.09   51.74
   0   8  -2 1637.25   21.99
   0  -8   2 1645.22   24.28
   0  -8   2 1657.77   23.25
   0   8   2 1653.85   21.35
   0  -8  -2 1637.02   22.15
   0  -8   2 1635.20   21.64
   0  -8   2 1571.71   23.50
   0  -8  -2 1629.44   23.68
   0   8   2 1630.90   24.21
   0   8   3 3884.82   46.72
   0  -8   3 3986.87   47.44
   0  -8   3 3924.36   50.26
   0  -8  -3 3904.90   47.33
   0  -8   3 4019.43   49.32
   0   8  -3 3873.83   47.79
   0  -8   3 4029.46   49.67
   0  -8  -3 3956.16   49.50
   0  -8  -3 3908.03   49.43
   0   8   3 3819.98   49.90
   0  -8   4 2757.34   34.77
   0  -8   4 2766.43   36.58
   0  -8  -4 2645.52   36.50
   0  -8  -4 2755.01   34.11
   0  -8   4 2852.14   37.52
   0   8   4 2828.29   34.01
   0  -8   4 2727.12   36.47
   0  -8  -4 2753.94   36.52
   0   8   4 2767.37   37.21
   0  -8  -4 2792.53   36.67
   0  -8  -5   98.46    4.13
   0   8   5  105.59    3.14
   0  -8   5   97.10    3.43
   0  -8   5  106.49    4.24
   0  -8   5  105.88    4.48
   0  -8  -5   98.42    2.93
   0  -8   5  102.20    4.09
   0  -8  -5  100.12    4.03
   0   8   5  104.55    4.35
   0  -8  -5  100.44    4.14
   0  -8   6 1733.79   24.94
   0  -8   6 1666.94   23.01
   0   8   6 1719.03   21.95
   0  -8   6 1630.61   25.04
   0  -8  -6 1712.50   24.60
   0  -8  -6 1602.51   20.77
   0  -8   6 1690.08   24.22
   0  -8  -6 1657.45   24.06
   0   8   6 1603.90   24.70
   0  -8  -6 1634.63   24.29
   0   8   7  617.57    9.85
   0  -8   7  615.23   12.25
   0  -8   7  606.45   12.41
   0  -8   7  612.39   10.87
   0  -8  -7  623.23   11.93
   0  -8   7  608.77   11.54
   0  -8  -7  616.18   11.54
   0   8   7  596.85   12.07
   0  -8  -7  591.81   11.69
   0  -8   8 2283.26   30.83
   0  -8  -8 2347.61   32.14
   0   8   8 2338.80   29.45
   0  -8   8 2341.60   33.11
   0  -8  -8 2282.78   31.95
   0  -8  -8 2254.46   31.39
   0  -8   8 2246.15   31.43
   0  -8  -9 1396.21   21.85
   0   8   9 1432.61   19.58
   0  -8   9 1353.05   20.80
   0  -8  -9 1391.66   21.86
   0  -8   9 1451.14   22.95
   0  -8   9 1388.03   21.21
   0  -8  -9 1394.31   21.27
   0   8  -9 1345.46   21.86
   0  -8  10    5.77    1.09
   0  -8 -10    5.87    1.33
   0  -8 -10    4.14    1.16
   0  -8  10    6.34    1.52
   0  -8  10    6.41    1.22
   0  -8 -10    8.56    1.42
   0   8 -10    5.35    1.22
   0  -8 -11 1064.77   18.13
   0  -8 -11 1060.70   18.50
   0  -8  11 1039.35   17.13
   0  -8 -11 1068.51   17.23
   0   8 -11 1014.18   18.02
   0  -8 -12  854.57   15.61
   0  -8 -12  855.05   16.16
   0  -8 -12  831.99   14.45
   0  -8  12  809.09   14.37
   0   8 -12  791.27   15.50
   0  -8 -13   15.17    1.90
   0  -8 -13   23.44    2.47
   0  -8 -13   14.15    1.65
   0   8 -13   13.73    5.90
   0   8 -13   13.66    1.85
   0  -8 -14  297.29    8.40
   0  -8 -14  322.42    9.36
   0   8 -14  295.08    8.67
   0  -8 -15  440.10   10.69
   0  -8 -15  458.09   11.67
   0   8 -15  478.55   14.24
   0   8 -15  424.06   11.02
   0  -8 -16    7.81    1.72
   0  -8 -16    5.96    1.55
   0   8 -16   10.23    2.38
   0   8 -16    5.74    1.47
   0  -8 -17    4.41    1.35
   0  -8 -17   11.10    2.05
   0   8 -17   10.10    2.40
   0   8 -17    1.93    1.14
   0  -8 -18   11.73    1.86
   0  -8 -18   14.63    2.32
   0   8 -18   12.25    2.50
   0   8 -18   13.31    2.09
   0  -8 -19  576.06   12.96
   0   8 -19  582.78   15.81
   0  -8 -19  586.62   14.56
   0  -8 -20   48.22    3.43
   0   8 -20   49.03    4.53
   0  -8 -20   59.56    4.47
   0  -8 -21  223.10    7.41
   0   8 -21  228.56    9.73
   0  -8 -21  240.05    9.08
   0   8 -22  443.64   14.04
   0  -8 -22  442.19   12.88
   0   8 -23  134.08    7.43
   0  -8 -23  146.22    7.12
   0   8 -24    5.14    2.04
   0  -8 -24    8.12    2.01
   0   8 -25  269.79   10.56
   0   8 -25  273.90   10.22
   0  -8 -25  289.26   10.11
   0   8 -26  101.83    6.28
   0   8 -26  101.45    6.00
   0  -8 -26  110.36    5.95
   0   8 -27  130.33    6.86
   0   8 -27  120.80    6.40
   0  -8 -27  127.54    6.22
   0   8 -28   55.82    4.40
   0  -8 -28   51.40    3.90
   0   8 -28   55.75    4.26
   0   8 -29  273.40    9.38
   0  -8 -29  279.85    8.87
   0   8 -29  276.89    9.13
   0  -8 -30   46.40    3.42
   0   8 -30   46.07    3.55
   0   9   0    0.54    0.50
   0  -9   0    0.33    0.53
   0  -9   0    0.62    0.86
   0  -9   0    0.11    0.92
   0   9   0    0.92    0.74
   0   9   1    5.33    0.83
   0   9  -1    6.35    0.95
   0  -9   1    6.65    1.15
   0  -9  -1    5.57    0.98
   0  -9   1    6.13    0.84
   0  -9   1    6.16    1.26
   0  -9  -1    5.56    1.21
   0  -9   1    5.37    1.26
   0  -9   2   22.24    1.54
   0  -9   2   25.14    2.30
   0  -9  -2   25.77    1.80
   0   9  -2   25.28    1.76
   0   9   2   27.62    1.65
   0  -9   2   26.05    2.05
   0  -9   2   25.00    2.23
   0  -9  -2   25.57    2.21
   0   9   3   21.95    1.47
   0  -9  -3   18.60    1.49
   0  -9   3   21.14    1.91
   0  -9   3   19.74    2.07
   0   9  -3   19.58    1.63
   0  -9   3   21.63    1.58
   0  -9   3   19.40    1.96
   0  -9  -3   20.97    2.02
   0  -9  -3   19.76    2.01
   0  -9   4   16.26    1.45
   0  -9  -4   14.60    1.28
   0  -9   4   14.81    1.95
   0   9   4   17.16    1.30
   0  -9   4   16.26    1.78
   0  -9  -4   12.98    1.70
   0  -9   4   15.12    1.79
   0  -9  -4   16.03    1.83
   0  -9   5   13.61    1.37
   0  -9   5   16.63    2.00
   0  -9  -5   14.04    1.19
   0  -9  -5   14.02    1.79
   0  -9   5   17.38    1.85
   0  -9  -5   15.32    1.78
   0  -9  -5   17.17    1.89
   0  -9  -6    4.07    0.62
   0  -9   6    3.34    0.78
   0  -9  -6    4.27    1.11
   0  -9   6    3.46    1.05
   0  -9   6    4.04    1.18
   0  -9  -6    2.23    1.08
   0  -9  -6    2.16    1.02
   0  -9   7    0.25    0.52
   0  -9  -7    1.57    0.97
   0  -9   7    1.05    0.85
   0  -9  -7    1.10    1.06
   0  -9  -7    0.23    0.91
   0  -9   7    1.56    1.07
   0  -9   8   68.88    3.31
   0  -9  -8   74.45    3.93
   0  -9   8   71.14    3.68
   0  -9  -8   65.94    3.57
   0  -9  -8   64.97    3.69
   0  -9   8   66.93    4.01
   0  -9  -9   62.15    3.62
   0  -9   9   53.65    3.64
   0  -9  -9   52.97    3.40
   0  -9  -9   59.33    3.37
   0   9  -9   56.59    3.49
   0  -9   9   52.28    3.20
   0  -9 -10   25.85    2.46
   0  -9 -10   24.84    2.42
   0  -9  10   21.63    2.44
   0  -9 -10   24.26    2.19
   0  -9  10   20.52    2.07
   0   9 -10   21.94    2.24
   0  -9 -11   65.68    3.81
   0  -9  11   63.67    4.09
   0  -9 -11   62.96    3.80
   0  -9  11   53.22    3.27
   0  -9 -11   59.56    3.38
   0   9 -11   56.33    3.57
   0  -9 -12   69.10    3.93
   0  -9 -12   64.38    3.92
   0  -9 -12   64.23    3.50
   0  -9  12   61.23    3.46
   0   9 -12   55.40    3.63
   0  -9 -13   17.98    2.19
   0  -9 -13   16.65    2.19
   0  -9 -13   14.11    1.78
   0   9 -13   14.52    2.00
   0  -9 -14    3.89    1.32
   0  -9 -14    6.32    1.50
   0  -9 -14    5.11    1.24
   0   9 -14    4.83    1.35
   0  -9 -15    5.72    1.64
   0  -9 -15    6.16    1.52
   0   9 -15    6.04    1.51
   0  -9 -16   13.98    2.04
   0  -9 -16   13.09    2.14
   0   9 -16   16.82    3.40
   0   9 -16    8.99    1.80
   0  -9 -17    0.85    1.03
   0  -9 -17    0.17    1.21
   0   9 -17    4.46    2.09
   0   9 -17    1.56    1.23
   0  -9 -18   45.81    3.48
   0   9 -18   47.08    4.32
   0  -9 -18   50.01    3.98
   0  -9 -19   67.75    4.14
   0   9 -19   63.58    5.00
   0  -9 -19   69.07    4.75
   0  -9 -20   26.11    2.68
   0   9 -20   28.64    3.56
   0  -9 -20   30.91    3.31
   0  -9 -21   35.37    3.05
   0   9 -21   31.77    3.75
   0  -9 -21   41.64    3.69
   0   9 -22   24.16    3.47
   0  -9 -22   25.75    3.02
   0   9 -23   -0.94    2.09
   0  -9 -23    0.93    1.29
   0   9 -24    1.84    1.83
   0  -9 -24    4.96    1.57
   0   9 -25   29.06    3.51
   0   9 -25   34.94    3.60
   0  -9 -25   36.36    3.48
   0   9 -26   -0.42    1.25
   0  -9 -26    2.38    1.27
   0   9 -26    1.52    1.42
   0   9 -27   13.96    2.37
   0   9 -27   18.16    2.66
   0  -9 -27   16.12    2.38
   0   9 -28   70.22    4.73
   0   9 -28   68.50    4.51
   0  -9 -28   66.93    4.24
   0  -9 -29   38.63    3.08
   0   9 -29   38.02    3.19
   0 -10   0  870.01   16.49
   0 -10   0  822.46   14.74
   0 -10   0  863.07   16.09
   0 -10  -1  828.76   14.38
   0 -10   1  849.31   16.36
   0 -10   1  833.37   14.93
   0 -10  -1  842.03   16.16
   0 -10   1  821.48   15.83
   0 -10   2  267.68    6.10
   0 -10  -2  265.52    6.73
   0 -10   2  265.49    8.24
   0 -10   2  278.11    8.03
   0 -10   3  550.96    9.96
   0 -10  -3  532.28   10.19
   0 -10   3  569.62   12.87
   0 -10   3  525.22   11.96
   0 -10  -3  570.37   12.26
   0 -10  -3  557.05   12.20
   0 -10   4 2202.37   32.46
   0 -10   4 2120.68   28.29
   0 -10   4 2137.75   31.28
   0 -10  -4 2132.48   31.21
   0 -10  -4 2181.46   31.46
   0 -10   5  196.59    5.55
   0 -10  -5  201.84    6.95
   0 -10   5  204.20    7.36
   0 -10  -5  211.83    6.94
   0 -10   5  205.25    6.90
   0 -10  -5  213.54    7.03
   0 -10   6 3493.04   44.85
   0 -10  -6 3601.98   47.91
   0 -10   6 3640.65   48.98
   0 -10  -6 3541.01   47.35
   0 -10   6 3560.00   47.42
   0 -10  -6 3456.56   47.32
   0 -10   7   23.21    2.63
   0 -10  -7   23.55    2.46
   0 -10   7   24.98    2.40
   0 -10  -7   27.28    2.51
   0 -10  -7   22.82    2.36
   0 -10  -8  344.80    9.56
   0 -10   8  355.24    9.35
   0 -10  -8  343.06    9.21
   0 -10   8  335.36    9.98
   0 -10  -8  338.67    9.36
   0 -10  -9 2123.93   31.44
   0 -10   9 2057.39   32.21
   0 -10  -9 2009.67   30.83
   0 -10   9 1991.38   30.26
   0 -10  -9 2050.13   30.39
   0  10  -9 2038.22   31.16
   0 -10 -10   51.23    3.59
   0 -10  10   52.58    3.91
   0 -10 -10   45.92    3.43
   0 -10  10   57.89    3.58
   0 -10 -10   54.56    3.50
   0  10 -10   46.82    3.37
   0 -10 -11  913.16   17.75
   0 -10 -11  883.92   17.53
   0 -10  11  911.04   18.59
   0 -10  11  924.85   16.97
   0 -10 -11  911.58   16.80
   0  10 -11  864.93   17.35
   0 -10 -12 1491.55   24.97
   0 -10 -12 1485.00   25.09
   0 -10  12 1504.91   23.84
   0 -10 -12 1487.17   23.72
   0  10 -12 1420.39   24.61
   0 -10 -13  131.04    5.84
   0 -10 -13  115.73    5.68
   0 -10  13  117.11    5.04
   0 -10 -13  118.82    5.08
   0  10 -13  112.26    5.46
   0 -10 -14  320.68    9.46
   0 -10 -14  315.08    9.71
   0  10 -14  300.52    9.33
   0 -10 -15   71.13    4.40
   0 -10 -15   71.44    4.65
   0  10 -15   63.68    4.25
   0 -10 -16   14.97    2.26
   0 -10 -16   15.03    2.31
   0  10 -16   14.30    2.24
   0 -10 -17   67.11    4.29
   0 -10 -17   72.75    4.77
   0  10 -17   79.02    5.81
   0  10 -17   61.24    4.23
   0 -10 -18  404.62   11.02
   0  10 -18  401.83   13.21
   0 -10 -18  393.01   11.72
   0 -10 -19  380.60   10.64
   0  10 -19  402.78   13.22
   0 -10 -19  386.16   11.70
   0 -10 -20  441.24   11.45
   0  10 -20  425.85   13.79
   0 -10 -21  341.13    9.69
   0  10 -21  346.32   12.20
   0 -10 -21  353.06   11.21
   0  10 -22   45.16    4.43
   0 -10 -22   45.05    3.90
   0  10 -23  150.00    7.76
   0 -10 -23  132.75    6.64
   0  10 -24   52.91    4.74
   0 -10 -24   60.26    4.37
   0  10 -25   35.12    3.71
   0  10 -25   30.69    3.27
   0 -10 -25   30.95    3.22
   0  10 -26    3.96    1.58
   0 -10 -26    8.04    1.64
   0  10 -26    5.16    1.74
   0  10 -27  168.84    7.37
   0 -10 -27  179.18    6.97
   0  10 -27  167.95    7.10
   0  10 -28  322.63    9.97
   0 -10 -28  329.11    9.38
   0  10 -28  339.55    9.88
   0 -11   0    0.97    1.06
   0 -11   0    0.59    1.16
   0 -11   1   15.84    2.20
   0 -11  -1   11.45    1.97
   0 -11   1   12.38    2.01
   0 -11   2    1.95    1.22
   0 -11   2    0.46    1.11
   0 -11  -3   11.20    1.82
   0 -11   3   10.17    1.83
   0 -11   3   11.95    2.04
   0 -11  -4    1.66    1.10
   0 -11   4    0.28    1.07
   0 -11   4   -0.16    1.15
   0 -11  -4    0.69    0.99
   0 -11  -5    2.21    1.18
   0 -11   5    2.09    1.10
   0 -11  -5    1.96    1.05
   0 -11   5    1.97    1.33
   0 -11  -5    1.03    1.23
   0 -11   6   24.06    2.76
   0 -11  -6   20.84    2.49
   0 -11   6   21.86    2.46
   0 -11  -6   18.67    2.27
   0 -11  -6   17.80    2.24
   0 -11  -7   29.16    2.90
   0 -11   7   22.26    2.49
   0 -11  -7   25.02    2.58
   0 -11  -7   22.26    2.53
   0 -11   7   32.59    3.24
   0 -11   8   10.30    1.81
   0 -11  -8   12.31    1.99
   0 -11  -8   13.03    2.04
   0 -11  -8   12.44    2.02
   0 -11   8   11.53    2.14
   0 -11  -9   43.83    3.56
   0 -11  -9   44.33    3.49
   0 -11   9   48.18    3.90
   0 -11  -9   48.43    3.49
   0  11  -9   45.64    3.54
   0 -11   9   48.59    3.53
   0 -11  10   10.68    2.20
   0 -11 -10    8.80    1.80
   0 -11 -10    8.21    1.74
   0 -11 -10   11.13    1.80
   0 -11  10    8.61    1.77
   0  11 -10    6.68    1.64
   0 -11 -11   60.08    4.12
   0 -11 -11   53.01    3.89
   0 -11  11   50.28    4.05
   0 -11  11   59.27    3.83
   0 -11 -11   52.16    3.57
   0  11 -11   50.79    3.81
   0 -11 -12   28.70    2.98
   0 -11 -12   27.70    2.95
   0 -11 -12   27.08    2.68
   0 -11  12   31.91    2.90
   0  11 -12   29.32    2.90
   0 -11 -13   23.52    2.75
   0 -11 -13   19.69    2.61
   0 -11 -13   21.19    2.32
   0  11 -13   18.46    2.45
   0 -11 -14   65.62    4.37
   0 -11 -14   65.33    4.49
   0  11 -14   53.34    3.96
   0 -11 -15    3.94    1.59
   0 -11 -15    2.64    1.47
   0  11 -15    3.30    1.37
   0 -11 -16    1.62    1.27
   0 -11 -16    2.79    1.32
   0  11 -16    1.67    1.15
   0 -11 -17    6.53    1.81
   0 -11 -17    9.56    2.09
   0 -11 -18   59.33    4.14
   0  11 -18   56.21    4.89
   0 -11 -18   53.50    4.32
   0 -11 -19   17.60    2.44
   0  11 -19   16.68    2.96
   0 -11 -19   19.32    2.64
   0 -11 -20   18.69    2.46
   0  11 -20   16.23    2.93
   0 -11 -20   20.59    2.82
   0  11 -21   23.27    3.41
   0 -11 -21   21.66    2.81
   0  11 -22   32.28    3.83
   0 -11 -22   40.23    3.73
   0  11 -23   -1.10    2.22
   0 -11 -23    1.93    1.51
   0  11 -24   -2.74    2.07
   0 -11 -24    0.50    1.33
   0  11 -25    9.47    2.08
   0 -11 -25    7.41    1.69
   0  11 -26    7.99    1.90
   0 -11 -26    6.91    1.58
   0  11 -26    9.30    1.80
   0 -11 -27   78.30    4.36
   0  11 -27   75.76    4.49
   0 -12   0  707.02   16.19
   0 -12   0  723.32   16.01
   0 -12   1   60.16    4.28
   0 -12  -1   65.21    4.44
   0 -12   1   62.04    4.22
   0 -12   2  240.23    8.78
   0 -12   2  239.34    8.40
   0 -12   3  170.07    7.38
   0 -12  -3  164.39    6.85
   0 -12   3  164.49    6.91
   0 -12   4 1203.28   23.23
   0 -12  -4 1266.99   22.53
   0 -12  -5   19.29    2.57
   0 -12   5   17.09    2.70
   0 -12   5   19.42    2.48
   0 -12  -5   25.94    2.82
   0 -12   6 1374.58   25.55
   0 -12  -6 1340.87   24.46
   0 -12  -6 1352.45   23.98
   0 -12   6 1375.17   24.14
   0 -12  -6 1324.63   23.94
   0 -12  -7   44.48    3.74
   0 -12   7   39.81    3.45
   0 -12  -7   50.92    3.77
   0 -12  -7   42.49    3.59
   0 -12   7   48.17    4.10
   0 -12  -8  424.00   12.00
   0 -12   8  442.88   12.78
   0 -12  -8  409.13   11.53
   0 -12   8  430.97   11.62
   0 -12  -8  436.59   11.65
   0 -12  -9  489.84   13.03
   0 -12   9  488.76   13.60
   0 -12  -9  485.65   12.69
   0 -12  -9  470.39   12.20
   0 -12   9  476.22   12.35
   0  12  -9  474.54   12.65
   0 -12 -10    9.65    2.09
   0 -12 -10    7.33    1.87
   0 -12  10    8.20    2.19
   0 -12 -10    5.34    1.62
   0 -12  10    8.15    1.90
   0  12 -10    7.97    1.89
   0 -12 -11  419.87   12.04
   0 -12 -11  423.51   11.94
   0 -12  11  446.13   11.61
   0 -12 -11  428.03   11.38
   0  12 -11  421.20   11.83
   0 -12 -12 2268.40   35.55
   0 -12 -12 2277.03   35.48
   0 -12 -12 2194.12   33.68
   0 -12  12 2286.87   34.14
   0 -12 -13   17.40    2.62
   0  12 -13   16.99    2.45
   0 -12 -14  549.18   13.89
   0 -12 -14  531.18   13.96
   0  12 -14  539.22   13.63
   0 -12 -15    8.48    2.04
   0 -12 -15    9.62    2.11
   0  12 -15    9.53    1.96
   0 -12 -16   25.30    2.99
   0  12 -16   31.34    4.84
   0 -12 -16   17.93    2.65
   0 -12 -17  103.56    5.61
   0 -12 -17  103.23    5.90
   0 -12 -18  155.58    6.79
   0  12 -18  161.33    8.34
   0 -12 -18  159.10    7.35
   0 -12 -19   34.60    3.28
   0 -12 -19   35.27    3.58
   0  12 -19   40.17    4.28
   0 -12 -20  990.82   20.53
   0  12 -20  986.02   22.17
   0 -12 -21  354.91   10.96
   0  12 -21  337.84   11.82
   0 -12 -22   30.67    3.26
   0  12 -22   30.97    3.68
   0 -12 -23   54.81    4.06
   0  12 -23   41.95    4.07
   0 -12 -24  126.85    5.95
   0  12 -24  131.64    6.69
   0 -12 -25   30.58    2.93
   0  12 -25   27.97    3.02
   0  12 -25   33.61    3.33
   0  12 -26   26.10    2.79
   0 -12 -26   28.54    2.74
   0 -13   0    1.53    1.34
   0 -13   0    2.47    1.57
   0 -13  -1    3.21    1.54
   0 -13   1    5.81    1.81
   0 -13   1    6.71    1.88
   0 -13   2    0.39    1.36
   0 -13   2    1.41    1.43
   0 -13   3   15.20    2.65
   0 -13   3   20.14    2.67
   0 -13  -3   16.44    2.57
   0 -13   4    0.81    1.35
   0 -13  -4    0.52    1.32
   0 -13   4    1.23    1.37
   0 -13   5    7.21    2.01
   0 -13  -5    7.52    2.03
   0 -13  -5    5.21    1.71
   0 -13   5    7.91    2.09
   0 -13  -6    2.08    1.51
   0 -13   6    3.74    1.82
   0 -13  -6    4.33    1.59
   0 -13   6    4.89    1.66
   0 -13  -7    1.14    1.33
   0 -13   7    2.73    1.67
   0 -13   7    2.42    1.57
   0 -13  -7    1.72    1.32
   0 -13   8    1.06    1.44
   0 -13  -8    1.52    1.42
   0 -13  -8    2.82    1.60
   0 -13   8    2.57    1.40
   0 -13  -8    3.58    1.44
   0  13  -8    0.18    1.12
   0 -13   9   -0.21    1.39
   0 -13  -9    1.79    1.50
   0 -13  -9    0.57    1.34
   0 -13  -9    0.34    1.26
   0 -13   9    0.67    1.29
   0  13  -9    0.18    1.18
   0 -13 -10    0.76    1.32
   0 -13  10    3.36    1.80
   0 -13 -10    1.81    1.44
   0 -13  10    0.66    1.20
   0 -13 -10    1.65    1.33
   0  13 -10    3.36    1.46
   0 -13 -11   33.59    3.48
   0 -13 -11   34.02    3.43
   0 -13 -11   30.11    3.07
   0  13 -11   26.95    3.05
   0 -13 -12    5.30    1.77
   0 -13 -12    5.17    1.85
   0  13 -12    6.71    1.76
   0 -13 -13   15.76    2.58
   0 -13 -13   16.96    2.56
   0 -13 -14   27.39    3.15
   0 -13 -14   27.46    3.14
   0  13 -14   23.86    2.87
   0 -13 -15   14.75    2.47
   0 -13 -15   17.73    2.58
   0 -13 -16    0.18    1.29
   0 -13 -16    1.51    1.21
   0 -13 -17    1.72    1.37
   0 -13 -17    2.80    1.51
   0  13 -18   12.45    2.94
   0 -13 -18   11.69    2.18
   0 -13 -18   13.64    2.27
   0  13 -19   -0.45    1.88
   0 -13 -19   -0.16    1.17
   0 -13 -19    1.26    1.31
   0  13 -20  112.80    6.60
   0 -13 -20  109.42    5.84
   0  13 -21   -1.48    1.88
   0 -13 -21    0.50    1.43
   0  13 -22    5.62    2.11
   0 -13 -22   10.81    1.93
   0  13 -23    0.94    1.68
   0 -13 -23    4.32    1.31
   0  13 -24   -0.87    1.50
   0 -13 -24    0.55    1.00
   0 -14   0 1743.74   31.17
   0 -14   0 1711.86   30.25
   0 -14  -1  136.78    7.16
   0 -14   1  143.69    7.38
   0 -14   1  145.07    7.14
   0 -14  -2   19.91    3.06
   0 -14   2   24.09    3.32
   0 -14   2   21.25    2.98
   0 -14   3 1294.37   25.94
   0 -14   3 1352.99   25.39
   0 -14  -3 1277.05   24.74
   0 -14   4 1196.97   24.74
   0 -14  -4 1230.47   23.75
   0 -14   4 1192.91   23.64
   0 -14  -5   77.26    5.35
   0 -14   5   78.77    5.15
   0 -14  -5   79.62    5.30
   0 -14   5   87.99    5.84
   0 -14  -6  871.90   19.83
   0 -14  -6  885.56   19.22
   0 -14   6  872.84   19.21
   0 -14   6  890.41   20.59
   0 -14  -7  145.18    7.33
   0 -14   7  144.63    7.56
   0 -14   7  141.75    6.92
   0 -14  -7  156.76    7.16
   0 -14  -8    7.80    2.20
   0 -14   8    9.03    2.38
   0 -14  -8   10.02    2.24
   0 -14   8    9.08    2.10
   0  14  -8   11.77    2.24
   0 -14  -9   57.89    4.62
   0 -14   9   55.64    4.74
   0 -14  -9   63.21    4.48
   0 -14   9   61.35    4.40
   0  14  -9   56.10    4.34
   0 -14 -10  335.70   11.31
   0 -14 -10  332.42   10.45
   0  14 -10  320.60   10.54
   0 -14 -11   73.84    5.04
   0 -14 -11   76.80    5.22
   0  14 -11   68.62    4.73
   0 -14 -12 1050.07   21.63
   0  14 -12 1014.26   20.91
   0 -14 -13   20.46    2.88
   0 -14 -13   18.56    2.69
   0 -14 -14  271.43    9.72
   0 -14 -14  270.59    9.84
   0 -14 -15   79.97    5.10
   0 -14 -15   73.79    5.02
   0 -14 -16  177.90    7.54
   0 -14 -16  184.24    7.87
   0  14 -17   11.70    2.86
   0 -14 -17   11.08    2.09
   0 -14 -17    8.93    1.88
   0  14 -18   -1.12    2.00
   0 -14 -18    1.77    1.32
   0 -14 -18    0.32    1.18
   0  14 -19    4.08    2.03
   0 -14 -19    5.96    1.86
   0  14 -20 1154.36   23.36
   0 -14 -20 1132.09   21.53
   0  14 -21    5.40    1.99
   0 -14 -21    6.59    1.78
   0  14 -22   14.56    2.54
   0 -14 -22   14.01    2.15
   0 -14 -23    5.13    1.55
   0 -15   0    0.61    1.72
   0 -15   0    0.45    1.50
   0 -15  -1   32.19    3.73
   0 -15   1   32.03    3.81
   0 -15   1   32.03    3.59
   0 -15   2    6.11    1.99
   0 -15  -2    6.87    2.13
   0 -15   2    5.00    2.11
   0 -15   3    2.64    1.51
   0 -15  -3    2.01    1.74
   0 -15   3    0.69    1.53
   0 -15   4   13.08    2.51
   0 -15  -4    9.77    2.36
   0 -15   4   16.85    3.00
   0 -15  -5   22.40    3.30
   0 -15   5   23.41    3.35
   0 -15   5   34.36    3.62
   0 -15  -5   28.81    3.36
   0 -15   6    0.47    1.64
   0 -15  -6    0.22    1.53
   0 -15  -6    3.32    1.69
   0 -15   6    5.47    1.92
   0 -15   7   19.84    3.12
   0 -15  -7   14.93    2.75
   0 -15   7   11.85    2.33
   0 -15  -7   18.99    2.81
   0  15  -7   15.80    2.58
   0 -15   8    2.54    1.67
   0 -15  -8    3.21    1.81
   0  15  -8    1.14    1.17
   0 -15  -9    4.44    1.87
   0  15  -9    4.45    1.60
   0 -15 -10    0.21    1.41
   0  15 -10    2.92    1.47
   0 -15 -11    1.42    1.53
   0  15 -11    2.47    1.44
   0  15 -12  237.91   17.44
   0 -15 -12   -0.39    1.57
   0  15 -13   88.10    9.97
   0 -15 -13    1.34    1.49
   0  15 -14   58.02    6.70
   0 -15 -14   16.62    2.62
   0  15 -15   15.26    3.73
   0 -15 -15    1.06    1.37
   0  15 -16    9.58    2.70
   0 -15 -16    2.00    1.30
   0 -15 -17   20.47    2.60
   0  15 -17   28.97    3.61
   0  15 -18    0.40    1.97
   0  15 -19   14.78    2.70
   0  15 -20   76.24    4.98
   0  15 -21    7.71    1.98
   0 -16   0  264.55   10.51
   0 -16   0  266.49   10.08
   0 -16  -1   77.47    5.64
   0 -16   1   77.06    5.70
   0 -16   1   77.98    5.40
   0 -16   2    7.62    2.33
   0 -16  -2    5.70    2.13
   0 -16   2    9.05    2.13
   0 -16   3   11.35    2.58
   0 -16   3   15.12    2.68
   0 -16  -3   13.76    2.67
   0 -16   4 1163.68   24.69
   0 -16  -4 1148.00   23.35
   0 -16   5   17.20    3.10
   0 -16  -5   11.00    2.47
   0 -16   6    7.19    2.29
   0 -16  -6    6.43    2.02
   0  16  -6    5.09    1.75
   0 -16   7   17.19    2.91
   0 -16  -7   12.01    2.50
   0  16  -7   13.91    2.41
   0 -16  -8   16.54    2.81
   0  16  -8   19.51    2.74
   0 -16  -9   11.30    2.36
   0  16  -9    8.81    2.01
   0 -16 -10  142.79    7.13
   0  16 -10  135.21    6.45
   0 -16 -11   77.87    5.23
   0 -16 -12  308.75   10.48
   0  16 -12  359.64   16.85
   0 -16 -13  154.77    7.13
   0  16 -13  209.79   10.89
   0 -16 -14  315.54   10.18
   0  16 -14  347.81   12.45
   0 -16 -15   76.99    4.78
   0  16 -15  103.50    6.42
   0 -16 -16    7.24    1.71
   0  16 -16   10.89    2.57
   0  16 -17    2.04    1.64
   0  16 -18   30.34    3.27
   0 -17   0    0.45    1.52
   0 -17  -1    4.02    1.93
   0 -17   1    7.16    2.27
   0 -17  -2    2.23    1.69
   0 -17   2    1.57    1.69
   0 -17   3    0.89    1.54
   0 -17   4    2.45    1.69
   0  17  -4    4.49    1.67
   0 -17   5    8.83    2.30
   0 -17  -5    6.94    2.10
   0  17  -5    4.46    1.74
   0 -17   6    3.92    1.71
   0 -17  -6    0.64    1.61
   0  17  -6    4.42    1.59
   0 -17  -7    0.84    1.54
   0  17  -7    2.90    1.40
   0 -17  -8   13.02    2.49
   0  17  -8   14.75    2.33
   0 -17  -9    2.76    1.49
   0 -17 -10   16.51    2.57
   0 -17 -11    0.54    1.23
   0 -17 -12    0.52    1.13
   0 -17 -13    2.76    1.50
   0  17 -13   23.59    3.93
   0 -17 -14   18.49    2.48
   0  17 -14   37.15    3.92
   0  17 -15    7.44    2.18
   0  17 -16    2.99    1.42
   0 -18   0    8.66    2.27
   0 -18  -1    1.24    1.64
   0 -18   1    1.44    1.51
   0 -18  -2    5.74    1.85
   0 -18   2    4.52    1.97
   0  18  -2    7.37    2.01
   0 -18   3  336.96   11.30
   0  18  -3  328.72   10.50
   0 -18   4  159.80    7.54
   0  18  -4  160.59    6.95
   0 -18  -5  389.91   12.03
   0  18  -5  352.58   10.54
   0 -18  -6   51.98    4.31
   0  18  -6   53.95    3.96
   0 -18  -7  583.29   14.88
   0  18  -8  364.25   21.99
   0 -18  -8    1.09    1.39
   0 -18  -9   23.57    2.90
   0 -18 -10  289.38    9.43
   0 -18 -11  111.54    5.62
   0 -19   0    0.18    1.45
   0  19   0    0.96    1.26
   0 -19  -1    1.96    1.46
   0 -19   1    1.41    1.35
   0  19  -1    1.83    1.23
   0 -19  -2    0.53    1.22
   0 -19   2   -0.35    1.30
   0 -19  -5    3.70    1.66
   0  19  -6  338.82   18.18
   0 -19  -6    0.49    1.28
   0  19  -7  167.12   11.45
  -1   0   0    0.70    0.11
  -1   0   0    0.88    0.22
  -1   0   0    0.55    0.13
  -1   0  -1    1.56    0.20
  -1   0   1    1.09    0.18
  -1   0  -2  818.37   10.06
  -1   0   2  813.71    9.84
   1   0   2  792.43    9.98
  -1   0  -3   22.93    0.95
   1   0  -3   22.54    0.61
   1   0   3   22.00    0.94
   1   0   3   28.02    0.96
  -1   0   3   28.18    0.97
  -1   0  -4  754.53   10.12
   1   0  -4  780.93    9.25
   1   0   4  777.17   10.14
  -1   0   4  734.13    9.20
   1   0   4  738.00    9.64
  -1   0   4  762.98    9.93
  -1   0  -4  749.35    9.64
   1   0  -5   16.84    0.75
   1   0   5   17.45    1.01
  -1   0  -5   17.89    1.03
  -1   0   5   16.25    0.74
   1   0   5   17.88    0.87
  -1   0   5   18.18    0.98
  -1   0  -5   17.61    0.84
   1   0  -6  111.09    2.38
  -1   0   6  114.18    2.39
   1   0   6  106.57    2.83
   1   0   6  118.89    2.56
  -1   0  -6  109.34    2.43
  -1   0   6  114.40    2.83
   1   0   7    3.66    0.62
   1   0  -7    4.67    0.54
   1   0   7    7.97    0.68
  -1   0  -7    4.11    0.49
  -1   0   7    7.33    0.78
   1   0   8  565.00    9.17
   1   0  -8  580.23    8.39
   1   0   8  564.16    8.28
  -1   0   8  568.38    9.11
  -1   0  -8  561.59    8.16
   1   0   9  247.41    4.62
  -1   0   9  238.75    5.32
   1   0   9  235.90    5.26
  -1   0  -9  234.25    5.29
   1   0  -9  244.11    4.72
   1   0  -9  238.95    5.66
   1   0  -9  238.31    5.64
  -1   0  10  243.78    5.66
  -1   0  10  241.14    4.75
   1   0  10  237.13    4.71
   1   0  10  239.07    5.53
  -1   0 -10  252.31    5.65
   1   0 -10  242.06    4.93
  -1   0 -10  236.70    5.56
   1   0 -10  230.66    5.86
   1   0 -10  243.47    5.95
  -1   0  11    0.84    0.42
  -1   0  11    1.68    0.66
   1   0  11    1.40    0.47
  -1   0 -11    0.20    0.47
   1   0 -11    1.31    0.49
   1   0 -11    0.71    0.74
  -1   0 -11    0.41    0.53
   1   0 -11    0.46    0.62
   1   0  12  691.83   10.36
  -1   0  12  669.14   10.32
  -1   0  12  670.36   11.98
   1   0 -12  671.25   10.72
  -1   0 -12  689.06   11.70
   1   0 -12  626.96   11.54
  -1   0 -12  681.42   11.83
   1   0 -12  645.01   12.23
  -1   0 -12  654.06   11.77
   1   0 -12  679.10   12.30
  -1   0  13   25.99    1.51
   1   0  13   24.65    1.49
  -1   0  13   23.84    1.97
  -1   0 -13   24.13    1.84
   1   0 -13   21.11    1.82
  -1   0 -13   21.75    1.83
   1   0 -13   25.49    1.66
   1   0 -13   25.21    2.15
  -1   0 -13   23.85    1.94
   1   0 -13   23.49    2.00
  -1   0  14   45.12    2.09
  -1   0  14   50.69    2.97
   1   0  14   45.54    2.12
  -1   0 -14   45.40    2.78
   1   0 -14   47.44    3.01
  -1   0 -14   46.25    2.77
   1   0 -14   46.42    2.36
  -1   0 -14   46.26    2.64
  -1   0  15   95.12    3.19
   1   0  15   92.77    3.22
  -1   0  15  102.25    4.41
  -1   0 -15   92.62    3.98
   1   0 -15  104.85    3.77
  -1   0 -15   97.57    4.27
   1   0 -15   93.82    4.46
  -1   0 -15   91.60    4.18
  -1   0 -16  187.26    6.23
   1   0 -16  183.03    5.39
  -1   0 -16  173.47    6.13
   1   0 -16  188.62    6.66
   1   0 -17   56.88    3.01
  -1   0 -17   62.65    3.67
   1   0 -17   60.60    3.88
  -1   0 -17   55.75    3.56
  -1   0 -18  302.09    8.80
  -1   0 -18  292.54    8.80
   1   0 -18  279.86    8.96
  -1   0 -19    3.56    1.42
   1   0 -19    3.08    1.34
  -1   0 -19    3.39    1.33
  -1   0 -20   67.50    4.34
  -1   0 -20   69.52    4.42
   1   0 -20   66.49    4.59
  -1   0 -21    0.82    1.11
  -1   0 -21    0.85    1.00
   1   0 -21    0.56    1.20
  -1   0 -22  293.41    9.79
  -1   0 -22  282.56    9.70
   1   0 -22  276.13   10.04
  -1   0 -23   64.52    4.64
  -1   0 -23   59.40    4.47
   1   0 -23   59.02    4.69
  -1   0 -24    3.26    1.45
   1   0 -24    2.17    1.39
  -1   0 -25  153.32    7.40
  -1   0 -26 1579.97   28.87
  -1   0 -27    4.26    1.68
  -1   0 -28    0.60    1.38
  -1   0 -29    5.79    1.96
  -1   0 -30   76.58    4.99
  -1   0 -31   89.49    5.16
   1   0 -32   90.92    4.94
  -1   0 -32   89.87    4.99
   1   0 -33   25.83    2.54
  -1  -1 -32   49.12    3.64
   1   1 -32   46.69    3.56
  -1  -1 -31  324.50   10.18
  -1  -1 -30   13.41    2.28
  -1  -1 -29    5.15    1.79
  -1  -1 -28   24.99    3.07
  -1  -1 -27   28.61    3.30
  -1  -1 -26  234.00    9.29
   1   1 -26  231.74    9.73
  -1  -1 -25  977.23   20.85
   1   1 -25  975.41   21.97
  -1  -1 -24  218.11    8.70
   1   1 -24  207.02    9.04
  -1  -1 -23  262.86    9.37
   1   1 -23  238.42    9.59
  -1  -1 -22    3.96    1.54
   1   1 -22    2.61    1.45
  -1  -1 -21   33.03    3.18
   1   1 -21   25.50    3.06
  -1  -1 -20   79.98    4.65
  -1  -1 -20   82.43    4.77
   1   1 -20   75.45    4.87
  -1  -1 -19    3.65    1.22
  -1  -1 -19    3.49    1.26
  -1  -1 -18   56.74    3.69
  -1  -1 -18   55.61    3.63
   1   1 -18   53.34    3.80
   1   1 -17 1191.97   19.03
  -1  -1 -17 1229.75   20.68
   1   1 -17 1213.62   21.54
  -1  -1 -17 1263.06   21.04
   1  -1  16   14.27    1.44
  -1  -1 -16   14.74    1.79
   1   1 -16   15.62    1.58
   1   1 -16   14.45    1.94
  -1  -1 -16   13.58    1.74
   1   1 -16   17.21    1.99
  -1   1  15 1656.91   21.60
   1  -1  15 1720.74   23.41
  -1   1  15 1679.30   25.34
  -1  -1 -15 1679.17   24.66
  -1  -1 -15 1715.06   25.20
   1   1 -15 1718.68   23.73
   1   1 -15 1670.36   25.97
  -1  -1 -15 1654.23   25.19
   1   1 -15 1703.10   25.68
  -1   1  14   77.58    2.46
  -1   1  14   78.79    3.66
   1  -1  14   82.13    3.14
  -1  -1 -14   79.27    3.64
  -1  -1 -14   80.91    3.54
   1   1 -14   86.15    3.29
   1   1 -14   75.65    3.84
  -1  -1 -14   72.80    3.54
   1   1 -14   84.46    3.92
  -1   1  13  498.55   10.01
  -1   1  13  477.95    7.77
   1  -1  13  501.23    8.96
  -1  -1 -13  517.28   10.09
   1   1 -13  498.87    9.09
  -1  -1 -13  490.25    9.70
  -1  -1 -13  496.88   10.02
   1   1 -13  486.67   10.49
   1   1 -13  488.15   10.34
  -1   1  12  105.85    2.77
  -1   1  12  109.53    3.96
   1  -1  12  113.24    3.48
   1   1 -12  109.97    3.44
  -1   1  12  103.04    3.37
  -1  -1 -12  106.46    3.75
  -1  -1 -12  108.05    3.90
  -1  -1 -12  108.40    3.92
   1   1 -12  106.57    4.19
   1   1 -12  101.04    4.01
   1  -1  11  390.11    7.13
  -1   1  11  373.94    6.12
  -1   1  11  382.29    7.07
  -1  -1 -11  381.57    7.76
   1   1 -11  374.57    6.98
  -1  -1 -11  376.02    7.61
   1   1 -11  371.00    8.14
  -1  -1 -11  354.24    7.63
   1   1 -11  369.05    8.06
  -1   1  10 1460.62   18.51
   1  -1  10 1563.65   19.82
  -1  -1 -10 1543.10   20.47
  -1  -1 -10 1467.05   20.38
  -1   1  10 1483.53   19.53
   1   1 -10 1535.05   19.62
  -1  -1 -10 1419.53   20.31
   1   1 -10 1428.19   20.99
   1   1 -10 1475.88   21.01
   1  -1   9 5570.55   65.14
   1   1  -9 5741.07   64.90
  -1  -1  -9 5690.52   65.83
  -1   1   9 5604.15   64.86
  -1  -1  -9 5452.77   65.72
   1   1  -9 5549.38   66.45
   1   1  -9 5643.23   66.52
   1  -1   8  517.05    8.00
  -1  -1  -8  483.19    6.82
   1   1  -8  503.13    7.65
  -1   1   8  477.72    7.56
   1  -1   7 3115.72   36.45
  -1  -1  -7 3042.91   35.21
  -1   1   7 3056.18   35.96
   1   1  -7 3077.88   36.01
  -1  -1  -6  584.67    7.62
   1  -1   6  602.09    8.59
   1   1  -6  591.48    8.14
  -1   1   6  575.12    8.07
  -1  -1  -5 1087.93   13.28
   1  -1   5 1124.02   14.25
  -1   1   5 1120.59   13.65
  -1  -1  -5 1106.11   14.43
   1   1  -5 1122.64   13.69
   1  -1   4 1093.30   13.89
  -1  -1  -4 1106.09   13.10
  -1   1   4 1075.03   13.19
  -1  -1  -4 1122.88   14.02
  -1  -1  -3  722.61    8.73
   1  -1   3  688.10    9.33
   1   1  -3  682.70    9.26
  -1   1   3  702.74    8.74
  -1   1   3  710.94    8.63
  -1  -1  -3  695.99    9.30
   1  -1   2  631.20    8.60
  -1  -1  -2  638.33    8.15
  -1   1   2  654.78    7.84
  -1   1   2  672.12    8.32
   1   1  -2  663.45    8.51
  -1  -1  -2  660.00    8.50
  -1   1   2  661.30    7.95
   1   1   0   30.25    0.92
  -1  -1   0   32.36    0.95
  -1   1   0   30.54    0.98
  -1  -1   0   29.40    0.85
  -1   1  -2  648.88    8.59
  -1  -1   2  663.52    8.49
  -1  -1   3  703.62    9.22
  -1   1  -3  723.55    9.29
   1  -1  -3  699.64    8.60
  -1  -1   4 1083.38   13.93
   1   1   4 1084.82   13.10
  -1   1  -4 1119.07   14.07
   1   1   4 1060.42   14.01
   1  -1  -4 1120.96   13.22
   1   1   5 1091.77   13.24
  -1   1  -5 1113.20   14.04
  -1  -1   5 1051.92   14.28
  -1   1  -5 1130.66   14.43
   1   1   5 1080.77   14.32
   1  -1  -5 1114.26   13.53
  -1  -1   6  586.80    8.84
  -1   1  -6  585.10    8.47
   1   1   6  574.78    7.66
   1  -1  -6  597.38    8.08
   1   1   6  579.88    8.83
  -1  -1   7 3020.83   36.41
  -1   1  -7 3045.43   35.85
   1   1   7 2948.72   34.81
   1   1   7 3023.07   36.45
   1  -1  -7 3114.26   35.49
   1   1   8  523.79    7.21
  -1  -1   8  501.35    8.58
  -1   1  -8  499.30    7.90
   1   1   8  497.58    8.49
   1  -1  -8  515.44    7.77
  -1  -1   9 5647.04   65.92
   1   1   9 5472.98   63.60
   1  -1  -9 5574.35   66.45
   1  -1  -9 5628.65   65.62
  -1   1  -9 5367.48   65.64
   1  -1  -9 5763.27   64.63
   1   1   9 5792.15   65.85
  -1  -1  10 1563.88   20.85
   1   1  10 1436.89   18.50
  -1  -1  10 1534.64   19.75
  -1   1 -10 1465.09   20.57
   1  -1 -10 1473.46   21.19
  -1   1 -10 1540.05   20.73
   1  -1 -10 1517.00   19.53
   1  -1 -10 1472.87   20.43
   1   1  10 1489.49   20.54
  -1  -1  11  391.96    7.13
  -1  -1  11  381.59    7.94
   1   1  11  379.24    6.11
   1  -1 -11  362.94    8.08
  -1   1 -11  358.66    7.70
   1  -1 -11  373.61    6.91
  -1   1 -11  382.94    7.80
   1   1  11  360.83    7.58
   1  -1 -11  366.32    7.61
   1   1  12  113.49    2.86
  -1  -1  12  111.88    3.46
  -1  -1  12  107.18    3.99
   1  -1 -12  109.55    4.21
  -1   1 -12  106.43    3.96
  -1   1 -12  114.66    3.98
   1  -1 -12  102.67    3.79
   1  -1 -12  109.93    3.40
   1   1  12  101.56    3.73
   1   1  13  532.68    8.12
  -1  -1  13  515.58    9.11
  -1  -1  13  502.01   10.29
   1  -1 -13  488.49   10.54
  -1   1 -13  494.82   10.21
   1  -1 -13  496.68    9.04
   1   1  13  497.16    9.91
  -1   1 -13  508.17   10.02
  -1  -1  14   77.86    3.03
  -1  -1  14   79.99    3.74
   1   1  14   75.66    2.47
   1  -1 -14   78.91    3.87
  -1   1 -14   74.89    3.64
   1   1  14   75.54    3.46
   1  -1 -14   76.90    3.09
  -1   1 -14   76.47    3.52
  -1  -1  15 1763.77   26.19
  -1  -1  15 1660.12   23.68
   1   1  15 1814.92   22.41
  -1   1 -15 1650.81   25.75
   1  -1 -15 1703.14   26.38
  -1   1 -15 1761.06   25.51
   1  -1 -15 1741.31   24.15
  -1  -1  16   11.34    1.28
  -1   1 -16   16.02    1.89
   1  -1 -16   11.74    1.36
   1  -1 -16   13.95    1.89
  -1   1 -16   14.90    1.85
   1  -1 -17 1185.91   18.80
  -1   1 -17 1222.56   20.66
   1  -1 -17 1203.58   21.23
  -1   1 -17 1187.40   20.67
  -1   1 -18   59.90    3.80
   1  -1 -18   59.60    3.97
  -1   1 -18   63.41    3.95
  -1   1 -19    5.81    1.57
   1  -1 -19    4.18    1.35
  -1   1 -20   79.93    4.72
  -1   1 -20   81.25    4.82
   1  -1 -20   78.46    4.92
  -1   1 -21   28.78    2.98
   1  -1 -21   27.69    3.08
  -1   1 -21   23.90    2.87
  -1   1 -22    3.01    1.41
  -1   1 -22    1.65    1.29
  -1   1 -23  254.31    9.31
  -1   1 -23  236.83    9.14
  -1   1 -24  226.02    8.92
  -1   1 -24  218.01    8.87
  -1   1 -25 1013.09   21.43
  -1   1 -25  958.18   21.05
  -1   1 -26  234.26    9.36
  -1   1 -27   31.59    3.49
  -1   1 -28   19.00    2.79
  -1   1 -29    6.63    2.02
  -1   1 -30   13.99    2.23
  -1   1 -31  310.20    9.97
   1  -1 -32   46.95    3.51
  -1   1 -32   46.85    3.57
   1   2 -32   14.73    2.06
  -1  -2 -32   11.94    1.85
  -1  -2 -31   51.78    3.92
  -1  -2 -30   59.66    4.37
  -1  -2 -29   27.99    3.22
  -1  -2 -28   60.44    4.57
  -1  -2 -27   42.02    3.96
   1   2 -27   44.06    4.28
  -1  -2 -26  701.54   16.97
   1   2 -26  687.23   17.98
  -1  -2 -25  245.81    9.39
   1   2 -25  241.58    9.96
  -1  -2 -24   45.39    4.02
   1   2 -24   51.87    4.59
  -1  -2 -23  164.34    7.34
   1   2 -23  151.65    7.63
  -1  -2 -22  171.78    7.34
   1   2 -22  172.13    7.91
  -1  -2 -21   53.60    3.99
   1   2 -21   52.83    4.26
  -1  -2 -20   65.63    4.23
   1   2 -20   64.89    4.56
  -1  -2 -19    2.82    1.30
   1   2 -19    1.01    1.19
  -1  -2 -18  563.11   12.76
   1   2 -18  567.47   13.66
   1   2 -18  564.08   13.02
  -1  -2 -17  126.01    5.25
   1   2 -17  115.73    4.50
   1   2 -17  117.84    5.55
   1   2 -17  118.79    5.28
   1  -2  16   15.35    1.63
  -1  -2 -16   17.15    1.94
   1   2 -16   22.17    1.90
   1   2 -16   18.52    2.22
  -1  -2 -16   16.34    1.89
   1   2 -16   19.33    2.12
  -1   2  15  377.87    8.91
   1  -2  15  378.35    8.29
  -1   2  15  370.92    8.16
  -1  -2 -15  378.49    8.81
  -1  -2 -15  392.70    9.18
   1   2 -15  380.93    8.27
   1   2 -15  359.97    9.55
  -1  -2 -15  350.08    8.84
   1   2 -15  383.29    9.46
   1  -2  14  792.14   13.12
  -1   2  14  769.05   13.71
  -1   2  14  739.50   10.16
   1   2 -14  778.22   12.92
  -1  -2 -14  779.23   13.61
  -1   2  14  760.80   12.84
  -1  -2 -14  774.58   13.81
   1   2 -14  767.38   14.62
  -1  -2 -14  742.16   13.75
   1   2 -14  801.10   14.48
   1  -2  13  666.93   11.62
  -1   2  13  647.48    9.00
   1   2 -13  717.60   11.63
  -1   2  13  656.53   11.39
  -1  -2 -13  701.59   12.35
  -1  -2 -13  663.46   12.02
  -1  -2 -13  662.63   12.26
   1   2 -13  669.63   12.97
   1   2 -13  682.98   12.78
   1  -2  12  272.64    6.30
  -1   2  12  261.20    4.41
  -1  -2 -12  284.69    6.65
   1   2 -12  280.59    6.13
  -1  -2 -12  273.75    6.65
  -1   2  12  271.53    6.11
  -1  -2 -12  279.88    6.78
   1   2 -12  274.44    7.19
   1   2 -12  283.61    7.15
  -1   2  11   26.11    1.05
   1  -2  11   26.74    1.73
  -1  -2 -11   30.66    1.93
   1   2 -11   28.98    1.69
  -1  -2 -11   28.82    1.90
  -1   2  11   25.67    1.62
  -1  -2 -11   27.54    1.92
   1   2 -11   29.50    2.11
   1   2 -11   26.89    1.98
   1  -2  10  163.15    4.30
  -1   2  10  146.44    2.83
   1   2 -10  164.54    4.10
  -1  -2 -10  156.30    4.37
  -1   2  10  161.05    4.04
  -1  -2 -10  163.25    4.49
   1   2 -10  144.86    4.58
  -1  -2 -10  151.87    4.37
   1   2 -10  163.03    4.78
   1  -2   9 1198.75   16.48
  -1  -2  -9 1173.37   16.65
  -1   2   9 1195.02   16.02
  -1  -2  -9 1161.57   16.60
   1   2  -9 1201.06   16.05
   1   2  -9 1138.28   17.20
   1   2  -9 1141.74   17.11
   1  -2   8  135.46    3.66
   1   2  -8  136.40    4.07
   1   2  -8  136.98    3.36
  -1   2   8  131.34    3.29
  -1  -2  -7  158.66    2.45
   1  -2   7  160.31    3.87
  -1   2   7  164.39    2.80
  -1   2   6 1358.16   15.89
  -1  -2  -6 1324.75   15.45
  -1   2   6 1350.47   16.82
   1  -2   5 5247.88   61.07
   1   2  -5 5397.65   61.26
  -1  -2  -5 5259.11   61.10
   1   2  -4  209.65    4.09
  -1  -2  -4  205.70    3.09
   1  -2   4  221.98    4.18
  -1   2   4  210.45    3.28
  -1  -2  -4  219.70    4.14
  -1   2   4  214.13    3.71
   1   2  -3  117.50    2.67
   1  -2   3  118.86    2.73
  -1   2   3  113.13    2.15
  -1   2   3  117.38    2.39
  -1  -2  -3  112.84    2.65
   1   2  -2 3247.94   37.65
   1  -2   2 3200.87   37.87
  -1  -2  -2 3315.28   37.78
   1  -2   1  993.19   11.85
  -1   2   1 1023.28   12.49
   1   2  -1 1019.69   12.67
  -1  -2  -1 1017.42   12.81
   1   2   0    2.42    0.38
  -1   2   0    3.33    0.42
   1   2   1  991.16   12.32
  -1   2  -1  978.72   12.49
   1  -2  -1  977.79   12.19
  -1   2  -2 3147.48   36.63
  -1   2  -3  122.00    2.75
   1  -2  -3  119.90    2.24
  -1  -2   3  115.88    2.64
   1   2   3  117.36    2.70
  -1  -2   4  210.36    4.14
   1   2   4  208.13    4.17
  -1  -2   5 5342.11   61.23
   1  -2  -5 5267.16   60.56
   1   2   5 5346.64   61.29
  -1   2  -6 1363.35   17.46
  -1  -2   6 1367.90   17.68
   1  -2  -6 1343.34   16.93
   1   2   6 1306.19   17.62
  -1  -2   7  159.09    3.95
  -1   2  -7  157.48    3.77
   1  -2  -7  164.25    3.56
   1   2   7  163.54    3.98
  -1  -2   8  137.86    3.80
   1  -2  -8  141.51    4.10
   1   2   8  135.49    3.76
   1  -2  -8  142.27    3.41
   1   2   9 1176.09   14.06
  -1  -2   9 1198.43   16.44
  -1  -2   9 1218.91   17.01
  -1   2  -9 1161.42   17.39
   1  -2  -9 1167.73   17.37
   1   2   9 1187.10   16.85
  -1   2  -9 1180.68   16.92
   1  -2  -9 1149.70   16.63
   1  -2  -9 1184.80   15.98
  -1  -2  10  156.50    4.52
   1   2  10  159.72    2.70
  -1  -2  10  160.39    4.24
  -1   2 -10  142.08    4.38
   1  -2 -10  153.15    4.75
   1   2  10  162.35    4.50
  -1   2 -10  156.80    4.53
   1  -2 -10  153.24    3.93
   1  -2 -10  149.79    4.32
   1   2  11   24.13    0.90
  -1  -2  11   26.25    1.86
  -1  -2  11   24.15    1.62
  -1   2 -11   23.76    1.78
   1   2  11   23.89    1.74
   1  -2 -11   24.95    1.59
   1  -2 -11   23.36    1.72
   1  -2 -11   24.93    1.94
  -1   2 -11   24.30    1.81
  -1  -2  12  282.55    6.31
  -1  -2  12  272.96    6.83
   1   2  12  273.90    4.23
   1  -2 -12  279.81    6.08
   1   2  12  272.64    6.67
   1  -2 -12  269.06    6.58
  -1   2 -12  281.21    6.82
  -1   2 -12  267.24    6.78
   1  -2 -12  282.64    7.27
  -1   2 -12  271.83    6.15
   1   2  13  652.74    8.67
  -1  -2  13  706.31   12.70
  -1  -2  13  695.84   11.63
  -1   2 -13  687.05   12.38
   1  -2 -13  693.81   11.41
   1   2  13  664.86   12.21
  -1   2 -13  654.61   12.42
   1  -2 -13  668.60   12.93
  -1   2 -13  646.17   11.41
  -1  -2  14  806.95   13.05
   1   2  14  717.04    9.50
  -1  -2  14  839.77   14.47
   1   2  14  749.70   13.61
  -1   2 -14  797.84   13.91
   1  -2 -14  777.54   12.71
   1  -2 -14  761.66   14.43
  -1   2 -14  761.53   14.05
  -1   2 -14  721.41   12.71
  -1  -2  15  379.20    8.25
   1  -2 -15  367.00    9.44
  -1   2 -15  353.99    9.09
   1   2  15  359.39    8.77
  -1   2 -15  388.25    9.06
   1  -2 -15  357.53    7.97
  -1  -2  16   14.63    1.56
   1  -2 -16   14.80    1.93
  -1   2 -16   14.26    1.89
   1  -2 -16   13.75    1.56
  -1  -2  17  113.36    4.36
   1  -2 -17  109.35    4.35
  -1   2 -17  119.51    5.32
   1  -2 -17  108.49    5.22
  -1   2 -18  571.45   13.15
   1  -2 -18  561.10   13.42
  -1   2 -18  558.89   13.18
  -1   2 -19   -0.15    1.15
  -1   2 -19    1.40    1.11
  -1   2 -20   68.88    4.44
  -1   2 -20   68.66    4.51
  -1   2 -21   52.87    4.02
  -1   2 -21   48.46    3.95
  -1   2 -22  185.41    7.81
  -1   2 -22  180.76    7.85
  -1   2 -23  164.55    7.54
  -1   2 -23  162.65    7.55
  -1   2 -24   56.22    4.46
  -1   2 -24   45.44    4.15
  -1   2 -25  222.01    9.06
  -1   2 -25  226.57    9.25
  -1   2 -26  677.41   16.95
  -1   2 -26  667.30   16.91
  -1   2 -27   45.48    4.14
  -1   2 -28   66.02    4.92
  -1   2 -29   33.82    3.51
  -1   2 -30   60.94    4.47
  -1   2 -31   47.41    3.81
   1  -2 -32   13.04    1.98
  -1   2 -32   13.68    2.02
   1   3 -32    3.70    1.49
  -1  -3 -32    5.23    1.51
  -1  -3 -31    3.53    1.39
  -1  -3 -30  231.10    8.59
  -1  -3 -29   28.76    3.16
  -1  -3 -28   45.55    3.99
   1   3 -28   42.33    4.22
  -1  -3 -27  175.12    7.82
   1   3 -27  180.46    8.63
  -1  -3 -26  134.36    6.92
   1   3 -26  146.39    7.76
  -1  -3 -25 1290.11   24.66
   1   3 -25 1217.63   25.74
  -1  -3 -24   53.34    4.30
   1   3 -24   45.31    4.30
  -1  -3 -23 1381.66   25.41
   1   3 -23 1357.43   26.90
  -1  -3 -22   35.31    3.33
   1   3 -22   33.57    3.70
  -1  -3 -21    2.77    1.23
   1   3 -21    3.38    1.50
  -1  -3 -20   38.24    3.37
   1   3 -20   42.19    3.78
  -1  -3 -19   39.49    3.28
   1   3 -19   35.74    3.34
   1   3 -19   34.19    3.05
  -1  -3 -18  820.62   16.33
   1   3 -18  832.33   17.51
   1   3 -18  837.69   16.76
  -1  -3 -17 1406.38   23.30
   1   3 -17 1481.55   24.99
   1   3 -17 1451.62   24.03
   1  -3  16   11.12    1.54
  -1   3  16   10.78    1.44
   1   3 -16    9.02    1.31
  -1  -3 -16    9.33    1.60
   1   3 -16    8.82    1.71
   1   3 -16   12.44    1.81
   1  -3  15 3081.10   40.85
  -1   3  15 3052.33   40.09
  -1  -3 -15 3131.24   41.56
   1   3 -15 3167.24   40.47
   1   3 -15 3086.05   42.75
   1   3 -15 3173.75   42.40
   1  -3  14  739.05   14.05
   1  -3  14  738.31   13.14
  -1   3  14  699.53   12.58
   1   3 -14  732.09   12.70
  -1  -3 -14  732.46   13.47
  -1  -3 -14  720.63   13.28
   1   3 -14  707.57   14.15
   1   3 -14  717.95   13.86
   1  -3  13   99.03    3.88
   1  -3  13   93.18    4.07
   1   3 -13   95.74    3.60
  -1   3  13   91.74    3.53
  -1  -3 -13   93.79    3.83
  -1  -3 -13   91.76    3.84
   1   3 -13   92.56    4.20
   1   3 -13   88.56    4.02
   1  -3  12  110.91    4.00
   1  -3  12  116.82    4.35
  -1  -3 -12  112.84    4.11
  -1  -3 -12  115.03    4.14
   1   3 -12  114.54    3.83
  -1   3  12  102.71    3.64
   1   3 -12  114.16    4.53
   1   3 -12  108.24    4.29
   1  -3  11  477.65    9.63
   1  -3  11  483.61    9.37
  -1  -3 -11  471.84    9.26
   1   3 -11  501.42    8.97
  -1  -3 -11  481.71    9.36
  -1   3  11  475.82    8.82
   1   3 -11  480.39   10.08
   1   3 -11  482.24    9.82
   1  -3  10 1856.71   24.74
   1  -3  10 1848.54   24.44
   1   3 -10 1805.78   23.72
  -1  -3 -10 1726.23   24.11
  -1   3  10 1751.72   23.59
  -1  -3 -10 1786.85   24.40
   1   3 -10 1831.72   25.48
   1   3 -10 1773.31   24.83
   1  -3   9 3200.17   39.42
   1  -3   9 3173.18   39.53
   1   3  -9 3246.94   38.74
  -1  -3  -9 3136.09   39.19
  -1   3   9 3162.57   38.69
  -1  -3  -9 3213.24   39.48
   1   3  -9 3188.87   41.40
   1   3  -9 3072.61   39.77
   1  -3   8  103.72    3.31
   1  -3   8  101.11    3.27
  -1   3   8   94.66    1.60
  -1   3   8  104.88    3.02
  -1  -3  -8  102.11    3.20
   1   3  -8  105.38    3.48
   1  -3   7 6449.79   72.91
   1  -3   7 6515.56   73.15
  -1   3   7 6438.46   72.41
  -1   3   6    9.72    0.50
   1  -3   6   11.28    0.95
   1   3  -6   11.84    1.08
  -1   3   6    9.92    0.85
  -1   3   5  145.79    2.50
   1   3  -5  147.30    3.65
   1  -3   5  146.13    3.38
   1  -3   5  139.14    3.60
  -1  -3  -5  152.11    2.33
  -1   3   5  147.31    3.35
  -1  -3  -5  143.47    3.64
   1   3  -4 2401.58   28.98
  -1   3   4 2405.64   27.49
   1  -3   4 2370.51   28.38
   1  -3   4 2379.43   29.10
  -1   3   4 2362.30   28.58
  -1  -3  -4 2320.97   29.02
  -1   3   3 2418.03   27.97
   1   3  -3 2440.86   29.00
   1  -3   3 2391.94   28.29
  -1  -3  -3 2461.48   29.30
  -1   3   3 2409.67   28.78
   1   3  -2  495.51    7.33
   1  -3   2  487.82    6.57
  -1   3   2  495.27    6.78
  -1   3   2  475.16    5.83
  -1   3   1  758.94    8.89
   1   3  -1  782.96   10.40
   1  -3   1  763.46    9.36
  -1  -3  -1  760.44   10.17
   1  -3   0  123.89    1.90
  -1   3   0  121.85    2.72
   1   3   0  126.97    2.73
   1  -3   0  129.03    2.86
   1   3   1  833.51   10.82
   1  -3  -1  811.25   10.76
  -1   3  -1  811.68   11.04
   1  -3  -2  450.91    6.52
   1   3   2  450.46    6.74
  -1   3  -2  469.03    7.13
   1  -3  -3 2480.61   28.84
   1   3   3 2416.12   29.37
   1   3   3 2461.75   30.00
   1  -3  -4 2389.51   27.80
  -1   3  -4 2397.14   29.23
   1   3   4 2410.45   29.31
   1   3   5  147.16    3.67
   1  -3  -6   17.35    1.14
   1   3   6   15.38    1.18
  -1   3  -7 6539.21   74.95
   1   3   7 6436.31   75.15
   1  -3  -7 6414.64   74.35
  -1  -3   8  101.88    3.27
   1   3   8   96.77    3.29
   1  -3  -8   98.86    2.99
   1  -3  -8  100.48    3.21
  -1  -3   9 3312.66   21.75
   1  -3  -9 3168.41   21.45
   1  -3  -9 3223.92   20.37
   1   3   9 3094.71   21.86
  -1   3  -9 3233.77   22.29
  -1  -3  10 1859.67   24.20
  -1  -3  10 1742.60   24.23
   1  -3 -10 1760.28   24.09
   1  -3 -10 1762.59   23.45
   1   3  10 1822.73   24.44
  -1   3 -10 1849.78   24.67
  -1  -3  11  492.78    9.28
  -1  -3  11  478.30    9.56
  -1   3 -11  503.14    9.79
   1   3  11  486.41    9.56
   1  -3 -11  496.03    8.89
   1  -3 -11  471.73    9.30
  -1   3 -11  491.86   10.26
  -1  -3  12  112.47    3.99
  -1  -3  12  117.44    4.29
   1   3  12  112.75    4.16
  -1   3 -12  119.35    4.34
   1  -3 -12  109.69    3.71
  -1   3 -12  115.39    4.44
  -1   3 -12  113.44    3.77
  -1  -3  13  100.71    4.11
  -1  -3  13   87.39    3.64
   1   3  13   96.00    3.98
  -1   3 -13  101.26    4.11
   1  -3 -13   92.43    3.51
  -1   3 -13   92.76    4.09
  -1   3 -13   83.79    3.37
  -1  -3  14  760.16   13.97
  -1  -3  14  737.70   13.03
   1   3  14  693.28   13.42
   1  -3 -14  725.21   12.59
  -1   3 -14  749.93   13.78
  -1   3 -14  709.84   13.80
  -1   3 -14  696.43   12.48
  -1  -3  15 3157.10   40.52
   1  -3 -15 3081.02   39.78
  -1   3 -15 3094.92   39.90
  -1  -3  16   12.15    1.55
   1  -3 -16   11.91    1.49
  -1   3 -16   13.90    1.87
  -1   3 -16   17.47    1.78
  -1   3 -17 1388.91   23.59
  -1   3 -18  808.80   16.81
  -1   3 -19   32.81    3.16
  -1   3 -20   39.77    3.48
  -1   3 -20   36.99    3.42
  -1   3 -21    2.82    1.59
  -1   3 -21    1.11    1.19
  -1   3 -22   29.79    3.33
  -1   3 -22   26.70    3.13
  -1   3 -23 1373.90   26.01
  -1   3 -23 1365.48   26.22
  -1   3 -24   46.37    4.20
  -1   3 -24   47.21    4.24
  -1   3 -25 1239.12   24.79
  -1   3 -25 1227.12   24.88
  -1   3 -26  138.81    7.18
  -1   3 -26  137.28    7.19
  -1   3 -27  186.06    8.29
  -1   3 -27  170.91    7.98
  -1   3 -28   39.34    3.86
  -1   3 -29   26.35    3.23
  -1   3 -30  227.29    8.68
  -1   3 -31    0.84    1.36
  -1   3 -32    7.16    1.70
   1  -3 -32    6.28    1.62
  -1  -4 -32    2.39    1.37
   1   4 -32    0.86    1.27
   1  -4  32    0.54    1.26
   1   4 -31   32.38    3.17
  -1  -4 -31   27.08    2.90
  -1  -4 -30  195.08    7.72
  -1  -4 -29   52.76    4.15
   1   4 -29   48.74    4.35
  -1  -4 -28    9.17    2.03
   1   4 -28    8.84    2.24
  -1  -4 -27   48.72    4.10
   1   4 -27   46.06    4.44
  -1  -4 -26  197.37    8.30
   1   4 -26  194.34    9.02
  -1  -4 -25  249.09    9.42
   1   4 -25  252.10   10.35
  -1  -4 -24  139.39    6.81
   1   4 -24  120.03    7.01
  -1  -4 -23  315.78   10.40
   1   4 -23  303.78   11.20
  -1  -4 -22  258.85    9.14
   1   4 -22  249.92    9.90
  -1  -4 -21   28.67    2.98
   1   4 -21   27.08    3.27
  -1  -4 -20    4.50    1.31
   1   4 -20    0.97    1.48
   1   4 -20    2.42    1.27
  -1  -4 -19  269.68    8.66
   1   4 -19  262.87    9.39
   1   4 -19  269.41    8.84
  -1  -4 -18  322.09    9.26
   1   4 -18  316.26   10.05
   1   4 -18  319.75    9.50
  -1  -4 -17   52.66    3.50
   1   4 -17   52.79    3.83
   1   4 -17   54.19    3.64
  -1   4  16   93.94    4.21
  -1  -4 -16  102.67    4.66
   1   4 -16  103.37    5.17
   1   4 -16   99.89    4.80
   1  -4  15  277.64    7.77
   1   4 -15  288.32    7.52
  -1   4  15  280.65    7.42
  -1  -4 -15  301.45    8.05
   1   4 -15  300.89    8.81
   1   4 -15  303.97    8.49
   1  -4  14  156.42    5.53
  -1  -4 -14  172.95    5.72
  -1   4  14  162.12    5.25
  -1  -4 -14  173.52    5.71
   1   4 -14  168.24    5.33
   1   4 -14  167.07    6.22
   1   4 -14  174.08    6.06
   1  -4  13  218.38    6.38
   1  -4  13  221.21    6.53
  -1   4  13  217.59    5.99
  -1  -4 -13  221.42    6.39
   1   4 -13  225.41    6.07
  -1  -4 -13  218.62    6.30
   1   4 -13  217.36    6.93
   1   4 -13  219.32    6.66
   1  -4  12  994.62   16.66
   1  -4  12 1041.31   16.84
  -1  -4 -12 1038.57   16.51
  -1   4  12  990.31   15.92
  -1  -4 -12 1016.84   16.67
   1   4 -12 1046.32   16.18
   1   4 -12 1042.98   17.70
   1   4 -12 1029.34   17.16
   1  -4  11  186.64    5.49
   1  -4  11  192.57    5.51
  -1  -4 -11  184.48    5.46
   1   4 -11  190.27    5.17
  -1   4  11  185.85    5.13
  -1  -4 -11  196.82    5.48
   1   4 -11  200.06    6.47
   1   4 -11  188.86    5.73
   1  -4  10 1902.19   25.76
   1  -4  10 1848.64   25.44
  -1  -4 -10 1919.50   25.80
  -1  -4 -10 1870.91   25.36
  -1   4  10 1886.43   25.01
   1   4 -10 1857.53   25.98
   1  -4   9  515.20    8.34
   1  -4   9  529.98    8.77
  -1  -4  -9  516.65    8.66
  -1   4   9  511.87    8.06
  -1  -4  -9  504.81    8.28
   1   4  -9  507.67    8.84
  -1  -4  -8 1208.32   17.24
  -1   4   8 1224.56   16.99
   1  -4   8 1206.74   17.11
   1  -4   8 1211.80   17.60
   1   4  -8 1191.13   17.71
  -1   4   7  435.88    7.45
  -1  -4  -7  424.09    7.57
   1  -4   7  409.82    8.01
   1  -4   7  448.56    8.02
   1  -4   7  423.66    7.38
   1   4  -7  428.61    7.99
   1  -4   6  302.85    6.22
   1  -4   6  303.99    5.68
  -1  -4  -6  290.90    3.74
  -1   4   6  289.56    4.09
   1   4  -6  302.73    6.19
   1   4  -6  309.68    6.45
  -1   4   6  302.82    5.82
  -1  -4  -6  302.34    5.97
   1  -4   6  299.58    6.44
  -1  -4  -5 1230.87   17.28
  -1   4   5 1245.29   16.86
   1  -4   5 1282.13   16.48
  -1  -4  -5 1239.03   14.80
  -1   4   5 1240.26   15.09
   1   4  -5 1288.03   17.20
   1  -4   5 1291.11   17.40
  -1   4   4  696.09   10.41
  -1  -4  -4  709.59   10.93
  -1   4   4  682.78    9.13
   1   4  -4  726.74   10.61
   1  -4   4  702.37    9.85
  -1   4   4  690.62    8.85
  -1   4   3   46.52    1.92
   1   4  -3   47.85    1.90
   1  -4   3   47.80    1.57
  -1   4   3   47.52    1.15
  -1   4   3   47.63    1.50
   1  -4   2 1877.41   22.57
  -1   4   2 1892.46   21.86
   1   4  -2 1964.87   23.71
  -1   4   2 1937.09   23.03
   1  -4   1 1885.68   23.35
   1  -4   1 1888.76   21.85
   1   4  -1 1905.95   23.07
  -1   4   1 1895.27   22.82
  -1   4   1 1830.65   21.43
  -1  -4  -1 1851.60   22.81
   1  -4   0    6.54    0.73
   1  -4   0    7.62    0.46
   1   4   0    7.65    0.71
  -1   4   0    8.11    0.73
  -1   4   0    7.59    0.47
  -1  -4   0    7.26    0.70
   1   4   1 1895.75   23.16
  -1  -4   1 1861.02   23.26
  -1   4  -1 1944.56   23.59
   1  -4  -1 1889.13   23.27
  -1  -4   2 1944.94   23.66
  -1   4  -2 1909.37   23.96
   1  -4  -2 1914.00   23.25
   1   4   2 1893.72   23.42
   1   4   3   40.20    1.87
  -1   4  -3   41.08    1.82
  -1  -4   3   38.81    1.64
   1  -4  -3   39.95    1.43
   1   4   3   38.94    1.57
   1   4   4  703.50   10.86
  -1  -4   4  689.67   10.39
  -1   4  -4  718.49   10.82
   1   4   4  691.96   10.06
   1  -4  -4  703.70    9.36
   1   4   5 1315.93   17.86
   1  -4  -5 1278.85   15.67
  -1   4  -5 1310.53   17.67
  -1  -4   5 1319.07   17.38
   1  -4  -6  300.78    6.08
   1   4   6  308.13    6.35
  -1  -4   6  306.91    6.11
  -1  -4   6  316.75    6.37
   1  -4  -7  434.28    7.85
   1   4   7  429.19    8.17
  -1  -4   7  446.44    8.17
  -1  -4   7  414.73    7.82
   1  -4  -8 1168.54   17.05
   1   4   8 1234.99   17.58
   1  -4  -8 1210.62   16.91
  -1  -4   8 1172.94   17.39
   1  -4  -9  538.80    9.33
   1   4   9  519.51    9.73
   1  -4  -9  510.51    9.35
  -1  -4   9  502.15    9.58
   1  -4 -10 1885.31   25.42
   1  -4 -10 1874.36   25.74
   1   4  10 1913.48   26.28
  -1   4 -10 1930.61   26.29
  -1  -4  10 1922.72   26.06
  -1  -4  11  198.74    5.51
   1  -4 -11  190.09    5.12
  -1   4 -11  192.68    5.62
   1   4  11  193.20    5.58
  -1   4 -11  178.98    4.86
  -1  -4  12 1009.02   16.61
   1  -4 -12 1026.94   16.05
   1   4  12 1046.17   17.01
  -1   4 -12 1014.73   18.42
  -1   4 -12 1004.37   15.79
  -1  -4  13  226.04    6.34
   1   4  13  207.73    6.32
   1  -4 -13  213.24    5.85
  -1   4 -13  215.63    6.48
  -1   4 -13  223.01    6.98
  -1   4 -13  199.56    5.60
  -1  -4  14  147.52    5.19
   1   4  14  141.42    5.32
   1  -4 -14  149.17    4.90
  -1   4 -14  153.83    5.56
  -1   4 -14  149.22    5.67
  -1   4 -14  140.97    4.72
   1  -4 -15  299.84    7.50
  -1   4 -15  276.29    8.23
  -1   4 -15  288.52    7.28
  -1   4 -16   99.82    4.96
  -1   4 -16  100.35    4.19
  -1   4 -17   68.17    4.23
  -1   4 -18  314.52    9.73
  -1   4 -19  278.02    9.39
  -1   4 -20    3.63    1.57
  -1   4 -21   21.15    2.83
  -1   4 -22  269.78    9.77
  -1   4 -22  274.51   10.08
  -1   4 -23  309.76   10.70
  -1   4 -23  294.74   10.68
  -1   4 -24  121.63    6.66
  -1   4 -24  123.04    6.85
  -1   4 -25  239.53    9.68
  -1   4 -25  235.44    9.59
  -1   4 -26  196.92    8.66
  -1   4 -26  203.38    8.86
  -1   4 -27   51.56    4.36
  -1   4 -27   40.56    4.00
  -1   4 -28    6.60    2.03
  -1   4 -28    8.89    2.10
  -1   4 -29   46.27    4.04
  -1   4 -30  199.98    8.04
  -1   4 -31   36.39    3.37
  -1   4 -32    1.30    1.31
   1  -4 -32    3.31    1.39
  -1  -5 -31  280.80    8.91
   1   5 -31  265.12    8.75
  -1  -5 -30  108.01    5.61
   1   5 -30  102.06    5.89
  -1  -5 -29   35.08    3.32
   1   5 -29   34.48    3.66
  -1  -5 -28   54.55    4.19
   1   5 -28   46.22    4.40
  -1  -5 -27  176.68    7.72
   1   5 -27  184.37    8.71
  -1  -5 -26  574.20   14.88
   1   5 -26  564.96   16.17
  -1  -5 -25  303.52   10.43
   1   5 -25  319.23   11.79
  -1  -5 -24   14.97    2.42
   1   5 -24   13.71    2.72
  -1  -5 -23  515.56   13.75
   1   5 -23  498.12   14.90
  -1  -5 -22  609.28   14.95
   1   5 -22  601.28   16.27
  -1  -5 -21  122.98    6.08
   1   5 -21  127.46    6.93
   1   5 -21  112.00    5.84
  -1  -5 -20   97.55    5.26
   1   5 -20   86.11    5.54
   1   5 -20   80.00    4.86
  -1  -5 -19  349.58   10.10
   1   5 -19  341.17   11.03
   1   5 -19  328.22   10.05
  -1  -5 -18  315.47    9.32
   1   5 -18  314.44   10.24
   1   5 -18  306.91    9.47
  -1  -5 -17  957.68   17.73
   1   5 -17  931.08   18.08
  -1  -5 -16  267.17    7.98
   1   5 -16  244.89    8.47
   1   5 -16  253.83    8.12
  -1  -5 -15 2337.27   33.15
   1   5 -15 2285.20   34.70
   1   5 -15 2317.66   33.84
   1   5 -14 2680.61   35.49
  -1   5  14 2560.47   35.24
  -1  -5 -14 2562.42   35.75
   1   5 -14 2615.22   37.59
   1   5 -14 2570.04   36.53
   1  -5  13 1408.53   22.13
   1  -5  13 1484.83   22.73
  -1  -5 -13 1414.58   22.06
  -1   5  13 1413.38   21.46
   1   5 -13 1506.95   22.00
  -1  -5 -13 1371.58   22.17
   1   5 -13 1504.42   24.10
   1   5 -13 1458.24   22.88
   1  -5  12   12.34    1.55
   1  -5  12   14.45    1.59
  -1   5  12   15.25    1.58
  -1  -5 -12   13.65    1.58
   1   5 -12   13.44    1.47
  -1  -5 -12   11.30    1.50
   1   5 -12   14.45    2.09
   1   5 -12   14.93    1.69
   1  -5  11   11.81    1.49
   1  -5  11   13.86    1.48
  -1  -5 -11   10.21    1.37
  -1  -5 -11   12.28    1.47
  -1   5  11   13.17    1.41
   1   5 -11   11.21    2.42
  -1  -5 -11   10.61    1.10
   1   5 -11   12.72    1.56
   1  -5  10  350.54    7.02
   1  -5  10  366.67    7.76
  -1  -5 -10  338.94    7.08
  -1  -5 -10  343.78    7.48
  -1   5  10  352.11    6.99
  -1  -5 -10  349.48    6.05
   1   5 -10  346.95    7.60
   1  -5   9 1611.84   23.12
   1  -5   9 1589.66   22.20
  -1  -5  -9 1587.30   22.47
  -1   5   9 1585.73   22.23
  -1  -5  -9 1675.03   23.25
   1  -5   9 1622.26   21.46
  -1  -5  -9 1611.98   21.30
   1   5  -9 1599.77   23.17
   1  -5   8  156.56    4.84
   1  -5   8  172.97    4.55
   1  -5   8  169.96    5.18
  -1  -5  -8  166.19    4.70
  -1   5   8  166.43    4.61
   1  -5   8  163.08    4.29
  -1  -5  -8  172.47    4.28
   1   5  -8  170.52    5.06
   1  -5   7  820.04   13.02
   1  -5   7  793.15   11.94
  -1  -5  -7  738.96   11.62
   1   5  -7  773.00   13.00
   1  -5   7  760.51   11.88
   1  -5   7  778.36   13.22
  -1  -5  -7  765.62   12.38
  -1   5   7  772.07   12.24
   1  -5   6 2051.05   25.58
  -1   5   6 2036.23   24.25
   1  -5   6 2021.45   26.74
   1   5  -6 2108.64   26.69
  -1  -5  -6 1955.03   23.23
   1  -5   6 1994.80   25.94
  -1  -5  -6 2022.58   25.82
  -1  -5  -6 2107.23   26.52
  -1   5   6 2019.20   26.23
   1  -5   6 2060.37   27.49
   1  -5   5   36.58    2.16
  -1   5   5   33.98    1.21
   1  -5   5   34.13    1.61
   1   5  -5   39.59    1.99
  -1  -5  -5   32.12    1.12
  -1  -5  -5   32.20    1.76
   1  -5   5   34.64    1.86
  -1  -5  -5   33.94    1.89
  -1   5   5   35.18    1.90
  -1   5   4 1807.50   22.13
   1   5  -4 1873.35   23.83
  -1   5   4 1818.98   21.56
   1  -5   4 1861.09   24.70
   1  -5   4 1835.95   22.71
  -1  -5  -4 1792.26   21.94
   1  -5   4 1857.90   23.87
  -1  -5  -4 1790.15   23.62
  -1  -5  -4 1914.53   23.98
  -1   5   4 1803.60   23.86
   1  -5   3   26.71    1.76
  -1   5   3   25.69    0.92
  -1   5   3   27.11    1.26
   1  -5   3   26.38    1.62
   1  -5   3   28.57    1.27
  -1  -5  -3   27.39    1.21
  -1  -5  -3   27.28    1.61
   1  -5   3   25.01    1.59
  -1  -5  -3   25.92    1.57
   1  -5   2   76.39    2.70
   1  -5   2   77.93    2.03
  -1   5   2   73.79    2.26
   1   5  -2   82.93    2.62
  -1  -5  -2   79.98    2.27
  -1   5   2   73.26    1.65
   1  -5   2   84.47    3.04
  -1  -5  -2   80.96    2.80
  -1  -5  -2   73.97    2.65
   1  -5   2   75.53    2.73
  -1  -5  -1  806.45   11.34
   1  -5   1  792.18   10.38
  -1   5   1  795.70   11.38
  -1   5   1  797.43   10.08
   1   5  -1  821.35   11.59
   1  -5   1  817.89   11.95
  -1  -5  -1  806.81   11.37
   1  -5   1  830.99   12.24
   1  -5   0    9.40    0.58
   1  -5   0    8.79    0.88
   1   5   0    8.31    0.81
  -1   5   0    9.67    0.62
  -1  -5   0   10.08    0.90
  -1   5   0    9.73    0.88
  -1  -5   0   11.89    0.93
  -1  -5   0   10.99    1.08
   1  -5   0   10.18    1.05
   1   5   1  758.58   10.93
  -1  -5   1  794.03   11.38
  -1   5  -1  774.23   11.36
  -1   5  -1  746.64   10.06
  -1  -5   1  771.20   11.04
   1  -5  -1  789.42   11.19
  -1  -5   1  733.72   11.53
   1   5   2   68.39    2.25
   1  -5  -2   72.11    2.29
  -1  -5   2   75.40    2.44
  -1   5  -2   75.63    2.63
  -1  -5   2   77.82    2.66
   1  -5  -2   69.47    2.59
  -1  -5   2   77.04    2.72
  -1   5  -3   29.76    1.68
   1  -5  -3   31.71    1.43
  -1  -5   3   31.83    1.74
   1   5   3   31.45    1.51
  -1  -5   3   29.54    1.71
   1  -5  -3   30.31    1.72
   1  -5  -3   29.94    1.68
   1   5   3   36.90    1.97
  -1  -5   4 1795.10   23.58
   1  -5  -4 1837.65   22.53
   1   5   4 1861.93   23.26
   1  -5  -4 1878.44   23.96
  -1  -5   4 1824.29   23.79
   1  -5  -4 1856.86   23.93
   1   5   4 1799.23   24.42
   1  -5  -4 1892.45   24.10
   1   5   5   27.57    1.50
   1  -5  -5   28.38    1.19
  -1  -5   5   28.26    1.64
   1  -5  -5   29.14    1.70
   1  -5  -5   30.18    1.72
  -1  -5   5   27.24    1.63
   1   5   5   28.38    1.82
   1  -5  -5   33.28    1.88
   1  -5  -6 2050.07   24.04
  -1  -5   6 2019.69   26.35
   1   5   6 2029.07   25.76
  -1  -5   6 2034.64   26.67
   1  -5  -6 2062.02   26.24
  -1  -5   6 2105.73   27.07
  -1  -5   6 1994.64   25.96
   1  -5  -6 1989.07   26.08
   1  -5  -6 2086.97   26.65
   1   5   6 2006.45   27.00
   1  -5  -7  777.34   12.07
  -1  -5   7  796.55   12.54
  -1  -5   7  817.51   12.99
  -1  -5   7  766.11   12.31
   1   5   7  781.44   11.80
   1  -5  -7  778.52   11.91
  -1  -5   7  761.04   11.78
   1  -5  -7  761.25   12.38
   1   5   7  780.76   12.88
  -1  -5   8  173.42    4.98
   1  -5  -8  169.86    4.47
  -1  -5   8  168.60    4.70
   1   5   8  170.18    5.00
   1  -5  -8  158.63    4.62
  -1  -5   8  160.15    4.54
  -1  -5   8  165.11    4.22
   1  -5  -8  162.74    4.22
  -1  -5   9 1614.49   22.05
   1  -5  -9 1595.76   21.23
  -1  -5   9 1620.62   22.57
   1  -5  -9 1500.16   21.69
  -1  -5   9 1453.16   21.10
   1   5   9 1568.90   22.36
  -1  -5   9 1510.10   20.54
   1  -5  -9 1574.70   20.73
  -1   5  -9 1525.05   21.20
   1  -5 -10  327.17    6.87
  -1  -5  10  314.16    7.36
  -1  -5  10  331.54    7.70
   1   5  10  316.09    7.62
   1  -5 -10  319.02    6.34
  -1  -5  10  318.16    6.32
  -1   5 -10  315.57    6.91
  -1   5 -11   13.11    1.54
   1   5  11   14.47    1.63
  -1  -5  11   13.11    1.52
   1  -5 -11   12.64    1.32
  -1  -5  11   12.29    1.42
  -1   5 -11   12.66    1.34
  -1  -5  12   12.90    1.57
   1  -5 -12   11.69    1.30
  -1  -5  12    9.84    1.39
   1   5  12   12.28    1.56
  -1   5 -12    9.34    2.84
  -1   5 -12   12.75    1.42
  -1  -5  13 1416.71   22.31
   1  -5 -13 1433.83   21.61
   1   5  13 1455.36   22.57
  -1   5 -13 1468.71   25.05
  -1   5 -13 1398.44   21.06
   1  -5 -14 2653.67   35.88
  -1   5 -14 2589.26   35.19
   1  -5 -15 2325.50   30.59
  -1   5 -15 2334.58   34.12
   1  -5 -16  253.90    6.53
  -1   5 -16  244.51    8.26
   1  -5 -17  907.34   15.10
  -1   5 -17  928.97   18.49
   1  -5 -18  319.50    7.64
  -1   5 -18  322.74   10.09
  -1   5 -19  344.10   10.82
  -1   5 -20   87.23    5.42
  -1   5 -21  126.46    6.71
  -1   5 -22  621.02   16.16
  -1   5 -23  490.23   14.11
  -1   5 -23  499.25   14.42
  -1   5 -24   17.73    2.66
  -1   5 -24   12.53    2.55
  -1   5 -25  328.21   11.36
  -1   5 -25  327.33   11.54
  -1   5 -26  579.19   15.59
  -1   5 -26  552.47   15.42
  -1   5 -27  180.72    8.14
  -1   5 -27  173.43    8.04
  -1   5 -28   48.80    4.15
  -1   5 -28   39.62    3.85
  -1   5 -29   25.24    3.03
  -1   5 -29   25.98    3.08
  -1   5 -30   93.18    5.34
   1  -5 -31  245.69    8.24
  -1   5 -31  250.46    8.50
   1   5  31  241.63    7.92
  -1  -6 -31   56.06    3.86
   1   6 -31   48.96    3.68
  -1  -6 -30   42.61    3.66
   1   6 -30   42.58    3.65
   1   6 -30   44.63    3.87
   1  -6  30   46.40    3.41
   1   6 -29   95.08    5.83
  -1  -6 -29  100.83    5.52
   1   6 -28   95.43    6.05
  -1  -6 -28  102.91    5.73
   1   6 -27   39.50    4.13
  -1  -6 -27   41.16    3.82
   1   6 -26   61.70    5.09
  -1  -6 -26   73.12    4.93
   1   6 -25  143.10    7.75
  -1  -6 -25  136.01    6.82
   1   6 -24   86.68    6.02
  -1  -6 -24   78.17    5.13
  -1  -6 -23   84.58    4.49
  -1  -6 -23   89.94    5.45
   1   6 -23   94.79    6.28
  -1  -6 -22   35.27    3.41
   1   6 -22   36.26    3.97
   1   6 -22   30.29    3.15
  -1  -6 -21  220.10    8.34
   1   6 -21  208.74    9.09
   1   6 -21  210.10    8.16
  -1  -6 -20    3.13    1.52
   1   6 -20    1.26    1.52
   1   6 -20    2.22    1.24
  -1  -6 -19   69.95    4.43
   1   6 -19   76.32    5.20
   1   6 -19   66.30    4.38
  -1  -6 -18   86.66    4.79
   1   6 -18   88.58    5.47
   1   6 -18   95.80    5.16
  -1  -6 -17  211.15    7.38
   1   6 -17  201.21    8.00
   1   6 -17  203.01    7.49
  -1  -6 -16    7.54    1.55
   1   6 -16    7.32    1.81
   1   6 -16    9.35    1.65
  -1  -6 -15  165.71    6.18
   1   6 -15  169.62    7.03
   1   6 -15  175.86    6.58
  -1  -6 -14   67.15    3.73
   1   6 -14   67.59    3.93
  -1   6  13   87.51    4.03
  -1  -6 -13   98.41    4.37
   1   6 -13   93.82    5.31
   1   6 -13   89.62    4.38
   1  -6  12   13.04    1.53
  -1   6  12   21.84    1.96
  -1  -6 -12   14.39    1.68
  -1  -6 -12   11.60    1.24
   1   6 -12   14.62    2.95
   1   6 -12   23.52    2.19
   1  -6  11  163.46    5.02
   1  -6  11  175.46    5.78
  -1   6  11  161.80    5.11
  -1  -6 -11  165.98    5.61
  -1  -6 -11  173.15    5.42
  -1  -6 -11  174.65    4.61
   1   6 -11  171.51    5.69
   1  -6  10  630.85   12.32
   1  -6  10  611.09   11.21
  -1   6  10  612.54   11.51
  -1  -6 -10  633.53   12.33
  -1  -6 -10  617.55   11.70
   1  -6  10  607.03   10.68
  -1  -6 -10  624.40   10.70
   1   6 -10  636.69   12.27
  -1   6   9  132.08    3.41
   1  -6   9  126.16    4.69
   1  -6   9  133.07    4.22
  -1   6   9  128.31    4.35
  -1  -6  -9  133.44    4.52
   1  -6   9  125.45    4.80
  -1  -6  -9  138.54    4.14
   1  -6   9  125.69    4.03
   1   6  -9  138.73    4.85
   1  -6   8   77.62    3.50
   1  -6   8   74.22    2.94
  -1   6   8   78.74    2.41
   1  -6   8   76.11    3.63
  -1  -6  -8   76.93    3.30
  -1   6   8   74.00    3.17
   1  -6   8   72.65    3.03
  -1  -6  -8   74.92    2.99
   1   6  -8   74.21    3.46
   1  -6   7  563.50   10.20
  -1   6   7  575.38    7.70
   1  -6   7  580.92    9.08
   1  -6   7  577.35    9.52
  -1  -6  -7  560.63    9.26
   1  -6   7  589.81   10.77
  -1   6   7  573.74    9.79
  -1  -6  -6  110.11    2.32
   1   6  -6  109.14    3.79
   1  -6   6  117.42    3.42
  -1   6   6  115.52    2.70
  -1  -6  -6  108.98    3.63
   1  -6   6  107.03    3.66
   1  -6   6  116.75    4.32
  -1  -6  -6  112.95    3.85
  -1   6   6  117.37    3.91
  -1  -6  -5   40.21    1.44
   1   6  -5   40.41    2.16
  -1   6   5   43.49    1.46
   1  -6   5   44.91    1.93
  -1  -6  -5   42.37    2.20
   1  -6   5   38.95    2.18
  -1   6   5   41.17    2.25
  -1  -6  -5   43.96    2.28
  -1  -6  -4  937.21   12.55
   1  -6   4  921.22   15.06
   1   6  -4  947.01   14.17
   1  -6   4  947.87   13.08
  -1   6   4  943.99   11.95
   1  -6   4  912.17   14.56
  -1  -6  -4  962.33   14.29
   1  -6   4  891.51   14.26
  -1  -6  -4  946.22   14.45
  -1   6   4  939.11   14.57
  -1  -6  -3    9.88    1.17
  -1  -6  -3    9.99    0.84
  -1   6   3   11.44    0.68
   1  -6   3    8.84    1.06
   1   6  -3   11.97    1.11
   1  -6   3    9.26    0.80
  -1  -6  -3    8.62    1.09
   1  -6   3   10.08    1.18
   1  -6   3    8.05    1.18
  -1  -6  -3    8.67    1.09
  -1   6   3   10.20    1.17
   1  -6   2  372.98    7.37
   1   6  -2  373.82    6.96
   1  -6   2  361.41    7.72
  -1  -6  -2  360.46    7.42
  -1  -6  -2  382.30    6.53
  -1   6   2  372.96    5.48
   1  -6   2  368.40    5.97
   1  -6   2  362.84    7.41
  -1  -6  -2  369.95    7.36
  -1  -6  -1 1513.88   21.29
  -1  -6  -1 1522.39   20.08
   1   6  -1 1561.42   20.40
   1  -6   1 1528.42   18.96
  -1  -6  -1 1616.75   20.29
  -1   6   1 1541.26   18.72
   1  -6   1 1549.67   20.99
   1  -6   1 1549.52   21.30
  -1  -6  -1 1568.16   21.18
  -1   6   0    6.71    0.61
  -1  -6   0    6.13    0.77
   1   6   0    7.01    0.84
   1  -6   0    7.61    0.59
  -1  -6   0    8.66    0.91
   1  -6   0    6.65    0.99
  -1  -6   0    6.47    0.98
   1  -6   0    7.72    0.98
  -1  -6   0    7.97    0.98
  -1  -6   0    6.29    0.98
   1  -6  -1 1558.09   20.46
   1   6   1 1538.51   20.13
  -1  -6   1 1561.27   20.26
  -1  -6   1 1553.41   21.28
  -1   6  -1 1512.89   19.12
  -1  -6   1 1605.83   20.80
   1  -6  -1 1498.25   21.34
  -1  -6   1 1594.73   21.27
   1  -6  -1 1479.47   20.88
  -1  -6   2  370.60    7.45
   1   6   2  361.87    6.55
  -1  -6   2  377.88    7.25
  -1  -6   2  362.90    6.76
   1  -6  -2  360.06    6.63
   1  -6  -2  353.81    7.38
  -1  -6   2  354.73    7.26
   1  -6  -2  362.47    7.22
  -1  -6   3    6.27    0.94
   1  -6  -3    5.44    0.71
   1   6   3    4.78    0.69
  -1  -6   3    5.64    0.78
  -1  -6   3    4.83    0.90
   1  -6  -3    5.31    0.97
   1   6   3    5.43    0.95
  -1  -6   3    5.76    1.00
   1  -6  -3    5.84    0.95
   1  -6  -3    5.23    0.94
  -1  -6   4  936.10   13.88
   1  -6  -4  952.87   14.48
  -1  -6   4  930.35   14.50
   1  -6  -4  952.86   13.01
   1   6   4  908.08   13.38
  -1  -6   4  964.94   14.61
   1  -6  -4  946.46   14.39
  -1  -6   4  912.50   14.20
   1  -6  -4  952.12   14.48
   1   6   4  943.29   14.86
   1  -6  -5   45.14    2.32
   1  -6  -5   44.98    1.69
   1   6   5   49.26    2.11
  -1  -6   5   47.18    2.45
  -1  -6   5   46.77    2.22
   1  -6  -5   44.56    2.27
  -1  -6   5   46.75    2.30
   1   6   5   46.05    2.48
   1  -6  -5   42.42    2.29
   1  -6  -6  106.94    2.57
  -1  -6   6  110.58    3.62
   1   6   6  117.14    3.44
  -1  -6   6  109.57    3.86
   1  -6  -6  110.37    3.72
  -1  -6   6  105.74    3.56
   1  -6  -6  117.62    3.75
   1  -6  -6  107.05    3.77
   1   6   6  117.65    4.09
   1  -6  -7  590.28   10.29
  -1  -6   7  565.41   10.58
   1   6   7  571.09    9.62
  -1  -6   7  559.08   10.17
   1  -6  -7  574.45   10.07
  -1  -6   7  574.39    9.98
   1  -6  -7  578.97   10.66
   1   6   7  570.79   10.83
   1  -6  -8   71.04    3.03
  -1  -6   8   72.61    3.26
  -1  -6   8   78.49    3.23
   1   6   8   74.74    2.85
   1   6   8   70.31    3.30
   1  -6  -8   77.33    3.08
  -1  -6   8   70.63    2.90
  -1   6  -8   72.58    3.06
   1  -6  -9  132.44    4.28
  -1  -6   9  130.39    4.41
   1   6   9  133.18    4.05
  -1  -6   9  131.09    4.75
  -1  -6   9  138.29    4.63
   1   6   9  134.65    4.76
   1  -6  -9  142.80    4.24
  -1  -6   9  133.26    4.10
  -1   6  -9  129.04    4.19
  -1  -6  10  643.02   12.39
   1  -6 -10  646.01   11.34
   1   6  10  625.04   10.94
  -1  -6  10  651.55   11.88
  -1  -6  10  614.04   11.47
   1   6  10  629.76   12.21
  -1  -6  10  612.26   10.65
   1  -6 -10  635.46   10.82
  -1   6 -10  630.87   11.36
   1   6  11  163.47    4.86
  -1  -6  11  165.45    5.38
   1  -6 -11  165.89    5.00
  -1  -6  11  161.25    5.62
   1   6  11  171.89    5.76
  -1  -6  11  163.40    4.58
  -1   6 -11  163.37    5.02
   1  -6 -12   11.96    1.42
  -1   6 -12   14.12    1.55
   1  -6 -13   86.70    3.64
  -1   6 -13   90.42    3.83
   1  -6 -14   65.70    3.22
  -1   6 -14   70.79    4.87
  -1   6 -14   68.06    3.44
   1  -6 -15  164.48    5.30
  -1   6 -15  173.75    7.07
  -1   6 -15  164.13    5.60
  -1   6 -16    7.48    1.89
   1  -6 -16    5.46    1.14
   1  -6 -17  204.87    6.14
  -1   6 -17  225.49    8.31
   1  -6 -18   86.50    3.87
  -1   6 -18   88.28    5.25
  -1   6 -19   62.58    4.58
  -1   6 -20    2.38    1.58
  -1   6 -21  213.61    8.93
  -1   6 -22   35.14    3.79
  -1   6 -23   93.44    6.02
  -1   6 -24   71.42    5.24
  -1   6 -24   82.57    5.72
  -1   6 -25  141.39    7.27
  -1   6 -25  133.51    7.23
  -1   6 -26   63.68    4.84
  -1   6 -26   62.12    4.92
  -1   6 -27   32.11    3.56
  -1   6 -27   38.65    3.91
  -1   6 -28  105.16    6.01
  -1   6 -28  103.82    5.99
  -1   6 -29   94.75    5.46
  -1   6 -29   93.11    5.47
  -1   6 -30   39.44    3.53
  -1   6 -30   35.90    3.32
   1   6  30   38.40    3.18
   1  -6 -31   57.09    3.83
  -1   6 -31   56.04    3.89
   1   7 -30  223.71    8.34
  -1  -7 -30  220.98    7.70
   1   7 -30  211.91    7.74
   1   7 -29  170.64    7.63
  -1  -7 -29  169.27    6.99
   1   7 -28   42.45    4.02
  -1  -7 -28   41.59    3.67
   1   7 -27  157.90    7.88
  -1  -7 -27  172.36    7.59
   1   7 -26  124.73    7.15
  -1  -7 -26  136.62    6.79
   1   7 -25   26.57    3.45
  -1  -7 -25   23.04    2.86
   1   7 -24   24.83    3.40
  -1  -7 -24   30.75    3.24
  -1  -7 -23   62.45    3.97
  -1  -7 -23   69.83    4.82
   1   7 -23   59.46    5.11
  -1  -7 -22  105.00    5.14
  -1  -7 -22  116.97    6.20
   1   7 -22  105.49    6.64
   1   7 -22  105.18    5.78
  -1  -7 -21  527.64   12.49
  -1  -7 -21  526.10   13.76
   1   7 -21  516.48   15.08
   1   7 -21  493.42   13.33
  -1  -7 -20  135.56    5.87
  -1  -7 -20  144.29    6.62
   1   7 -20  133.63    7.26
   1   7 -20  139.27    6.56
  -1  -7 -19  239.44    8.55
   1   7 -19  246.07    9.64
   1   7 -19  237.95    8.62
  -1  -7 -18  565.93   13.66
   1   7 -18  579.39   15.13
   1   7 -18  557.57   13.86
  -1  -7 -17  380.45   10.55
   1   7 -17  397.57   11.91
   1   7 -17  364.03   10.66
  -1  -7 -16   89.25    4.74
   1   7 -16   92.72    5.48
   1   7 -16   91.17    4.96
  -1  -7 -15   94.51    4.75
   1   7 -15  102.56    5.69
   1   7 -15   97.27    5.01
  -1  -7 -14 1113.42   19.52
   1   7 -14 1085.62   19.96
  -1  -7 -13  480.66   11.06
  -1  -7 -13  488.08    9.48
   1   7 -13  486.29   14.42
   1   7 -13  476.55   11.40
  -1  -7 -12   36.17    2.71
  -1  -7 -12   38.04    2.31
   1   7 -12   34.39    2.76
   1  -7  11  267.87    7.05
  -1   7  11  271.79    7.45
  -1  -7 -11  287.30    7.75
  -1  -7 -11  287.32    6.84
   1   7 -11  283.81    7.99
  -1   7  10 1229.16   16.82
   1  -7  10 1203.05   18.57
  -1   7  10 1196.80   19.32
   1  -7  10 1189.46   18.42
  -1  -7 -10 1251.02   18.53
   1   7 -10 1209.47   20.01
   1  -7   9  881.49   15.94
   1  -7   9  876.08   14.27
  -1   7   9  903.23   12.73
  -1   7   9  842.44   14.97
  -1  -7  -9  886.25   15.36
   1  -7   9  905.49   16.36
   1  -7   9  876.82   14.58
  -1  -7  -9  891.42   14.45
   1   7  -9  879.31   15.71
  -1   7   8 1003.96   13.66
   1  -7   8  959.13   15.12
   1   7  -8 1014.61   17.14
   1  -7   8  990.54   15.84
  -1  -7  -8 1000.90   15.73
  -1   7   8  945.93   16.09
  -1  -7  -8  995.85   16.34
   1  -7   8 1016.61   17.47
  -1  -7  -7 1196.81   18.35
   1  -7   7 1212.60   16.97
  -1   7   7 1209.32   15.30
   1  -7   7 1223.06   17.98
  -1  -7  -7 1205.48   17.75
  -1  -7  -7 1221.45   18.24
   1  -7   7 1209.78   19.32
  -1   7   7 1206.77   18.31
   1   7  -6 2006.73   27.47
  -1   7   6 2042.73   24.54
   1  -7   6 1996.82   28.16
  -1  -7  -6 2002.82   24.25
   1  -7   6 1994.88   26.13
  -1  -7  -6 2040.29   27.34
   1  -7   6 2046.61   27.59
  -1  -7  -6 2027.02   27.68
   1  -7   6 2007.60   28.76
  -1   7   6 1970.68   27.77
   1  -7   5  369.11    8.25
   1  -7   5  358.18    6.79
   1   7  -5  365.79    7.74
  -1   7   5  364.93    5.76
   1  -7   5  358.65    8.54
  -1  -7  -5  352.21    6.01
  -1  -7  -5  353.18    7.75
   1  -7   5  355.58    7.85
  -1  -7  -5  359.89    7.97
  -1   7   5  356.82    8.07
  -1   7   4 1354.13   17.00
   1   7  -4 1429.61   19.68
  -1  -7  -4 1373.54   17.90
   1  -7   4 1361.23   20.91
   1  -7   4 1332.15   18.16
   1  -7   4 1411.15   20.41
  -1  -7  -4 1368.87   19.94
   1  -7   4 1366.16   20.07
  -1   7   4 1361.27   20.29
  -1  -7  -4 1386.35   20.06
  -1  -7  -3  351.17    7.84
  -1  -7  -3  356.64    6.56
   1   7  -3  357.95    7.31
   1  -7   3  369.51    6.38
   1  -7   3  374.23    7.95
   1  -7   3  362.65    8.33
  -1   7   3  362.55    5.65
  -1  -7  -3  349.88    7.75
   1  -7   3  364.36    7.88
  -1   7   3  348.85    7.97
  -1  -7  -3  365.51    7.83
   1  -7   2 1480.67   21.76
  -1   7   2 1491.06   18.17
  -1  -7  -2 1492.34   19.69
  -1  -7  -2 1498.65   21.28
   1  -7   2 1450.88   20.91
   1  -7   2 1447.34   18.71
   1   7  -2 1445.04   20.15
   1  -7   2 1425.60   21.06
  -1  -7  -2 1476.35   21.04
  -1   7   2 1507.18   21.62
  -1  -7  -1 1294.71   17.66
  -1  -7  -1 1286.27   19.13
  -1   7   1 1312.78   16.33
   1   7  -1 1247.89   17.93
  -1  -7  -1 1282.52   17.87
   1  -7   1 1310.72   18.75
   1  -7   1 1285.13   16.47
   1  -7   1 1305.24   19.14
  -1  -7  -1 1308.47   19.06
   1  -7   0   19.81    1.02
   1   7   0   17.15    1.32
  -1  -7   0   19.28    1.35
  -1   7   0   21.23    1.13
  -1  -7   0   23.19    1.56
  -1  -7   0   19.56    1.69
   1  -7   0   16.79    1.41
  -1  -7   0   21.56    1.75
   1  -7   0   20.71    1.74
  -1  -7   0   16.18    1.51
   1  -7   0   19.30    1.62
  -1  -7   1 1279.63   17.76
  -1  -7   1 1325.03   19.20
  -1  -7   1 1282.63   18.31
   1   7   1 1283.00   17.65
   1  -7  -1 1292.13   18.14
  -1  -7   1 1276.38   18.89
   1  -7  -1 1233.20   18.64
  -1  -7   2 1488.15   20.96
   1  -7  -2 1509.28   21.59
  -1  -7   2 1513.56   20.30
   1  -7  -2 1481.41   20.20
   1   7   2 1494.65   19.98
  -1  -7   2 1499.63   21.55
  -1  -7   2 1493.58   21.30
   1  -7  -2 1438.28   21.04
  -1  -7   3  359.34    7.73
   1   7   3  374.91    6.99
  -1  -7   3  374.12    7.28
   1  -7  -3  369.90    6.95
   1  -7  -3  362.41    7.99
  -1  -7   3  372.39    8.06
   1  -7  -3  355.42    7.82
  -1  -7   3  350.98    7.76
   1   7   3  360.84    8.13
   1  -7  -3  356.92    7.77
  -1  -7   4 1410.52   19.25
  -1  -7   4 1372.98   20.27
   1  -7  -4 1360.90   20.05
   1   7   4 1323.85   18.55
  -1  -7   4 1399.42   20.15
   1  -7  -4 1374.62   18.31
   1  -7  -4 1317.61   19.83
  -1  -7   4 1372.17   19.97
   1   7   4 1330.49   20.39
  -1  -7   5  359.39    7.36
  -1  -7   5  362.42    8.03
   1  -7  -5  349.09    7.77
  -1  -7   5  325.46    7.79
   1  -7  -5  342.06    6.22
   1   7   5  349.65    6.84
   1  -7  -5  346.32    7.66
  -1  -7   5  348.80    7.65
   1   7   5  345.93    8.08
  -1  -7   6 2093.36   28.17
   1  -7  -6 1995.19   27.46
  -1  -7   6 1982.74   26.90
   1   7   6 2034.61   26.22
   1  -7  -6 1999.59   24.65
  -1  -7   6 1959.37   27.79
   1  -7  -6 2012.19   27.41
  -1  -7   6 2005.47   27.22
   1   7   6 1998.94   28.11
   1   7   7 1235.10   17.46
   1  -7  -7 1212.40   18.47
  -1  -7   7 1202.31   18.13
  -1  -7   7 1241.82   19.14
   1  -7  -7 1213.82   18.29
  -1  -7   7 1205.58   18.24
   1   7   7 1152.55   18.93
  -1  -7   8 1012.89   16.77
   1   7   8 1000.18   15.21
  -1  -7   8  985.42   15.93
   1  -7  -8 1000.75   16.13
   1   7   8  987.64   16.79
   1  -7  -8 1017.42   15.95
  -1  -7   8 1014.87   15.83
  -1  -7   9  850.46   14.67
   1   7   9  860.00   13.82
   1  -7  -9  876.84   14.70
  -1  -7   9  888.19   15.71
   1   7   9  850.10   15.42
  -1  -7   9  884.10   15.40
   1  -7  -9  854.88   14.37
  -1  -7   9  890.68   14.33
  -1   7  -9  867.22   14.54
   1  -7 -10 1250.40   19.21
  -1  -7  10 1247.39   19.51
   1   7  10 1236.56   18.40
  -1  -7  10 1272.79   20.03
   1  -7 -10 1262.84   18.78
  -1  -7  10 1217.19   18.56
  -1   7 -10 1197.27   18.88
   1  -7 -11  298.99    7.45
   1   7  11  287.51    6.94
  -1  -7  11  292.69    7.72
  -1  -7  11  293.12    6.96
   1  -7 -11  293.62    6.96
  -1   7 -11  275.64    7.19
   1  -7 -12   37.99    2.53
   1   7  12   39.72    2.45
  -1   7 -12   33.80    2.42
   1  -7 -13  500.94    9.28
  -1   7 -13  465.79    9.10
   1  -7 -14 1163.43   18.54
  -1   7 -14 1108.11   18.57
   1  -7 -15   84.41    3.92
  -1   7 -15   89.68    5.71
   1  -7 -16   92.26    4.17
  -1   7 -16   95.96    5.54
   1  -7 -17  386.30    9.26
  -1   7 -17  386.53   11.58
   1  -7 -18  551.09   11.63
  -1   7 -18  555.16   14.56
  -1   7 -19  232.93    9.21
  -1   7 -20  135.52    7.02
  -1   7 -21  525.03   14.83
  -1   7 -22  112.06    6.58
  -1   7 -23   72.02    5.41
  -1   7 -24   28.37    3.57
  -1   7 -24   26.81    3.32
  -1   7 -25   35.93    3.86
  -1   7 -25   33.05    3.62
  -1   7 -26  134.15    7.10
  -1   7 -26  128.36    6.85
  -1   7 -27  159.40    7.59
  -1   7 -27  155.94    7.41
  -1   7 -28   33.42    3.47
  -1   7 -28   33.40    3.47
  -1   7 -29  162.83    7.06
  -1   7 -29  165.13    7.12
   1  -7 -30  209.47    7.41
  -1   7 -30  207.23    7.67
   1   8 -30   66.91    4.14
  -1  -8 -30   67.38    4.03
   1   8 -29  114.03    5.99
   1   8 -29  116.77    5.72
  -1  -8 -29  113.50    5.45
   1   8 -28    3.18    1.59
  -1  -8 -28    6.25    1.51
   1   8 -27   86.13    5.67
  -1  -8 -27   79.11    4.91
   1   8 -26   65.03    5.12
  -1  -8 -26   65.12    4.62
   1   8 -25  177.89    8.58
  -1  -8 -25  181.57    7.81
   1   8 -24    2.40    1.63
  -1  -8 -24    2.13    1.33
  -1  -8 -23  274.47    8.58
  -1  -8 -23  308.88   10.59
   1   8 -23  290.98   11.31
  -1  -8 -22   35.85    3.19
  -1  -8 -22   49.65    4.18
   1   8 -22   46.40    4.56
   1   8 -22   38.90    3.60
  -1  -8 -21  104.63    5.29
  -1  -8 -21  115.06    6.22
   1   8 -21  120.50    7.00
   1   8 -21  105.42    5.77
  -1  -8 -20   43.33    3.43
  -1  -8 -20   42.25    3.81
   1   8 -20   42.04    4.19
   1   8 -20   44.10    3.75
  -1  -8 -19   24.99    2.66
  -1  -8 -19   29.87    3.11
   1   8 -19   25.81    3.32
   1   8 -19   24.26    2.89
  -1  -8 -18  361.43   10.12
  -1  -8 -18  363.02   10.84
   1   8 -18  347.99   11.75
   1   8 -18  355.01   10.82
  -1  -8 -17  117.79    5.45
  -1  -8 -17  122.78    6.02
   1   8 -17  122.98    6.62
   1   8 -17  114.79    5.85
  -1  -8 -16  276.52    8.54
  -1  -8 -16  301.97    9.42
   1   8 -16  285.11   10.12
   1   8 -16  282.26    9.28
  -1  -8 -15    3.31    1.27
  -1  -8 -15    3.08    1.33
   1   8 -15    3.22    1.31
  -1  -8 -14  276.14    8.26
  -1  -8 -14  265.36    8.47
   1   8 -14  258.19    8.50
  -1  -8 -13   49.25    3.33
  -1  -8 -13   51.19    3.48
   1   8 -13   49.46    6.31
  -1  -8 -13   51.94    2.90
   1   8 -13   48.84    3.47
  -1  -8 -12   66.35    3.77
  -1  -8 -12   59.47    3.69
  -1  -8 -12   62.97    3.23
   1   8 -12   61.45    3.79
  -1  -8 -11    9.51    1.63
  -1  -8 -11   13.25    1.75
  -1  -8 -11    8.74    1.37
   1  -8  11    9.02    1.41
   1   8 -11    8.79    1.55
   1  -8  10   55.71    2.94
  -1  -8 -10   57.59    3.40
   1  -8  10   49.32    3.47
  -1  -8 -10   53.32    3.25
   1  -8  10   48.26    2.89
  -1  -8 -10   53.26    2.98
   1   8 -10   48.74    3.25
   1  -8   9  435.52    9.09
  -1  -8  -9  457.09   10.33
  -1  -8  -9  437.51    9.99
   1  -8   9  461.74   11.19
  -1  -8  -9  450.29    9.58
   1  -8   9  435.07    9.67
   1   8  -9  445.83   10.54
   1  -8   8   14.03    1.41
  -1  -8  -8   15.08    1.76
   1  -8   8   14.09    1.65
  -1  -8  -8   14.79    1.62
   1  -8   8   16.31    2.01
  -1   8   8   13.24    1.63
  -1  -8  -8   13.75    1.69
  -1  -8  -7  335.48    8.36
   1  -8   7  345.61    7.20
  -1  -8  -7  305.72    4.90
   1  -8   7  342.72    8.14
  -1  -8  -7  338.13    8.02
  -1   8   7  327.44    8.28
   1  -8   7  342.40    9.01
  -1  -8  -7  340.13    8.23
   1  -8   6   61.13    2.61
  -1  -8  -6   56.83    1.95
   1  -8   6   64.39    3.42
  -1   8   6   60.42    1.96
   1   8  -6   60.84    3.09
   1  -8   6   60.37    3.55
   1  -8   6   59.41    3.15
  -1  -8  -6   64.94    3.25
  -1   8   6   56.99    3.20
  -1  -8  -6   59.84    3.19
  -1  -8  -5  582.65    9.15
   1  -8   5  589.87    9.85
  -1   8   5  591.81    8.53
   1  -8   5  606.27   11.86
   1  -8   5  587.21   12.31
   1   8  -5  587.96   11.10
  -1  -8  -5  594.03   11.40
   1  -8   5  568.32   11.33
  -1  -8  -5  578.46   11.43
  -1   8   5  592.60   11.81
  -1  -8  -4    8.32    0.90
   1  -8   4    7.32    1.21
   1  -8   4    4.83    0.73
  -1   8   4    7.83    0.67
   1   8  -4    6.85    1.03
  -1  -8  -4    5.13    1.16
   1  -8   4    5.71    1.15
  -1   8   4   10.42    1.44
  -1  -8  -4    6.10    1.13
   1  -8   4    7.16    1.44
   1  -8   3  220.44    6.14
  -1  -8  -3  209.17    4.92
   1  -8   3  200.54    6.41
  -1  -8  -3  213.25    6.19
   1   8  -3  211.33    5.58
  -1   8   3  208.61    3.99
   1  -8   3  208.80    4.60
  -1  -8  -3  207.41    6.03
   1  -8   3  206.08    6.03
  -1  -8  -3  207.22    6.00
  -1   8   3  204.71    6.16
  -1   8   2  288.63    4.99
   1  -8   2  288.88    7.66
  -1  -8  -2  284.47    7.28
   1   8  -2  277.97    6.43
  -1  -8  -2  270.96    6.05
   1  -8   2  281.01    7.01
   1  -8   2  285.79    5.37
   1  -8   2  269.97    7.08
  -1  -8  -2  275.86    7.09
  -1   8   2  281.64    7.38
   1  -8   1 2621.78   34.17
  -1  -8  -1 2656.95   33.27
   1  -8   1 2553.57   35.23
  -1  -8  -1 2591.96   34.86
   1   8  -1 2631.24   33.22
  -1   8   1 2592.31   31.16
   1  -8   1 2538.72   31.19
   1  -8   1 2631.70   34.81
   1   8  -1 2606.78   35.33
  -1  -8  -1 2600.07   34.63
  -1  -8   0   10.24    1.11
  -1  -8   0   10.74    1.49
   1   8   0   10.38    1.15
  -1   8   0   13.33    0.98
  -1  -8   0   11.37    1.23
   1  -8   0   10.26    1.47
  -1  -8   0    8.82    1.42
   1  -8  -1 2630.12   34.06
  -1  -8   1 2646.65   34.33
  -1  -8   1 2642.37   33.47
   1   8   1 2686.41   33.49
  -1  -8   1 2635.83   35.43
  -1  -8   1 2607.65   35.12
  -1  -8   2  282.64    7.36
   1  -8  -2  275.85    6.35
  -1  -8   2  282.95    6.35
   1   8   2  290.59    6.25
   1  -8  -2  289.28    7.43
  -1  -8   2  290.25    6.94
  -1  -8   2  292.30    7.30
   1  -8  -3  205.11    5.12
   1   8   3  203.50    5.07
  -1  -8   3  203.74    5.30
   1  -8  -3  203.06    6.07
  -1  -8   3  209.49    6.23
  -1  -8   3  208.62    5.88
   1  -8  -3  204.65    6.01
  -1  -8   3  214.04    6.09
   1   8   3  196.23    6.16
  -1  -8   4    7.06    1.05
   1   8   4    6.77    0.94
   1  -8  -4    7.83    0.95
  -1  -8   4    6.44    1.25
   1   8   4    5.22    1.11
   1  -8  -4    4.46    1.13
  -1  -8   4    7.66    1.35
  -1  -8   5  589.32   11.56
   1   8   5  595.00   10.18
   1  -8  -5  570.81   11.37
  -1  -8   5  585.38   10.65
   1  -8  -5  565.46    9.43
  -1  -8   5  583.72   11.68
   1  -8  -5  588.24   11.37
  -1  -8   5  590.15   11.35
   1   8   5  562.66   11.74
   1  -8  -6   61.48    3.25
  -1  -8   6   61.64    3.37
   1   8   6   60.50    2.67
  -1  -8   6   65.32    3.02
  -1  -8   6   65.45    3.43
   1  -8  -6   61.98    2.21
   1  -8  -6   57.31    3.11
  -1  -8   6   59.69    3.12
   1   8   6   57.96    3.28
  -1  -8   7  339.73    7.79
   1  -8  -7  341.06    8.24
  -1  -8   7  351.00    8.68
   1   8   7  350.66    7.27
   1  -8  -7  340.41    8.17
  -1  -8   7  342.38    8.04
  -1  -8   8   12.54    1.68
   1  -8  -8   13.81    1.72
  -1  -8   8   14.65    1.61
   1   8   8   14.52    1.42
   1  -8  -8   14.78    1.66
  -1  -8   8   15.62    1.69
   1  -8  -9  454.98   10.00
  -1  -8   9  443.96    9.70
   1   8   9  449.27    8.98
  -1  -8   9  453.17   10.46
   1  -8  -9  437.06    9.64
  -1  -8   9  446.70    9.66
  -1   8  -9  438.95    9.74
   1   8  10   54.75    2.81
   1  -8 -10   55.16    3.19
  -1  -8  10   58.65    3.50
   1  -8 -10   58.72    3.17
  -1  -8  10   57.65    3.10
  -1   8 -10   58.59    3.19
  -1  -8  11    6.79    1.39
   1  -8 -11    4.53    1.15
   1  -8 -11    5.58    1.16
  -1  -8  11    3.40    1.08
  -1   8 -11    7.80    1.30
   1  -8 -12   67.31    3.60
  -1  -8  12   57.93    3.10
  -1   8 -12   65.47    3.50
   1  -8 -13   42.31    2.93
  -1   8 -13   39.32    2.80
   1  -8 -14  277.64    7.70
  -1   8 -14  257.95    7.50
  -1   8 -15   11.37    3.09
   1  -8 -15    6.21    1.36
   1  -8 -16  286.32    8.07
  -1   8 -16  282.95   10.39
   1  -8 -17  117.53    5.03
  -1   8 -17  143.64    7.11
   1  -8 -18  371.27    9.43
  -1   8 -18  352.48   11.66
   1  -8 -19   24.97    2.36
  -1   8 -19   23.97    3.10
  -1   8 -20   42.89    4.12
  -1   8 -21   96.26    6.15
  -1   8 -22   39.03    4.03
  -1   8 -23  279.78   10.72
  -1   8 -24    1.57    1.35
  -1   8 -25  160.61    7.88
  -1   8 -25  162.24    7.72
  -1   8 -26   58.59    4.66
  -1   8 -26   60.89    4.66
  -1   8 -27   84.89    5.39
  -1   8 -27   78.12    5.09
  -1   8 -28    3.06    1.51
  -1   8 -28    5.60    1.62
  -1   8 -29  115.49    5.74
  -1   8 -29  113.99    5.68
  -1   8 -30   63.59    4.02
   1  -8 -30   60.93    3.79
   1   9 -29  178.65    7.22
   1   9 -29  172.08    6.74
  -1  -9 -29  172.55    6.54
   1   9 -28   34.74    3.48
   1   9 -28   34.65    3.25
  -1  -9 -28   36.81    3.18
   1   9 -27   80.39    5.30
  -1  -9 -27   77.94    4.75
   1   9 -26  245.58    9.73
  -1  -9 -26  219.99    8.30
   1   9 -25   47.30    4.41
  -1  -9 -25   49.45    3.93
   1   9 -24   21.90    3.22
  -1  -9 -24   24.70    2.85
  -1  -9 -23   88.98    4.77
   1   9 -23   97.21    6.40
  -1  -9 -23   99.90    5.77
  -1  -9 -22  267.24    8.66
  -1  -9 -22  293.93   10.06
   1   9 -22  273.59   10.92
  -1  -9 -21  473.47   12.11
  -1  -9 -21  464.91   13.18
   1   9 -21  447.85   12.61
  -1  -9 -20   42.37    3.49
  -1  -9 -20   50.94    4.11
   1   9 -20   44.91    4.38
   1   9 -20   35.52    3.45
  -1  -9 -19  301.15    9.40
  -1  -9 -19  306.14   10.18
   1   9 -19  291.58   11.01
   1   9 -19  274.32    9.62
  -1  -9 -18  614.47   14.21
  -1  -9 -18  610.94   14.89
   1   9 -18  604.46   16.36
   1   9 -18  592.85   14.84
  -1  -9 -17   26.24    2.79
  -1  -9 -17   28.46    3.06
   1   9 -17   28.82    3.67
   1   9 -17   25.40    2.94
  -1  -9 -16   91.31    4.93
  -1  -9 -16   87.82    5.08
   1   9 -16   95.42    6.13
   1   9 -16   82.29    5.02
  -1  -9 -15   60.96    3.99
  -1  -9 -15   66.58    4.40
   1   9 -15   60.28    4.20
  -1  -9 -14  479.67   11.82
  -1  -9 -14  462.47   11.83
  -1  -9 -14  478.37   10.39
   1   9 -14  478.84   16.06
   1   9 -14  453.40   12.09
  -1  -9 -13  774.60   15.32
  -1  -9 -13  775.21   15.35
  -1  -9 -13  752.41   13.65
   1   9 -13  737.13   15.54
  -1  -9 -12   31.57    2.78
  -1  -9 -12   35.34    2.97
  -1  -9 -12   32.86    2.56
   1   9 -12   26.49    2.71
  -1  -9 -11  151.41    5.99
  -1  -9 -11  142.96    5.80
  -1  -9 -11  145.18    5.35
   1  -9  11  150.40    5.51
   1   9 -11  149.48    6.14
  -1  -9 -10  497.80   11.63
  -1  -9 -10  486.17   11.33
   1  -9  10  486.75   12.31
  -1  -9 -10  480.81   10.66
   1  -9  10  489.26   10.87
   1   9 -10  466.01   11.49
  -1  -9  -9   33.48    2.78
   1  -9   9   31.23    2.22
  -1  -9  -9   38.65    2.90
   1  -9   9   37.73    3.18
   1  -9   9   37.68    2.76
  -1  -9  -9   39.53    2.75
   1   9  -9   35.86    2.91
   1  -9   8    4.58    0.90
  -1  -9  -8    4.10    1.16
   1  -9   8    3.82    1.17
  -1  -9  -8    3.60    1.27
  -1  -9  -8    4.70    1.15
   1  -9   8    4.97    1.43
   1  -9   7 1272.86   18.85
  -1  -9  -7 1320.74   21.41
  -1  -9  -7 1316.27   20.74
   1  -9   7 1273.00   20.77
  -1  -9  -7 1257.75   20.82
   1  -9   7 1285.86   22.23
  -1  -9  -6 1334.15   17.89
   1  -9   6 1347.02   19.41
   1  -9   6 1422.51   21.98
  -1  -9  -6 1390.73   21.70
  -1  -9  -6 1411.03   21.93
   1  -9   6 1397.93   23.21
   1   9  -5 2136.26   29.31
   1  -9   5 2099.25   27.17
   1  -9   5 2149.49   31.46
   1  -9   5 2104.45   29.97
  -1  -9  -5 2139.29   29.99
  -1  -9  -5 2145.55   30.04
  -1  -9  -4    9.64    1.08
   1  -9   4   15.45    2.09
   1  -9   4   10.70    1.54
   1  -9   4   11.46    1.10
   1   9  -4    9.18    1.32
  -1  -9  -4   14.06    1.74
   1  -9   4   11.12    1.62
  -1  -9  -4   12.13    1.62
  -1  -9  -3 1181.02   19.68
  -1  -9  -3 1178.76   17.39
   1  -9   3 1223.54   20.62
   1  -9   3 1180.03   16.52
   1   9  -3 1250.66   18.65
   1  -9   3 1216.01   19.54
  -1  -9  -3 1188.73   19.57
   1  -9   3 1254.07   19.95
  -1  -9  -3 1193.31   19.52
   1  -9   2  797.78   15.14
  -1  -9  -2  769.28   14.39
   1  -9   2  747.49   11.24
   1  -9   2  775.85   13.96
  -1  -9  -2  744.24   12.53
   1   9  -2  777.95   13.17
   1  -9   2  761.33   14.30
  -1  -9  -2  778.42   14.29
   1  -9   1    0.74    0.67
  -1  -9  -1    1.29    0.60
   1   9  -1    2.36    0.76
   1  -9   1    1.40    0.93
  -1  -9  -1    3.12    1.09
  -1  -9   0   23.72    1.87
  -1  -9   0   22.26    2.13
   1   9   0   22.38    1.71
   1  -9   0   20.73    1.80
   1  -9   0   20.84    2.09
  -1  -9   0   23.82    2.20
  -1  -9   1    1.48    0.68
   1  -9  -1    1.32    0.64
   1   9   1    3.88    0.86
  -1  -9   1    3.87    1.19
  -1  -9   1    3.30    1.16
   1  -9  -2  754.56   14.56
   1   9   2  776.37   12.73
  -1  -9   2  756.22   12.78
  -1  -9   2  796.41   14.79
   1  -9  -2  759.72   13.03
  -1  -9   2  794.42   13.88
  -1  -9   2  777.60   14.43
   1  -9  -3 1181.08   17.82
  -1  -9   3 1218.34   20.06
  -1  -9   3 1186.46   19.14
   1   9   3 1202.15   17.73
  -1  -9   3 1231.87   18.15
   1  -9  -3 1207.09   19.87
  -1  -9   3 1192.41   19.62
   1  -9  -3 1193.39   19.62
   1  -9  -4   11.65    1.23
  -1  -9   4    9.87    1.28
   1   9   4   10.01    1.19
  -1  -9   4   10.75    1.49
  -1  -9   4   13.67    1.82
   1  -9  -4   13.05    1.68
  -1  -9   4   12.70    1.70
   1  -9  -4   13.30    1.71
   1   9   5 2116.76   28.41
   1  -9  -5 2094.69   27.63
   1  -9  -5 2184.36   30.92
  -1  -9   5 2204.59   31.37
  -1  -9   5 2196.09   29.29
  -1  -9   5 2132.30   30.48
   1  -9  -5 2096.17   30.45
   1   9   6 1409.11   20.09
   1  -9  -6 1314.65   18.48
  -1  -9   6 1428.73   22.73
  -1  -9   6 1400.52   20.91
   1  -9  -6 1366.31   22.01
  -1  -9   6 1465.83   22.16
   1  -9  -6 1406.99   21.99
   1  -9  -7 1334.61   21.31
  -1  -9   7 1289.69   21.61
  -1  -9   7 1292.99   20.09
   1   9   7 1319.40   19.25
  -1  -9   7 1259.31   20.72
   1  -9  -7 1305.02   20.96
   1  -9  -8    5.09    1.27
  -1  -9   8    7.20    1.44
  -1  -9   8    6.70    1.45
   1  -9  -8    4.58    1.28
   1  -9  -9   43.95    3.05
  -1  -9   9   41.71    3.10
   1  -9  -9   43.79    2.92
  -1   9  -9   43.50    2.93
  -1  -9   9   45.77    2.97
   1  -9 -10  475.57   10.98
  -1  -9  10  485.01   11.61
   1  -9 -10  464.93   10.53
  -1  -9  10  473.92   10.54
  -1   9 -10  444.95   10.37
   1  -9 -11  156.02    5.90
  -1  -9  11  159.74    6.33
   1  -9 -11  163.74    5.71
  -1  -9  11  148.45    5.44
  -1   9 -11  140.69    5.45
   1  -9 -12   27.02    2.53
  -1  -9  12   30.78    2.49
  -1   9 -12   26.75    2.43
   1  -9 -13  788.58   15.15
  -1   9 -13  685.59   14.26
   1  -9 -14  503.82   10.84
  -1   9 -14  106.96   10.22
   1  -9 -15   59.19    3.71
  -1   9 -15   78.22    6.80
   1  -9 -16   88.82    4.57
  -1   9 -16   98.24    6.54
   1  -9 -17   26.52    2.58
  -1   9 -17   30.15    3.57
   1  -9 -18  585.39   12.91
  -1   9 -18  580.40   15.79
   1  -9 -19  265.86    8.14
  -1   9 -19  308.60   11.05
  -1   9 -20   42.98    4.23
  -1   9 -21  483.13   14.45
  -1   9 -22  252.28   10.19
  -1   9 -23   95.61    6.23
  -1   9 -24   19.39    3.04
  -1   9 -25   42.59    4.04
  -1   9 -25   40.11    3.79
  -1   9 -26  244.59    9.35
  -1   9 -26  228.58    8.89
  -1   9 -27   68.51    4.75
  -1   9 -27   69.64    4.66
  -1   9 -28   35.16    3.33
  -1   9 -28   37.77    3.38
   1  -9 -29  160.32    6.25
  -1   9 -29  172.83    6.75
   1  10 -28    7.89    1.81
  -1 -10 -28    9.83    1.66
   1  10 -28    7.01    1.53
   1  10 -27   52.14    4.12
   1  10 -27   51.55    3.89
  -1 -10 -27   48.20    3.61
   1  10 -26   24.78    3.13
  -1 -10 -26   23.51    2.74
   1  10 -25   94.84    6.00
  -1 -10 -25   82.68    5.06
   1  10 -24   16.83    3.07
  -1 -10 -24   17.32    2.57
   1  10 -23  258.60   10.40
  -1 -10 -23  262.71    9.44
   1  10 -22    8.81    2.41
  -1 -10 -22   12.58    2.35
  -1 -10 -22    8.66    1.85
  -1 -10 -21   47.74    3.72
  -1 -10 -21   56.67    4.39
   1  10 -21   48.19    4.65
  -1 -10 -20   24.49    2.81
  -1 -10 -20   22.97    2.94
   1  10 -20   25.30    3.49
   1  10 -20   24.34    2.91
  -1 -10 -19  105.22    5.54
  -1 -10 -19  111.29    6.04
   1  10 -19  108.24    6.76
   1  10 -19  107.83    5.93
  -1 -10 -18   87.49    5.04
  -1 -10 -18   80.81    5.11
   1  10 -18   78.00    5.68
   1  10 -18   73.48    4.90
  -1 -10 -17  178.26    7.26
  -1 -10 -17  191.55    7.83
   1  10 -17  197.17    8.88
   1  10 -17  179.17    7.67
  -1 -10 -16  127.03    6.05
  -1 -10 -16  134.37    6.44
   1  10 -16  147.69    7.91
   1  10 -16  123.02    6.31
  -1 -10 -15    8.23    1.82
  -1 -10 -15   10.70    2.08
   1  10 -15    7.62    1.88
  -1 -10 -14  461.56   11.95
  -1 -10 -14  426.39   11.67
   1  10 -14  438.64   16.55
  -1 -10 -14  429.33   10.24
   1  10 -14  409.93   11.71
  -1 -10 -13   28.42    2.87
  -1 -10 -13   35.39    3.18
  -1 -10 -13   33.62    2.73
   1  10 -13   33.37    3.19
  -1 -10 -12   29.65    2.87
  -1 -10 -12   29.22    2.88
  -1 -10 -12   27.90    2.50
   1  10 -12   25.06    2.77
  -1 -10 -11   30.19    2.89
  -1 -10 -11   30.00    2.81
  -1 -10 -11   29.44    2.64
   1  10 -11   29.12    2.90
  -1 -10 -10  131.86    5.82
  -1 -10 -10  112.93    5.33
   1 -10  10  125.07    6.14
   1 -10  10  122.22    5.29
  -1 -10 -10  123.74    5.22
   1  10 -10  129.25    5.83
  -1 -10  -9  338.46    9.66
   1 -10   9  331.10   10.24
  -1 -10  -9  332.46    9.39
   1 -10   9  340.65    9.25
  -1 -10  -9  321.80    8.92
   1  10  -9  323.11    9.66
  -1 -10  -8   86.05    4.61
  -1 -10  -8   81.27    4.24
   1 -10   8   83.09    4.34
   1 -10   8   84.50    4.94
  -1 -10  -8   81.08    4.35
  -1 -10  -7  290.01    8.75
  -1 -10  -7  290.16    8.39
   1 -10   7  305.64    8.64
  -1 -10  -7  298.57    8.55
   1 -10   7  315.59    9.67
   1 -10   6  420.59   10.46
  -1 -10  -6  443.32   10.56
   1 -10   6  414.59   11.33
  -1 -10  -6  426.81   10.52
   1 -10   5   95.01    5.03
  -1 -10  -5   89.76    4.44
   1 -10   5   88.46    4.47
  -1 -10  -5   89.19    4.46
   1  10  -4    9.76    1.42
  -1 -10  -4    8.31    1.57
   1 -10   4    8.60    1.62
  -1 -10  -4    7.09    1.52
   1 -10   4   12.14    1.94
  -1 -10  -4    9.73    1.61
   1 -10   3  164.20    6.50
  -1 -10  -3  145.86    4.59
  -1 -10  -3  158.20    6.04
   1  10  -3  142.89    5.06
   1 -10   3  161.34    6.02
  -1 -10  -3  163.92    6.00
  -1 -10  -3  148.19    5.73
  -1 -10  -2  295.88    7.15
  -1 -10  -2  297.58    8.58
   1  10  -2  301.88    7.52
   1 -10   2  312.54    9.14
   1 -10   2  300.96    8.51
   1 -10   1  561.36   11.73
  -1 -10  -1  564.48   11.04
  -1 -10  -1  601.38   12.89
   1 -10   1  584.35   13.10
   1  10  -1  576.26   11.12
   1 -10   1  572.06   12.53
   1 -10   0    3.69    1.02
   1  10   0    3.54    0.86
  -1 -10   0    3.74    0.94
   1 -10   0    3.41    1.15
  -1 -10   0    3.01    1.25
  -1 -10   0    3.68    1.25
  -1 -10   1  582.98   12.77
   1 -10  -1  540.24   11.09
  -1 -10   1  578.23   11.59
  -1 -10   1  580.11   12.50
  -1 -10   2  309.42    8.84
  -1 -10   2  297.50    7.14
   1 -10  -2  296.93    7.38
  -1 -10   2  320.49    8.74
  -1 -10   3  150.12    4.87
  -1 -10   3  161.10    6.21
   1 -10  -3  141.25    4.72
   1 -10  -3  152.29    6.00
   1 -10  -3  154.79    5.90
  -1 -10   3  149.35    5.79
   1 -10  -4    7.92    1.11
  -1 -10   4   11.71    1.91
  -1 -10   4    7.55    1.20
   1 -10  -4   17.70    2.07
   1 -10  -4    7.96    1.52
  -1 -10   4   18.09    2.03
   1 -10  -5   92.26    4.60
  -1 -10   5   87.63    4.63
   1 -10  -5   87.88    4.41
  -1 -10   5   91.88    4.49
  -1 -10   6  439.31   11.18
   1 -10  -6  430.67   10.75
   1 -10  -6  442.93   10.71
  -1 -10   6  438.26   10.64
  -1 -10   7  299.34    9.00
   1 -10  -7  291.63    8.63
  -1 -10   7  279.64    8.19
   1 -10  -7  293.42    8.45
  -1 -10   8   91.01    4.85
   1 -10  -8   86.35    4.59
   1 -10  -8   91.87    4.53
  -1 -10   8   93.79    4.56
   1 -10  -9  341.96    9.49
  -1 -10   9  333.58    9.79
  -1  10  -9  339.13    9.18
   1 -10  -9  332.44    9.16
  -1 -10   9  308.46    8.77
   1 -10 -10  127.48    5.59
  -1 -10  10  125.47    5.83
   1 -10 -10  133.43    5.47
  -1 -10  10  126.21    5.34
  -1  10 -10  116.98    5.13
   1 -10 -11   26.08    2.65
  -1 -10  11   25.45    2.77
  -1 -10  11   28.24    2.56
   1 -10 -11   29.07    2.54
  -1  10 -11   26.92    2.49
   1 -10 -12   25.49    2.60
  -1 -10  12   27.44    2.52
  -1  10 -12   25.88    2.52
   1 -10 -13   26.62    2.65
  -1 -10  13   29.71    2.59
  -1  10 -13   25.69    2.54
   1 -10 -14  427.45   10.47
  -1  10 -14   82.32   10.92
  -1  10 -15   22.76    5.70
   1 -10 -15   10.06    1.90
   1 -10 -16  135.55    5.91
  -1  10 -16  147.88    8.42
   1 -10 -17  176.19    6.79
  -1  10 -17  211.38    9.35
   1 -10 -18   85.80    4.65
  -1  10 -18   99.25    6.26
   1 -10 -19  103.98    5.04
  -1  10 -19  120.18    6.87
  -1  10 -20   18.06    3.07
  -1  10 -21   45.75    4.38
  -1  10 -22   15.04    2.86
  -1  10 -23  253.65   10.08
  -1  10 -24   18.13    2.95
  -1  10 -25   86.91    5.51
  -1  10 -25   83.78    5.32
  -1  10 -26   21.81    2.86
  -1  10 -26   23.73    2.86
  -1  10 -27   48.30    3.88
  -1  10 -27   51.35    3.90
  -1  10 -28   10.20    1.83
   1 -10 -28   10.98    1.74
   1  11 -27  213.21    7.96
   1  11 -27  197.18    7.26
  -1 -11 -27  195.56    7.00
   1  11 -26  186.53    7.80
   1  11 -26  197.02    7.55
  -1 -11 -26  196.39    7.23
   1  11 -25   26.78    3.28
  -1 -11 -25   24.94    2.79
   1  11 -25   26.67    2.92
   1  11 -24   23.40    3.23
  -1 -11 -24   34.20    3.21
   1  11 -23   47.68    4.46
  -1 -11 -23   54.11    4.15
   1  11 -22  173.40    8.49
  -1 -11 -22  177.39    7.58
  -1 -11 -21  661.27   15.10
  -1 -11 -21  681.09   16.28
  -1 -11 -20   34.52    3.29
  -1 -11 -20   39.78    3.71
   1  11 -20   36.16    4.07
  -1 -11 -19  678.60   15.64
  -1 -11 -19  691.17   16.37
   1  11 -19  696.68   18.14
   1  11 -19  639.02   15.71
  -1 -11 -18  571.43   14.16
  -1 -11 -18  574.84   14.69
   1  11 -18  563.63   16.16
   1  11 -18  536.18   14.24
  -1 -11 -17   64.13    4.55
  -1 -11 -17   72.30    4.88
   1  11 -17   58.59    4.46
  -1 -11 -16   30.03    3.16
  -1 -11 -16   31.12    3.24
   1  11 -16   35.47    3.50
  -1 -11 -15  108.23    5.74
  -1 -11 -15   96.43    5.58
   1  11 -15   96.58    5.57
  -1 -11 -14  102.18    5.55
  -1 -11 -14  116.48    5.94
  -1 -11 -14  106.90    4.98
   1  11 -14  102.01    5.72
  -1 -11 -13 1187.01   22.29
  -1 -11 -13 1129.57   21.89
  -1 -11 -13 1187.74   20.61
   1  11 -13 1154.34   22.35
  -1 -11 -12   40.33    3.57
  -1 -11 -12   41.67    3.56
  -1 -11 -12   41.87    3.23
   1  11 -12   36.99    3.46
  -1 -11 -11  101.08    5.43
  -1 -11 -11   90.62    5.08
  -1 -11 -11   98.06    4.86
   1  11 -11   90.11    5.18
  -1 -11 -10  665.28   15.16
   1 -11  10  645.58   15.82
  -1 -11 -10  628.12   14.58
  -1 -11 -10  659.84   14.25
   1 -11  10  675.84   14.51
   1  11 -10  625.34   14.93
  -1 -11  -9  145.52    6.43
  -1 -11  -9  147.99    6.29
   1 -11   9  143.24    6.87
   1 -11   9  134.30    5.92
  -1 -11  -9  146.26    6.10
   1  11  -9  136.11    6.35
  -1 -11  -8   12.66    2.00
   1 -11   8   13.74    2.10
   1 -11   8   13.77    2.37
  -1 -11  -8   14.53    2.10
  -1 -11  -8   13.21    2.20
  -1 -11  -7    1.95    1.19
   1 -11   7    0.99    1.20
  -1 -11  -7    1.15    1.13
   1 -11   7    1.42    1.33
  -1 -11  -7    1.53    1.40
   1 -11   6  500.02   12.30
  -1 -11  -6  523.86   12.41
   1 -11   6  525.52   13.58
  -1 -11  -6  522.34   12.55
   1 -11   5 1971.89   31.79
  -1 -11  -5 1930.94   29.98
   1 -11   5 1895.97   30.06
  -1 -11  -5 1925.76   30.06
   1 -11   4  178.92    7.28
  -1 -11  -4  154.39    6.40
   1 -11   4  152.73    6.32
  -1 -11  -4  169.81    6.56
  -1 -11  -4  159.52    6.38
  -1 -11  -3  673.31   14.80
   1 -11   3  691.56   15.63
  -1 -11  -3  661.44   14.42
   1 -11   3  679.68   14.74
  -1 -11  -2  141.74    6.09
   1 -11   2  149.06    6.52
   1 -11   2  138.63    5.99
  -1 -11  -1   19.03    2.33
   1 -11   1   19.56    2.57
   1 -11   1   17.69    2.31
   1 -11   0    3.51    1.35
  -1 -11   0    5.70    1.59
  -1 -11   0    3.80    1.35
  -1 -11   1   27.68    2.78
  -1 -11   1   25.06    2.61
  -1 -11   2  131.74    5.99
  -1 -11   2  139.22    5.94
   1 -11  -3  655.95   14.60
  -1 -11   3  660.73   14.79
   1 -11  -3  631.71   14.14
  -1 -11   3  659.11   14.40
  -1 -11   4  168.06    6.90
   1 -11  -4  168.86    6.81
  -1 -11   4  182.66    6.84
   1 -11  -4  166.75    6.55
   1 -11  -5 1936.24   30.74
  -1 -11   5 1946.23   31.31
   1 -11  -5 1955.50   30.44
  -1 -11   5 1984.93   30.50
   1 -11  -6  524.07   12.77
  -1 -11   6  518.22   13.08
  -1 -11   6  499.64   12.21
   1 -11  -6  520.36   12.45
   1 -11  -7    1.55    1.19
  -1 -11   7    0.14    1.14
  -1 -11   7    1.14    1.28
   1 -11  -7    0.30    1.08
   1 -11  -8   19.98    2.37
  -1 -11   8   13.12    2.09
  -1 -11   8   14.32    2.33
   1 -11  -8   12.35    2.11
   1 -11  -9  142.92    6.29
  -1 -11   9  147.73    6.60
   1 -11  -9  147.23    6.08
  -1  11  -9  134.92    5.87
  -1 -11   9  137.95    5.93
   1 -11 -10  656.52   14.79
  -1 -11  10  647.87   15.18
   1 -11 -10  640.62   14.08
  -1 -11  10  636.11   14.02
  -1  11 -10  627.89   13.89
   1 -11 -11   90.37    5.00
  -1 -11  11   89.95    5.20
  -1 -11  11   90.51    4.74
  -1  11 -11   83.36    4.56
   1 -11 -12   46.10    3.65
  -1 -11  12   40.97    3.23
  -1  11 -12   38.30    3.15
   1 -11 -13 1213.23   22.15
  -1 -11  13 1197.01   21.00
   1 -11 -14  120.50    5.82
  -1  11 -14   91.94   12.04
   1 -11 -15   93.17    5.08
  -1  11 -15  119.61    9.62
   1 -11 -16   32.71    3.09
  -1  11 -16   49.18    5.73
   1 -11 -17   67.22    4.33
  -1  11 -17   80.64    5.89
   1 -11 -18  540.69   12.99
  -1  11 -18  563.37   15.99
   1 -11 -19  672.88   14.58
  -1  11 -19  678.42   17.74
  -1  11 -20   32.56    3.80
  -1  11 -21  689.65   17.69
  -1  11 -22  166.40    8.05
  -1  11 -23   52.70    4.50
  -1  11 -24   27.04    3.36
  -1  11 -25   27.85    3.20
  -1  11 -25   31.92    3.20
  -1  11 -26  191.36    7.66
  -1  11 -26  188.55    7.47
  -1  11 -27  202.92    7.41
   1 -11 -27  195.94    6.90
   1  12 -25    4.19    1.66
   1  12 -25    6.73    1.55
  -1 -12 -25    5.38    1.53
   1  12 -24    5.93    1.93
  -1 -12 -24    6.43    1.75
   1  12 -23   38.29    3.97
  -1 -12 -23   38.41    3.45
   1  12 -22   14.52    2.83
  -1 -12 -22   16.23    2.48
  -1 -12 -21   62.87    4.17
   1  12 -21   58.18    4.92
  -1 -12 -21   58.32    4.34
  -1 -12 -20  105.71    5.52
   1  12 -20   96.78    6.35
  -1 -12 -20   96.42    5.60
  -1 -12 -19   81.77    4.98
  -1 -12 -19   78.40    5.15
   1  12 -19   80.21    5.81
  -1 -12 -18   43.58    3.77
  -1 -12 -18   42.85    3.80
   1  12 -18   40.06    4.31
   1  12 -18   33.14    3.38
  -1 -12 -17   86.41    5.22
  -1 -12 -17   83.48    5.25
   1  12 -17   87.27    6.16
   1  12 -17   75.87    5.02
  -1 -12 -16   21.94    2.88
  -1 -12 -16   25.17    3.01
   1  12 -16   20.11    2.77
  -1 -12 -15   68.66    4.70
  -1 -12 -15   66.23    4.73
   1  12 -15   76.81    5.07
  -1 -12 -14  303.04   10.04
  -1 -12 -14  284.27    9.80
  -1 -12 -14  278.85    8.54
   1  12 -14  270.47    9.73
  -1 -12 -13   17.39    2.63
  -1 -12 -13   20.64    2.71
  -1 -12 -13   17.40    2.27
   1  12 -13   15.44    2.49
  -1 -12 -12   75.10    4.82
  -1 -12 -12   77.50    4.54
   1  12 -12   68.83    4.73
  -1 -12 -11  171.85    7.50
  -1 -12 -11  177.62    7.40
  -1 -12 -11  173.91    6.93
   1  12 -11  172.33    7.51
  -1 -12 -10   10.52    2.05
  -1 -12 -10    5.70    1.83
  -1 -12 -10    8.89    1.79
   1  12 -10    8.74    2.06
  -1 -12  -9  203.85    8.05
   1 -12   9  186.03    8.22
  -1 -12  -9  183.50    7.47
  -1 -12  -9  196.52    7.48
   1 -12   9  188.72    7.38
   1  12  -9  194.54    7.96
  -1 -12  -8   12.41    2.26
   1 -12   8   12.74    2.46
  -1 -12  -8   14.79    2.26
  -1 -12  -8   17.80    2.37
   1 -12   8   15.77    2.30
   1  12  -8   13.77    2.41
   1 -12   7    3.01    1.48
  -1 -12  -7    4.56    1.48
  -1 -12  -7    6.43    1.66
   1 -12   7    3.78    1.72
  -1 -12  -6   84.36    4.87
   1 -12   6   88.31    5.01
  -1 -12  -6   89.37    5.04
   1 -12   6   78.56    5.22
  -1 -12  -5   46.72    3.72
   1 -12   5   46.26    3.70
   1 -12   5   43.30    3.95
   1 -12   4   37.14    3.66
  -1 -12  -4   30.27    3.11
   1 -12   4   39.16    3.41
  -1 -12  -4   36.59    3.28
   1 -12   3   53.29    4.16
  -1 -12  -3   51.34    3.96
   1 -12   3   51.03    3.79
  -1 -12  -3   52.64    3.88
   1 -12   2  272.22    9.52
  -1 -12  -2  244.07    8.74
   1 -12   2  265.86    8.96
  -1 -12  -1  504.53   13.18
   1 -12   1  534.24   13.81
   1 -12   1  533.43   13.28
  -1 -12   0    4.89    1.58
   1 -12   0    3.83    1.39
  -1 -12   0    3.68    1.56
  -1 -12   1  530.84   13.55
  -1 -12   1  538.93   13.31
  -1 -12   2  276.91    9.39
  -1 -12   2  258.43    8.84
  -1 -12   3   50.79    3.95
   1 -12  -3   43.94    3.76
   1 -12  -3   49.92    3.79
  -1 -12   3   51.12    3.82
   1 -12  -4   34.95    3.31
  -1 -12   4   32.23    3.25
  -1 -12   4   33.54    3.17
   1 -12  -4   30.31    3.08
   1 -12  -5   41.48    3.59
  -1 -12   5   38.54    3.59
   1 -12  -5   41.51    3.46
  -1 -12   5   48.44    3.80
   1 -12  -6   88.12    5.14
  -1 -12   6   96.50    5.57
   1 -12  -6   93.11    5.12
  -1 -12   6   85.74    4.97
  -1 -12   7    5.13    1.67
   1 -12  -7    3.59    1.49
  -1 -12   7    4.24    1.47
   1 -12  -7    3.78    1.54
  -1 -12   8   11.23    2.17
   1 -12  -8   13.21    2.25
  -1 -12   8   12.17    2.02
   1 -12  -8   12.67    2.04
   1 -12  -9  217.22    8.20
  -1 -12   9  193.80    8.06
  -1 -12   9  198.52    7.49
   1 -12  -9  191.33    7.39
  -1  12  -9  189.60    7.29
  -1 -12  10   12.86    2.33
   1 -12 -10   13.99    2.32
  -1 -12  10   13.03    2.15
  -1  12 -10   14.91    2.19
   1 -12 -11  182.96    7.55
  -1 -12  11  175.29    7.66
  -1 -12  11  179.01    7.06
  -1  12 -11  169.04    6.84
   1 -12 -12   80.79    4.98
  -1 -12  12   79.77    4.59
  -1 -12  13   17.76    2.34
   1 -12 -13   13.91    2.33
   1 -12 -14  282.62    9.36
  -1  12 -14  143.46   14.19
   1 -12 -15   72.76    4.68
  -1  12 -15  109.25    9.36
   1 -12 -16   19.86    2.61
  -1  12 -16   38.64    5.31
   1 -12 -17   74.39    4.66
  -1  12 -17  102.43    6.80
   1 -12 -18   46.18    3.65
  -1  12 -18   50.54    4.74
  -1  12 -19   70.52    5.39
  -1  12 -20   97.02    6.21
  -1  12 -21   54.08    4.68
  -1  12 -22   17.12    2.84
  -1  12 -23   38.16    3.85
  -1  12 -24    3.16    1.79
  -1  12 -25    2.21    1.37
  -1  12 -25    3.96    1.25
   1  13 -24    5.64    1.64
  -1 -13 -24    5.61    1.46
   1  13 -23    1.34    1.69
  -1 -13 -23    6.05    1.51
   1  13 -22   34.42    3.74
  -1 -13 -22   33.82    3.21
   1  13 -21  512.26   14.56
  -1 -13 -21  527.39   13.35
  -1 -13 -20   30.93    3.11
   1  13 -20   30.60    3.75
  -1 -13 -20   32.97    3.29
  -1 -13 -19  979.35   19.71
   1  13 -19 1047.47   22.63
  -1 -13 -19  990.29   20.36
  -1 -13 -18   51.41    4.06
  -1 -13 -18   45.39    3.87
   1  13 -18   48.46    4.69
  -1 -13 -17    9.99    2.15
  -1 -13 -17   10.56    2.17
   1  13 -17   11.67    3.04
   1  13 -17   10.77    2.10
  -1 -13 -16    1.49    1.20
  -1 -13 -16    0.18    1.33
   1  13 -16    0.37    1.07
  -1 -13 -15   18.71    2.72
  -1 -13 -15   18.31    2.60
   1  13 -15   13.59    2.39
  -1 -13 -14   49.07    4.10
  -1 -13 -14   46.52    4.06
   1  13 -14   50.25    4.17
  -1 -13 -13  336.62   10.98
  -1 -13 -13  329.37   10.87
  -1 -13 -13  342.98    9.97
   1  13 -13  325.04   10.87
  -1 -13 -12   96.29    5.73
  -1 -13 -12   88.45    5.42
  -1 -13 -12   96.38    5.24
   1  13 -12   93.35    5.65
  -1 -13 -11  564.12   14.73
  -1 -13 -11  542.91   14.26
  -1 -13 -11  559.62   13.78
   1  13 -11  530.82   14.39
  -1 -13 -10   14.47    2.39
  -1 -13 -10   15.50    2.65
  -1 -13 -10   13.51    2.27
   1  13 -10   14.27    2.45
  -1 -13  -9   18.13    2.77
   1 -13   9   15.83    2.80
  -1 -13  -9   22.86    2.84
  -1 -13  -9   20.36    2.70
   1  13  -9   21.60    2.79
  -1 -13  -8  338.01   11.03
   1 -13   8  345.91   11.85
  -1 -13  -8  335.86   10.71
  -1 -13  -8  342.98   10.63
   1  13  -8  340.26   11.15
  -1 -13  -7    9.86    2.25
   1 -13   7   11.29    2.24
   1 -13   7   13.09    2.57
  -1 -13  -6  328.28   10.49
   1 -13   6  331.94   10.51
   1 -13   6  335.70   11.58
  -1 -13  -5  487.69   13.18
   1 -13   5  486.43   13.13
   1 -13   5  485.38   14.16
  -1 -13  -4  172.06    7.68
  -1 -13  -4  185.91    7.74
   1 -13   4  177.67    7.58
   1 -13   4  176.44    8.13
  -1 -13  -3  514.77   13.94
   1 -13   3  525.80   14.65
  -1 -13  -3  535.72   13.85
   1 -13   3  546.90   14.05
   1 -13   2  116.22    6.49
  -1 -13  -2  110.04    6.05
   1 -13   2  114.29    6.09
   1 -13   1   11.05    2.29
  -1 -13  -1    8.75    2.03
   1 -13   1    8.36    2.06
  -1 -13   0    8.13    1.99
   1 -13   0    6.23    1.88
  -1 -13   0    5.25    1.86
  -1 -13   1   13.46    2.31
  -1 -13   1   11.55    2.36
  -1 -13   2  109.66    6.11
  -1 -13   2  105.38    5.84
   1 -13  -3  529.54   14.26
  -1 -13   3  567.16   14.82
  -1 -13   3  546.54   14.07
   1 -13  -3  518.11   13.77
  -1 -13   4  168.42    7.80
   1 -13  -4  167.74    7.58
   1 -13  -4  179.99    7.62
  -1 -13   4  169.75    7.38
  -1 -13   5  506.63   14.12
   1 -13  -5  486.22   13.61
  -1 -13   5  511.18   13.52
   1 -13  -5  498.57   13.35
   1 -13  -6  340.65   11.06
  -1 -13   6  356.77   11.57
   1 -13  -6  333.74   10.54
  -1 -13   6  332.99   10.57
   1 -13  -7   12.60    2.37
  -1 -13   7   11.92    2.20
  -1 -13   7    8.09    2.12
   1 -13  -7   11.82    2.22
   1 -13  -8  357.34   11.26
  -1 -13   8  326.85   11.15
  -1  13  -8  343.26   10.52
  -1 -13   8  336.55   10.50
   1 -13  -8  328.82   10.37
   1 -13  -9   17.60    2.65
  -1 -13   9   17.17    2.77
  -1 -13   9   20.55    2.73
  -1  13  -9   14.03    2.22
   1 -13 -10   19.05    2.72
  -1 -13  10   12.85    2.47
  -1 -13  10   13.93    2.31
  -1  13 -10   16.93    2.39
  -1 -13  11  530.73   14.42
  -1 -13  11  531.46   13.39
  -1  13 -11  507.72   12.97
   1 -13 -12  101.01    5.79
  -1 -13  12   98.08    5.28
   1 -13 -13  349.13   11.00
  -1 -13  13  355.24   10.23
   1 -13 -14   47.18    3.95
  -1  13 -14  117.59   11.94
  -1  13 -15   61.40    7.23
   1 -13 -15   14.43    2.36
  -1  13 -16   20.16    4.27
   1 -13 -16   -0.17    1.31
  -1  13 -17   14.89    3.17
   1 -13 -17    9.18    1.93
  -1  13 -18   63.51    5.23
  -1  13 -19 1016.28   22.35
  -1  13 -20   34.55    3.84
  -1  13 -21  515.98   14.27
  -1  13 -22   37.85    3.79
  -1  13 -23    3.43    1.73
  -1  13 -24    2.98    1.55
   1 -13 -24    5.26    1.54
   1  14 -22  118.72    6.13
  -1 -14 -22  112.86    5.38
   1  14 -21   57.78    4.56
  -1 -14 -21   53.44    3.89
   1  14 -20   16.62    2.84
  -1 -14 -20   18.78    2.54
  -1 -14 -19   47.50    3.74
   1  14 -19   48.87    4.40
  -1 -14 -19   50.69    3.88
  -1 -14 -18   44.31    3.70
   1  14 -18   49.73    4.58
  -1 -14 -18   46.37    3.86
  -1 -14 -17   34.07    3.44
  -1 -14 -17   34.24    3.37
   1  14 -17   39.98    4.29
  -1 -14 -16    7.37    1.84
  -1 -14 -16    2.90    1.57
   1  14 -16   11.61    3.20
  -1 -14 -15    5.44    1.80
  -1 -14 -15    7.11    1.67
   1  14 -15    4.92    1.56
  -1 -14 -14   25.09    3.12
  -1 -14 -14   32.18    3.48
   1  14 -14   29.81    3.32
  -1 -14 -13  116.95    6.27
  -1 -14 -13  116.81    6.36
   1  14 -13  113.63    6.25
  -1 -14 -12    4.81    1.84
  -1 -14 -12    5.10    1.62
  -1 -14 -12    2.27    1.38
   1  14 -12    2.93    1.46
  -1 -14 -11   84.18    5.53
  -1 -14 -11   89.69    5.52
  -1 -14 -11   81.71    5.00
   1  14 -11   88.39    5.58
  -1 -14 -10  159.07    7.58
  -1 -14 -10  157.58    7.05
   1  14 -10  157.37    7.46
  -1 -14  -9  129.37    6.91
  -1 -14  -9  127.67    6.44
   1  14  -9  124.25    6.62
  -1 -14  -8   23.45    3.19
   1 -14   8   23.21    3.32
  -1 -14  -8   22.44    2.92
   1  14  -8   22.76    3.03
   1 -14   7    8.37    2.40
  -1 -14  -7   10.80    2.22
   1  14  -7   11.99    2.43
  -1 -14  -6  552.11   14.52
   1 -14   6  554.48   15.80
   1 -14   5  549.71   14.51
  -1 -14  -5  540.55   14.49
   1 -14   5  561.80   15.81
   1 -14   4   17.09    2.68
  -1 -14  -4   24.30    3.04
  -1 -14  -4   17.95    2.82
   1 -14   4   18.24    3.13
  -1 -14  -3  101.61    6.11
  -1 -14  -3   99.89    5.86
   1 -14   3  101.41    5.96
   1 -14   3  100.08    6.35
   1 -14   2  132.20    7.17
  -1 -14  -2  128.03    6.85
   1 -14   2  128.10    6.70
   1 -14   1   27.97    3.41
  -1 -14  -1   24.99    3.22
   1 -14   1   30.06    3.39
  -1 -14   0   14.60    2.52
   1 -14   0   12.77    2.34
  -1 -14   0    8.68    2.17
  -1 -14   1   23.40    3.20
  -1 -14   1   37.14    3.66
  -1 -14   2  137.00    7.26
  -1 -14   2  140.35    7.02
  -1 -14   3  100.86    6.20
   1 -14  -3  102.17    6.21
  -1 -14   3   97.26    5.79
   1 -14  -3   96.23    5.78
   1 -14  -4   22.16    3.15
  -1 -14   4   20.66    3.17
   1 -14  -4   18.82    2.71
  -1 -14   4   20.50    2.78
  -1 -14   5  555.98   15.29
   1 -14  -5  541.15   14.88
   1 -14  -5  516.86   14.12
  -1 -14   5  534.62   14.33
   1 -14  -6  562.71   15.15
  -1 -14   6  556.39   15.41
  -1 -14   6  548.50   14.53
   1 -14  -7   10.12    2.37
  -1 -14   7   10.00    2.33
  -1 -14   7   12.05    2.21
   1 -14  -8   19.88    2.89
  -1 -14   8   26.03    3.31
  -1 -14   8   23.48    3.02
  -1  14  -8   19.87    2.64
   1 -14  -9  122.46    6.63
  -1 -14   9  127.51    6.94
  -1 -14   9  123.05    6.26
  -1  14  -9  129.89    6.23
   1 -14 -10  162.70    7.61
  -1 -14  10  163.38    7.77
  -1 -14  10  151.24    6.90
  -1  14 -10  154.27    6.77
   1 -14 -11   95.61    5.77
  -1 -14  11   92.19    5.28
   1 -14 -12    2.51    1.58
   1 -14 -13  105.06    5.95
  -1  14 -13  224.81   18.75
   1 -14 -14   23.45    2.99
  -1  14 -14  115.15   10.70
  -1  14 -15   34.86    5.93
   1 -14 -15    3.85    1.55
  -1  14 -16   24.87    4.32
   1 -14 -16    5.66    1.68
  -1  14 -17   39.67    4.42
  -1  14 -18   45.67    4.40
  -1  14 -19   52.01    4.49
  -1  14 -20   16.40    2.79
  -1  14 -21   46.49    4.06
  -1  14 -22  118.02    6.02
   1  15 -21  581.89   14.17
   1  15 -20    5.63    1.98
   1  15 -19  160.21    7.44
  -1 -15 -18   70.60    4.47
   1  15 -18   76.56    5.27
  -1 -15 -17   33.57    3.29
   1  15 -17   37.45    3.99
  -1 -15 -16   34.98    3.46
  -1 -15 -15   17.48    2.69
  -1 -15 -14    2.24    1.60
   1  15 -14    1.05    1.27
  -1 -15 -13  318.23   10.65
   1  15 -13  297.58   10.14
  -1 -15 -12    5.58    1.95
   1  15 -12    5.48    1.67
  -1 -15 -11  243.29    9.45
   1  15 -11  227.22    8.97
  -1 -15 -10  177.49    8.12
  -1 -15 -10  173.06    7.45
   1  15 -10  166.96    7.72
  -1 -15  -9   17.78    2.93
  -1 -15  -9   23.40    2.95
   1  15  -9   22.84    3.02
  -1 -15  -8  157.24    7.71
  -1 -15  -8  154.79    7.23
   1  15  -8  154.09    7.47
   1 -15   7    2.61    1.77
  -1 -15  -7    1.55    1.56
   1  15  -7    2.09    1.56
   1 -15   6   17.16    3.13
  -1 -15  -6   17.84    2.81
   1  15  -6   16.55    2.77
  -1 -15  -5 1458.26   27.44
   1 -15   5 1514.96   29.27
  -1 -15  -4   21.14    3.10
   1 -15   4   16.89    2.99
  -1 -15  -4   17.38    2.98
  -1 -15  -3  574.35   15.71
  -1 -15  -3  583.22   15.40
   1 -15   3  575.14   16.16
   1 -15   2    7.17    2.56
  -1 -15  -2    7.20    2.24
  -1 -15  -1   13.18    2.60
   1 -15   1   12.16    2.57
  -1 -15   0    1.22    1.58
  -1 -15   0    2.86    1.69
  -1 -15   1   11.99    2.54
  -1 -15   1   12.89    2.66
  -1 -15   2    5.08    2.07
  -1 -15   2    5.36    2.17
   1 -15  -3  583.46   16.07
  -1 -15   3  582.92   16.10
  -1 -15   3  590.15   15.56
  -1 -15   4   18.30    2.91
  -1 -15   4   18.08    3.05
   1 -15  -4   17.64    2.96
   1 -15  -5 1471.74   28.44
  -1 -15   5 1501.71   28.78
  -1 -15   5 1481.10   27.47
   1 -15  -6   17.55    2.88
  -1 -15   6   18.55    3.12
  -1 -15   6   21.31    2.91
  -1 -15   7    3.39    2.13
   1 -15  -7    3.68    1.87
  -1 -15   7    1.91    1.53
  -1  15  -7    3.59    1.54
   1 -15  -8  154.47    7.65
  -1 -15   8  151.56    7.70
  -1 -15   8  151.51    7.11
  -1  15  -8  149.88    6.77
   1 -15  -9   21.15    3.04
  -1 -15   9   23.98    2.97
  -1 -15   9   20.71    3.10
   1 -15 -10  177.73    8.03
  -1 -15  10  162.59    7.16
   1 -15 -11  239.69    9.33
  -1  15 -12  293.34   23.10
   1 -15 -12    5.80    1.90
   1 -15 -13  317.67   10.51
  -1  15 -13  313.13   17.35
  -1  15 -14   74.84    7.68
   1 -15 -14    3.03    1.59
   1 -15 -15   21.02    2.67
  -1  15 -15   46.82    5.47
  -1  15 -16   49.20    4.70
  -1  15 -17   40.28    4.09
  -1  15 -18   79.91    5.27
  -1  15 -19  165.46    7.39
  -1  15 -20    5.40    1.89
  -1 -16 -17   15.26    2.25
  -1 -16 -16   96.47    5.21
  -1 -16 -15    2.48    1.48
  -1 -16 -14   53.60    4.16
  -1 -16 -13   79.59    5.10
  -1 -16 -12    1.72    1.54
   1  16 -12    0.17    1.17
  -1 -16 -11   37.43    3.80
   1  16 -11   37.02    3.58
  -1 -16 -10   97.09    5.95
   1  16 -10  105.95    5.95
  -1 -16  -9    5.86    1.98
   1  16  -9    9.23    2.14
  -1 -16  -8    1.92    1.72
  -1 -16  -8    2.04    1.54
   1  16  -8    2.95    1.66
  -1 -16  -7   34.58    3.57
   1  16  -7   32.49    3.55
   1 -16   6  188.74    8.88
  -1 -16  -6  212.79    8.67
   1  16  -6  193.20    8.46
   1  16  -5  277.75   10.49
  -1 -16  -5  286.23   10.22
   1 -16   5  258.37   10.52
  -1 -16  -4  167.97    8.18
  -1 -16  -4  167.13    7.79
   1 -16   4  175.24    8.55
  -1 -16  -3   31.15    3.66
  -1 -16  -3   29.12    3.45
   1 -16   3   30.48    3.78
  -1 -16  -2 1110.39   23.72
   1 -16   2 1104.28   24.08
  -1 -16  -1   25.75    3.44
   1 -16   1   26.78    3.64
  -1 -16   0   42.22    4.35
  -1 -16   0   42.13    4.07
  -1 -16   1   29.44    3.61
  -1 -16   1   31.48    3.62
  -1 -16   2 1095.78   23.68
  -1 -16   2 1115.84   23.01
   1 -16  -3   29.98    3.77
  -1 -16   3   28.58    3.49
  -1 -16   3   31.18    3.73
   1 -16  -4  166.64    8.17
  -1 -16   4  176.61    7.97
  -1 -16   4  160.34    8.08
   1 -16  -5  267.23   10.43
  -1 -16   5  270.32   10.51
  -1 -16   5  271.96   10.04
   1 -16  -6  187.95    8.62
  -1 -16   6  195.98    8.85
  -1 -16   6  201.77    8.44
  -1  16  -6  182.97    7.69
   1 -16  -7   38.68    3.99
  -1 -16   7   44.77    4.36
  -1 -16   7   31.08    3.38
  -1  16  -7   33.88    3.28
  -1 -16   8    2.72    1.50
  -1 -16   8    2.17    1.62
   1 -16  -8    2.98    1.86
   1 -16  -9    8.91    2.17
   1 -16 -10  109.46    6.20
   1 -16 -11   40.25    3.83
  -1  16 -12  169.53   13.52
   1 -16 -12    0.55    1.32
   1 -16 -13   70.41    4.77
  -1  16 -13  155.48   10.12
   1 -16 -14   41.13    3.61
  -1  16 -14   74.51    6.31
  -1  16 -15   17.86    3.26
  -1  16 -16  106.35    6.20
  -1  16 -17   14.01    2.53
  -1  16 -18   15.45    2.50
  -1 -17 -14  104.73    5.46
   1  17 -14  129.26    6.53
  -1 -17 -13  298.64    9.66
   1  17 -13  339.40   11.12
  -1 -17 -12    7.48    1.97
   1  17 -12   44.18    4.91
  -1 -17 -11  167.91    7.45
   1  17 -11  156.10    6.79
  -1 -17 -10   33.47    3.54
   1  17 -10   28.67    3.08
  -1 -17  -9   20.66    2.87
   1  17  -9   22.03    2.75
  -1 -17  -8    5.49    1.81
   1  17  -8    4.33    1.64
   1  17  -7   17.30    2.61
   1  17  -6   82.80    5.28
   1 -17   5  279.00   10.66
  -1 -17  -5  302.44   10.22
   1  17  -5  301.96   10.46
   1 -17   4    4.70    1.81
  -1 -17  -4    3.26    1.57
  -1 -17  -4    0.19    1.54
   1  17  -4    3.06    1.87
  -1 -17  -3  587.53   15.86
  -1 -17  -3  574.59   15.06
   1 -17   3  564.98   15.85
  -1 -17  -2   52.14    4.62
   1 -17   2   58.27    4.90
  -1 -17  -1  116.36    6.67
   1 -17   1  103.79    6.51
  -1 -17   0    3.08    1.80
  -1 -17   0    0.99    1.47
  -1 -17   1  103.98    6.35
  -1 -17   1  107.19    6.17
  -1 -17   2   53.83    4.64
  -1 -17   2   51.72    4.41
  -1 -17   3  570.66   15.68
   1 -17  -3  589.07   16.10
  -1 -17   3  615.00   15.54
  -1 -17   4    3.47    2.01
   1 -17  -4    2.19    1.88
  -1 -17   4    1.72    1.69
  -1  17  -4    0.72    1.26
   1 -17  -5  300.99   10.90
  -1 -17   5  314.34   11.06
  -1  17  -5  284.32    9.54
   1 -17  -6   84.31    5.67
  -1 -17   6   85.80    5.67
  -1 -17   7   15.08    2.65
   1 -17  -7   16.29    2.74
   1 -17  -8    4.19    1.76
   1 -17  -9   17.30    2.73
   1 -17 -10   28.90    3.25
  -1  17 -10  357.48   22.86
   1 -17 -11  157.62    7.06
  -1  17 -11  253.45   14.54
  -1  17 -12   71.16    7.53
   1 -17 -12   12.20    2.18
   1 -17 -13  278.36    9.08
  -1  17 -13  350.75   12.15
  -1  17 -14  138.22    6.95
  -1  17 -15   12.13    2.44
   1  18 -12   13.94    2.60
  -1 -18 -11   51.23    3.88
   1  18 -11   78.03    5.24
  -1 -18 -10  101.96    5.53
   1  18 -10  144.78    7.60
  -1 -18  -9    5.75    1.80
   1  18  -9   77.92    7.07
  -1 -18  -8   -0.18    1.27
   1  18  -8    1.99    1.33
  -1 -18  -7    5.05    1.90
   1  18  -7    2.73    1.42
   1  18  -6  117.58    5.94
   1  18  -5   53.26    4.14
  -1 -18  -4    6.16    2.04
   1  18  -4    5.83    1.78
   1 -18   3   12.99    2.51
  -1 -18  -3   11.67    2.46
   1  18  -3   14.28    2.48
  -1 -18  -2   52.53    4.46
   1 -18   2   60.71    4.68
   1  18  -2   62.38    4.69
   1 -18   1   37.17    3.84
  -1 -18  -1   39.82    3.92
  -1 -18   0    2.42    1.61
  -1 -18   1   31.96    3.48
  -1 -18   2   55.64    4.55
  -1  18  -2   57.39    4.25
  -1 -18   3    7.52    2.10
   1 -18  -3    7.70    2.11
  -1  18  -3    7.25    1.86
  -1 -18   4    5.07    1.83
   1 -18  -4    7.57    2.04
  -1 -18   5   47.94    4.14
   1 -18  -5   52.76    4.36
   1 -18  -6  114.51    6.20
   1 -18  -7    4.76    1.82
   1 -18  -8   -0.18    1.31
   1 -18  -9    2.01    1.35
  -1  18  -9  297.73   17.42
   1 -18 -10   95.76    5.27
  -1  18 -10  197.60   11.29
  -1  18 -11  100.20    6.97
  -1  18 -12   25.81    3.70
   1  19  -5  265.85   16.23
  -1 -19  -4    9.71    2.10
  -1 -19  -3   33.58    3.43
  -1 -19  -2   66.68    4.61
   1  19  -2   74.39    4.57
  -1 -19  -1  114.82    5.96
   1  19  -1  107.93    5.56
  -1 -19   0    0.87    1.40
   1  19   0    0.16    1.36
   1  19   1  120.43    6.06
  -1 -19   1  107.92    5.76
  -1 -19   2   72.64    4.71
   1 -19  -3   27.50    3.14
  -1 -19   3   29.34    3.10
   1 -19  -4    8.64    2.00
   1 -19  -5   27.53    3.02
   1 -19  -6  254.69    8.66
  -2   0   0  309.69    4.25
   2   0   0  310.29    4.24
  -2   0   0  317.96    4.62
   2   0   0  300.33    4.56
  -2   0   0  311.85    5.21
  -2   0   1    2.21    0.20
  -2   0  -1    2.09    0.32
   2   0   1    2.01    0.33
  -2   0   1    2.67    0.38
   2   0  -1    1.92    0.32
  -2   0  -2  811.65   10.46
   2   0   2  834.43   10.50
   2   0   2  792.27   10.84
   2   0  -2  807.79   10.36
  -2   0   2  795.95   10.31
  -2   0  -3   78.05    2.10
   2   0   3   78.40    2.19
   2   0  -3   78.44    1.97
  -2   0  -3   73.88    2.13
  -2   0  -4  365.81    5.77
   2   0  -4  363.26    5.51
   2   0   4  366.99    5.72
  -2   0  -4  350.72    5.65
   2   0  -5   18.24    0.59
  -2   0  -5   17.59    1.12
  -2   0   5   16.33    1.00
   2   0   5   15.69    1.00
   2   0  -5   17.97    1.05
  -2   0  -5   17.49    1.04
   2   0  -6  682.45    8.40
  -2   0  -6  679.80   10.16
   2   0   6  688.39    9.72
  -2   0   6  654.87    9.62
   2   0   7   63.43    2.41
  -2   0  -7   70.06    2.54
   2   0  -7   67.23    1.65
  -2   0  -7   64.78    2.09
   2   0   7   70.00    2.25
  -2   0   7   63.68    2.20
   2   0  -8 1797.91   21.98
  -2   0  -8 1881.46   24.11
   2   0   8 1835.64   23.99
  -2   0  -8 1851.09   22.94
   2   0   8 1860.46   23.14
  -2   0   8 1829.96   23.47
   2   0  -8 1821.70   24.57
   2   0  -9    7.14    0.64
   2   0   9    7.21    0.96
  -2   0  -9    6.61    0.93
  -2   0   9    8.98    0.97
   2   0   9    6.02    0.74
   2   0  -9    5.85    1.02
   2   0  10  500.52    9.36
   2   0 -10  531.27    7.92
   2   0 -10  502.28    9.04
  -2   0 -10  504.83    9.12
  -2   0 -10  520.72    8.37
   2   0  10  511.44    8.50
  -2   0  10  518.53    9.13
   2   0 -10  518.75   10.03
  -2   0 -11    7.00    0.84
   2   0  11    6.55    0.84
  -2   0  11    9.71    1.14
  -2   0 -11    5.94    0.95
   2   0 -11    6.75    0.99
   2   0 -11    5.26    0.66
  -2   0 -11    5.67    0.91
   2   0 -11    5.32    1.11
   2   0  12   39.03    1.96
  -2   0  12   41.58    2.33
   2   0 -12   41.42    1.84
  -2   0 -12   42.23    2.39
   2   0 -12   39.78    2.31
  -2   0 -12   42.17    2.35
   2   0 -12   40.17    2.59
   2   0 -12   40.23    2.63
   2   0  13   60.52    2.54
  -2   0  13   59.83    3.02
  -2   0 -13   66.67    3.16
   2   0 -13   62.57    2.44
   2   0 -13   59.24    2.97
  -2   0 -13   60.33    3.08
   2   0 -13   59.56    3.31
  -2   0 -13   55.23    2.82
   2   0 -13   62.66    3.40
  -2   0  14   29.61    2.20
   2   0  14   27.61    1.77
  -2   0  14   27.96    1.76
   2   0 -14   33.26    1.84
   2   0 -14   26.74    2.13
  -2   0 -14   29.46    2.24
  -2   0 -14   30.20    2.26
  -2   0 -14   25.81    2.08
   2   0 -14   27.66    2.41
   2   0 -14   30.53    2.52
  -2   0  15    3.90    0.79
   2   0  15    3.69    0.77
  -2   0  15    1.74    0.83
  -2   0 -15    6.44    1.23
   2   0 -15    3.18    0.74
   2   0 -15    6.18    1.17
   2   0 -15    4.22    1.23
  -2   0 -15    6.26    1.18
   2   0 -16 1618.35   22.65
  -2   0 -16 1668.81   25.16
   2   0 -16 1632.54   24.86
   2   0 -16 1669.94   26.41
  -2   0 -16 1571.34   24.58
   2   0 -17   29.77    2.04
  -2   0 -17   32.81    2.70
   2   0 -17   33.40    2.72
  -2   0 -17   29.45    2.52
   2   0 -17   27.66    2.71
   2   0 -18   83.85    4.43
  -2   0 -18   82.77    4.44
  -2   0 -18   77.40    4.19
   2   0 -18   82.22    4.78
   2   0 -19  126.56    5.64
  -2   0 -19  135.84    5.88
   2   0 -19  128.35    6.27
  -2   0 -19  125.93    5.57
   2   0 -20   39.11    3.27
  -2   0 -20   42.17    3.40
   2   0 -20   45.99    3.87
  -2   0 -20   42.30    3.37
   2   0 -21  152.69    6.67
  -2   0 -21  150.02    6.68
  -2   0 -21  144.10    6.41
   2   0 -21  156.04    7.41
  -2   0 -22    2.95    1.49
   2   0 -22    1.35    1.26
  -2   0 -22    0.50    1.05
   2   0 -22    2.06    1.45
  -2   0 -23    8.04    1.77
   2   0 -23    6.57    1.77
   2   0 -23    6.05    2.04
  -2   0 -24    5.14    1.81
   2   0 -24    5.36    1.62
  -2   0 -25   28.46    3.20
   2   0 -25   30.70    3.32
   2   0 -26  307.63   10.50
  -2   0 -26  304.43   10.63
   2   0 -27   44.32    3.89
  -2   0 -27   39.89    3.76
   2   0 -28   86.41    5.42
  -2   0 -28   95.95    5.76
   2   0 -29   32.16    3.27
  -2   0 -29   34.77    3.41
   2   0 -30   71.55    4.68
  -2   0 -30   80.91    5.05
   2   0 -31    4.73    1.50
  -2   0 -31    4.04    1.47
  -2   0 -32   30.56    2.94
   2   0 -32   32.43    2.95
   2   0  32   27.87    2.91
   2   1 -32   81.13    4.58
  -2  -1 -32   83.92    4.68
   2   1 -31   44.71    3.58
  -2  -1 -31   45.22    3.69
   2   1 -30    6.69    1.77
  -2  -1 -30   11.46    2.17
   2   1 -29  165.34    7.35
  -2  -1 -29  156.70    7.18
   2   1 -28   21.10    2.81
  -2  -1 -28   23.75    2.93
   2   1 -27  530.62   14.35
  -2  -1 -27  537.07   14.46
   2   1 -26   78.80    5.24
  -2  -1 -26   73.82    5.11
   2   1 -25  431.99   12.58
  -2  -1 -25  424.99   12.61
   2   1 -25  408.92   13.41
   2   1 -24   42.01    3.77
  -2  -1 -24   42.81    3.89
   2   1 -24   45.39    4.39
   2   1 -23  562.58   14.44
  -2  -1 -23  560.82   14.47
   2   1 -23  579.09   15.78
   2   1 -22  227.30    8.52
  -2  -1 -22  229.86    8.56
   2   1 -22  235.06    9.45
   2   1 -21  789.26   17.02
  -2  -1 -21  801.36   17.13
   2   1 -21  777.95   18.27
   2   1 -20   38.55    3.27
  -2  -1 -20   39.01    3.30
   2   1 -20   39.50    3.68
   2   1 -19 1345.42   23.53
  -2  -1 -19 1401.63   23.79
   2   1 -19 1427.36   25.45
  -2  -1 -19 1391.85   23.34
   2   1 -18   78.68    4.30
  -2  -1 -18   76.79    4.30
  -2  -1 -18   74.91    4.07
   2   1 -18   86.06    4.96
   2   1 -17  232.54    6.10
   2   1 -17  232.50    7.35
  -2  -1 -17  239.46    7.42
   2   1 -17  226.64    7.99
  -2  -1 -17  228.93    7.11
   2   1 -17  234.42    7.98
   2  -1  16  241.26    6.36
   2   1 -16  241.49    7.22
   2   1 -16  237.97    5.97
  -2  -1 -16  231.06    7.10
   2   1 -16  234.82    7.82
  -2  -1 -16  230.65    6.90
   2   1 -16  246.47    7.89
  -2   1  15 1089.25   15.86
  -2   1  15 1111.76   18.44
   2  -1  15 1177.24   17.57
   2   1 -15 1170.37   16.87
  -2  -1 -15 1159.78   18.78
   2   1 -15 1101.49   18.56
  -2  -1 -15 1118.67   18.28
   2   1 -15 1136.85   19.87
   2   1 -15 1164.23   19.98
   2  -1  14   83.03    3.28
  -2   1  14   73.72    3.43
  -2   1  14   70.10    2.57
  -2  -1 -14   77.16    3.65
  -2  -1 -14   75.88    3.55
   2   1 -14   71.88    2.79
   2   1 -14   73.94    3.88
  -2  -1 -14   69.84    3.32
   2   1 -14   69.94    3.80
   2  -1  13  694.89   11.72
  -2   1  13  686.27   12.32
  -2  -1 -13  686.86   12.62
  -2  -1 -13  674.34   12.31
   2   1 -13  687.38   10.94
   2   1 -13  707.73   13.50
  -2  -1 -13  674.83   12.11
   2   1 -13  728.61   13.62
   2  -1  12  234.39    5.62
  -2   1  12  240.29    5.97
   2   1 -12  239.82    5.08
  -2  -1 -12  232.02    5.99
   2   1 -12  225.25    6.55
  -2  -1 -12  232.42    5.84
   2   1 -12  238.18    6.74
   2  -1  11 1874.42   24.90
  -2   1  11 1837.12   25.16
  -2  -1 -11 1880.99   23.45
  -2  -1 -11 1880.15   25.44
   2   1 -11 1937.29   23.89
  -2  -1 -11 1869.18   25.01
   2   1 -11 1916.08   26.71
  -2   1  10  208.79    4.33
   2   1 -10  224.66    4.43
  -2  -1 -10  216.07    5.27
  -2  -1 -10  222.93    4.34
   2  -1  10  221.15    5.12
  -2   1  10  215.13    5.10
   2   1 -10  216.67    5.90
  -2   1   9  487.63    7.44
   2   1  -9  487.06    7.40
  -2  -1  -9  500.38    8.57
  -2  -1  -9  484.56    8.83
  -2  -1  -9  478.40    7.44
   2  -1   9  497.21    8.46
  -2   1   9  484.26    8.28
   2   1  -9  485.94    9.41
  -2   1   8   21.79    1.04
   2   1  -8   21.32    1.03
  -2  -1  -8   23.13    1.53
  -2  -1  -8   21.56    1.11
   2  -1   8   21.20    1.40
  -2   1   8   21.61    1.31
   2   1  -8   20.17    1.59
  -2   1   7 1160.82   14.59
   2   1  -7 1186.91   14.62
  -2  -1  -7 1164.62   15.11
   2  -1   7 1191.32   16.11
  -2   1   7 1168.75   15.51
  -2   1   6  185.74    3.14
   2   1  -6  189.70    3.19
  -2  -1  -6  195.88    4.36
   2  -1   6  189.36    4.23
  -2  -1  -6  198.16    3.76
  -2   1   6  186.94    3.74
  -2  -1  -5 1047.97   14.01
  -2   1   5 1006.28   12.27
   2   1  -5 1043.96   12.36
   2  -1   5 1048.68   14.06
  -2  -1  -5 1051.98   13.37
  -2   1   5  998.15   13.09
  -2  -1  -4    4.53    0.63
  -2   1   4    5.85    0.33
  -2   1   4    4.54    0.47
   2  -1   4    5.27    0.69
  -2  -1  -4    4.94    0.55
  -2  -1  -3   11.56    0.83
  -2   1   3   12.65    0.46
  -2   1   3   12.70    0.65
  -2  -1  -3   14.11    0.87
   2  -1   3   10.51    0.85
  -2   1   3   11.63    0.86
  -2  -1  -2 1288.76   15.52
   2   1  -2 1238.70   14.51
  -2   1   2 1251.21   14.80
  -2   1   2 1307.74   16.03
  -2  -1  -2 1228.46   15.72
   2  -1   2 1198.08   15.99
   2   1  -1 3001.04   34.13
  -2  -1  -1 3105.62   34.72
  -2   1   1 3055.28   35.47
   2  -1   1 3095.21   35.56
   2   1   0  696.15    8.83
  -2  -1   0  717.54    8.91
  -2  -1   0  708.48    9.39
   2  -1   0  700.96    8.70
  -2   1  -1 3072.03   35.10
  -2  -1   1 3039.69   34.68
   2   1   1 3060.68   35.14
  -2   1  -1 3054.80   35.93
  -2  -1   1 3031.86   35.48
   2   1   2 1237.38   15.28
  -2   1  -2 1228.88   15.27
  -2  -1   2 1231.37   15.37
   2  -1  -2 1219.07   14.61
  -2   1  -3   23.95    1.14
   2  -1  -3   20.86    0.85
  -2  -1   3   21.85    1.09
  -2   1  -4    4.87    0.62
  -2  -1   4    5.01    0.60
   2  -1  -4    4.58    0.49
   2  -1  -5 1015.59   12.41
  -2   1  -5 1060.11   14.18
  -2   1  -5 1071.20   14.02
  -2  -1   5 1026.34   13.83
   2   1   5 1043.22   13.46
   2  -1  -6  179.33    3.02
  -2   1  -6  181.48    4.22
  -2   1  -6  175.96    3.93
   2   1   6  184.29    3.64
  -2  -1   6  178.55    3.99
   2  -1  -7 1197.43   14.56
   2   1   7 1176.40   16.34
  -2   1  -7 1164.64   15.75
   2   1   7 1129.17   15.13
  -2  -1   7 1139.99   15.91
  -2   1  -8   23.54    1.59
   2  -1  -8   25.80    1.13
   2   1   8   19.25    1.43
  -2   1  -8   23.98    1.41
  -2  -1   8   23.80    1.49
   2   1   8   23.66    1.21
   2  -1  -8   21.92    1.63
   2   1   9  486.82    8.99
   2  -1  -9  505.56    7.47
   2  -1  -9  488.86    8.54
  -2   1  -9  508.88    9.11
  -2   1  -9  493.68    8.30
   2   1   9  472.94    7.62
  -2  -1   9  475.96    8.62
   2  -1  -9  489.04    9.39
   2  -1 -10  218.59    5.27
   2  -1 -10  223.83    4.40
   2   1  10  214.42    5.53
  -2  -1  10  215.55    5.32
  -2   1 -10  222.12    4.96
   2   1  10  215.39    4.46
   2  -1 -10  216.63    5.90
  -2  -1  11 1890.05   25.36
   2   1  11 1898.59   23.58
  -2   1 -11 1847.01   24.37
   2  -1 -11 1899.00   23.57
   2  -1 -11 1832.75   25.08
   2   1  11 1915.01   25.74
   2  -1 -11 1816.62   26.27
  -2   1 -11 1803.80   24.96
   2  -1 -11 1861.54   26.42
  -2  -1  12  234.04    6.07
   2   1  12  241.85    5.00
   2  -1 -12  228.69    6.56
  -2   1 -12  226.80    5.90
   2  -1 -12  234.51    5.96
   2  -1 -12  233.59    4.99
   2   1  12  225.14    6.16
  -2  -1  13  711.69   12.67
   2   1  13  727.98   10.81
  -2  -1  13  687.09   11.62
   2  -1 -13  661.85   13.17
  -2   1 -13  663.21   12.34
   2  -1 -13  688.67   12.34
   2   1  13  650.43   12.50
   2  -1 -13  708.87   11.00
  -2   1 -13  713.04   12.99
   2   1  14   85.49    2.84
  -2  -1  14   76.98    3.64
  -2  -1  14   76.92    3.16
  -2   1 -14   78.15    3.62
   2  -1 -14   82.07    4.07
   2  -1 -14   82.95    3.68
   2   1  14   79.99    3.70
   2  -1 -14   79.90    2.95
  -2   1 -14   75.62    3.69
  -2  -1  15 1077.86   16.77
  -2   1 -15 1067.94   18.06
   2  -1 -15 1105.81   19.35
  -2   1 -15 1096.38   18.44
   2  -1 -15 1127.12   18.18
   2  -1 -15 1096.59   16.28
  -2  -1  16  236.03    6.19
   2  -1 -16  242.30    6.03
   2  -1 -16  243.28    7.16
  -2   1 -16  248.26    7.44
   2  -1 -16  249.69    8.00
  -2   1 -16  240.48    7.23
   2  -1 -17  238.08    7.33
  -2   1 -17  237.39    7.50
   2  -1 -17  230.60    6.10
   2  -1 -17  245.23    8.20
  -2   1 -17  233.56    7.37
   2  -1 -18   80.61    4.33
  -2   1 -18   78.71    4.40
  -2   1 -18   75.72    4.23
   2  -1 -18   80.48    4.73
   2  -1 -19 1383.95   23.45
  -2   1 -19 1394.37   23.91
   2  -1 -19 1345.61   24.74
  -2   1 -19 1389.27   23.66
   2  -1 -20   35.20    3.14
  -2   1 -20   38.56    3.36
   2  -1 -20   36.12    3.47
  -2   1 -20   40.28    3.33
   2  -1 -21  821.19   17.30
  -2   1 -21  826.63   17.75
  -2   1 -21  806.74   17.33
   2  -1 -21  836.95   18.76
  -2   1 -22  203.18    8.15
   2  -1 -22  218.89    8.19
  -2   1 -22  222.04    8.29
  -2   1 -23  585.53   14.86
   2  -1 -23  563.51   14.32
  -2   1 -23  554.10   14.26
  -2   1 -24   48.29    4.12
   2  -1 -24   49.02    3.97
  -2   1 -24   46.16    3.94
  -2   1 -25  421.14   12.68
   2  -1 -25  422.55   12.45
  -2   1 -26   85.62    5.52
   2  -1 -26   79.04    5.19
   2  -1 -27  536.44   14.32
  -2   1 -27  552.39   14.83
  -2   1 -28   28.76    3.24
   2  -1 -28   21.95    2.87
   2  -1 -29  156.38    7.06
  -2   1 -29  147.44    7.04
  -2   1 -30    6.34    1.78
   2  -1 -30    7.09    1.80
  -2   1 -31   50.92    3.90
   2  -1 -31   53.50    3.89
  -2   1 -32   70.83    4.34
   2  -1 -32   77.81    4.40
   2   1  32   63.36    4.21
   2   2 -32   37.94    3.18
  -2  -2 -32   40.96    3.34
   2  -2  32   40.65    3.41
  -2  -2 -31    8.32    1.85
   2   2 -31    9.44    1.96
   2   2 -30    6.70    1.83
  -2  -2 -30    8.52    1.88
   2   2 -29  290.33    9.99
  -2  -2 -29  286.89    9.86
   2   2 -28   33.05    3.48
  -2  -2 -28   29.73    3.32
  -2  -2 -27   80.59    5.28
   2   2 -27   86.50    5.47
   2   2 -27   85.88    5.95
   2   2 -26   34.82    3.60
  -2  -2 -26   33.70    3.55
   2   2 -26   34.22    3.91
   2   2 -25   10.46    2.23
  -2  -2 -25   12.42    2.48
   2   2 -25    7.77    2.28
   2   2 -24  979.47   20.79
  -2  -2 -24 1030.15   20.99
   2   2 -24  988.47   22.31
   2   2 -23   82.54    5.20
  -2  -2 -23   74.92    4.98
   2   2 -23   77.24    5.52
   2   2 -22    5.28    1.83
  -2  -2 -22    2.75    1.42
   2   2 -22    3.82    1.63
   2   2 -21   60.34    4.24
  -2  -2 -21   62.22    4.24
   2   2 -21   62.43    4.69
   2   2 -20  229.91    8.16
  -2  -2 -20  236.75    8.23
   2   2 -20  220.54    8.70
   2   2 -19  204.04    7.42
  -2  -2 -19  205.16    7.35
   2   2 -19  196.31    7.95
   2   2 -19  202.68    7.83
   2   2 -18   74.06    4.24
  -2  -2 -18   80.43    4.37
   2   2 -18   77.14    4.72
   2   2 -18   79.11    4.67
  -2  -2 -17   37.12    2.86
   2   2 -17   35.73    2.35
   2   2 -17   36.37    3.19
   2   2 -17   41.86    3.33
   2  -2  16 1739.14   25.63
  -2  -2 -16 1806.05   26.77
   2   2 -16 1759.06   24.60
   2   2 -16 1780.24   28.37
   2   2 -16 1794.56   28.09
  -2   2  15  305.86    7.72
   2  -2  15  302.03    7.52
  -2  -2 -15  310.79    8.06
   2   2 -15  313.77    6.96
   2   2 -15  302.69    8.80
   2   2 -15  316.93    8.87
   2  -2  14  253.63    6.55
  -2   2  14  236.74    6.42
  -2   2  14  227.14    4.67
  -2   2  14  230.46    5.67
  -2  -2 -14  245.61    6.78
  -2  -2 -14  248.54    6.97
   2   2 -14  254.18    5.92
   2   2 -14  253.12    7.59
   2   2 -14  257.48    7.62
  -2   2  13  142.07    3.38
   2  -2  13  148.83    4.70
  -2   2  13  153.99    4.78
  -2  -2 -13  154.45    5.12
   2   2 -13  153.41    4.21
  -2   2  13  149.49    4.20
  -2  -2 -13  150.23    4.91
   2   2 -13  148.44    5.46
   2   2 -13  158.52    5.60
  -2   2  12    0.85    0.45
  -2  -2 -12    0.54    0.66
   2   2 -12    0.96    0.48
   2  -2  12    0.22    0.48
  -2   2  12    0.77    0.53
   2   2 -12    0.99    0.79
   2   2 -11  241.58    5.10
  -2  -2 -11  243.71    5.94
  -2   2  11  233.68    5.07
   2  -2  11  252.76    5.99
  -2  -2 -11  231.62    4.16
  -2   2  11  238.35    5.64
   2   2 -11  247.66    6.69
   2   2 -10   60.28    2.17
  -2  -2 -10   60.61    2.62
  -2   2  10   60.78    2.17
  -2  -2 -10   56.79    1.73
   2  -2  10   55.37    2.55
  -2   2  10   60.44    2.44
   2   2 -10   55.23    2.88
  -2  -2  -9  202.07    4.91
  -2   2   9  205.62    4.22
  -2  -2  -9  197.35    5.14
   2   2  -9  213.77    4.31
   2  -2   9  213.61    5.15
  -2  -2  -9  200.59    3.74
  -2   2   9  207.42    4.20
  -2   2   9  208.49    4.66
   2   2  -9  215.06    5.67
  -2  -2  -8  614.32    8.59
   2  -2   8  622.10   10.24
  -2   2   8  625.44    9.08
  -2   2   8  629.63    9.47
   2   2  -8  637.05    9.07
  -2   2   8  612.37    8.98
  -2  -2  -8  639.53   10.44
   2   2  -8  622.91   10.80
   2   2  -8  626.24   10.86
  -2  -2  -7  136.46    3.77
  -2   2   7  131.96    2.87
  -2  -2  -7  131.70    2.79
   2  -2   7  140.63    3.78
  -2   2   7  130.81    3.02
  -2   2   7  124.22    3.02
   2   2  -7  128.37    3.90
   2  -2   6  204.92    4.64
  -2   2   6  199.58    3.76
  -2   2   6  206.04    3.98
  -2  -2  -6  201.40    3.71
  -2  -2  -6  200.74    4.57
  -2   2   6  202.27    3.62
   2  -2   5  107.88    3.11
  -2   2   5  108.69    2.67
  -2  -2  -5  110.26    2.53
  -2   2   5  107.79    2.32
  -2  -2  -5  111.23    3.06
  -2   2   5  111.09    2.34
  -2   2   4  901.68   12.08
   2  -2   4  912.79   12.83
  -2   2   4  886.53   11.08
  -2  -2  -4  925.69   11.87
  -2   2   4  920.37   11.37
  -2  -2  -4  871.31   12.45
  -2   2   3  842.14   10.23
  -2   2   3  866.48   11.55
  -2  -2  -3  875.14   11.41
   2  -2   3  871.30   12.13
  -2  -2  -3  880.05   11.77
  -2   2   3  841.58   10.78
  -2   2   1 3152.17   36.95
   2   2  -1 3130.15   36.86
   2   2  -1 3147.08   36.22
  -2  -2  -1 3235.47   36.68
   2  -2   0   60.31    1.14
  -2  -2   0   56.34    1.82
  -2   2   0   61.46    1.98
   2   2   0   54.53    1.82
  -2  -2   0   63.30    1.77
   2   2   0   59.28    1.69
   2   2   1 3146.61   36.35
   2  -2  -1 3075.21   34.54
  -2  -2   1 3176.36   36.36
  -2   2  -1 3155.96   36.62
  -2  -2   3  865.68   12.02
   2   2   3  887.49   12.05
  -2   2  -3  904.93   12.38
  -2  -2   4  917.82   12.62
  -2  -2   5  112.83    3.07
  -2   2  -5  114.01    3.18
  -2   2  -6  187.92    4.35
  -2  -2   6  190.53    4.33
  -2   2  -6  191.62    4.53
  -2   2  -7  129.98    3.55
  -2  -2   7  124.97    3.53
   2  -2  -7  124.70    2.85
  -2   2  -7  136.62    3.84
   2   2   7  127.61    3.68
  -2   2  -8  634.16   10.37
  -2  -2   8  662.33   10.64
   2   2   8  624.71   10.72
   2  -2  -8  654.30    9.34
  -2   2  -8  692.00   11.10
   2  -2  -8  658.31   10.29
  -2   2  -9  207.23    4.96
  -2  -2   9  215.43    5.21
  -2   2  -9  222.80    5.54
   2  -2  -9  205.26    4.97
   2   2   9  201.88    5.26
   2  -2  -9  204.44    4.23
  -2  -2  10   62.76    2.79
  -2   2 -10   58.12    2.53
  -2   2 -10   61.36    2.72
   2  -2 -10   69.06    3.17
   2  -2 -10   60.72    2.19
   2   2  10   65.08    2.90
   2  -2 -10   63.29    2.68
  -2   2 -11  241.20    5.67
  -2  -2  11  239.06    6.03
   2  -2 -11  240.14    6.56
  -2   2 -11  233.72    5.89
   2   2  11  235.98    6.18
   2  -2 -11  236.47    5.03
   2  -2 -11  234.93    5.87
  -2  -2  12    2.14    0.73
   2  -2 -12    1.77    0.85
  -2   2 -12    0.56    0.66
   2  -2 -12    0.68    0.45
   2   2  12    0.78    0.59
   2  -2 -12    0.38    0.62
  -2  -2  13  146.95    4.60
  -2  -2  13  139.62    4.85
   2  -2 -13  137.97    5.25
  -2   2 -13  135.95    4.76
   2  -2 -13  142.65    4.03
   2   2  13  136.42    4.89
  -2   2 -13  151.83    5.20
   2  -2 -13  143.77    4.75
  -2  -2  14  237.89    6.79
  -2  -2  14  249.00    6.40
  -2   2 -14  236.84    6.75
   2  -2 -14  239.07    7.36
   2  -2 -14  243.95    6.66
   2   2  14  234.53    6.86
   2  -2 -14  235.76    5.65
  -2   2 -14  247.75    7.10
  -2  -2  15  310.49    7.50
  -2   2 -15  301.37    8.11
   2  -2 -15  303.40    8.72
   2  -2 -15  310.49    6.90
   2  -2 -15  310.88    7.97
   2  -2 -16 1748.84   25.95
   2  -2 -16 1701.59   23.91
   2  -2 -16 1730.49   27.39
  -2   2 -16 1783.33   26.51
   2  -2 -17   37.58    2.39
   2  -2 -17   37.75    2.86
  -2   2 -17   37.76    2.93
   2  -2 -17   38.72    3.18
  -2   2 -18   76.95    4.39
   2  -2 -18   80.52    4.27
  -2   2 -18   77.73    4.37
  -2   2 -19  197.28    7.43
   2  -2 -19  200.57    7.18
  -2   2 -19  191.93    7.23
  -2   2 -20  241.13    8.46
   2  -2 -20  223.28    7.95
  -2   2 -20  234.39    8.29
  -2   2 -21   56.56    4.17
   2  -2 -21   60.53    4.15
  -2   2 -21   50.20    3.90
   2  -2 -22    4.02    1.57
  -2   2 -22    6.89    1.79
  -2   2 -22    2.83    1.36
  -2   2 -23   68.72    4.82
   2  -2 -23   73.04    4.76
  -2   2 -23   70.07    4.79
   2  -2 -24  961.94   20.03
  -2   2 -24  948.14   20.48
  -2   2 -24  950.78   20.13
   2  -2 -25   10.09    2.26
  -2   2 -25   14.58    2.60
  -2   2 -25    8.77    2.03
  -2   2 -26   39.10    3.83
   2  -2 -26   37.53    3.65
  -2   2 -26   37.61    3.65
  -2   2 -27   82.60    5.46
   2  -2 -27   86.87    5.38
  -2   2 -28   26.49    3.21
   2  -2 -28   30.38    3.22
   2  -2 -29  297.56    9.94
  -2   2 -29  291.09   10.11
   2  -2 -30    8.95    1.92
  -2   2 -30    4.39    1.67
   2  -2 -31    9.47    1.93
  -2   2 -31    8.98    2.02
  -2   2 -32   40.42    3.35
   2  -2 -32   43.89    3.41
   2   2  32   46.93    3.62
   2   3 -32   14.34    2.15
  -2  -3 -32   13.75    2.11
   2  -3  32   15.19    2.08
   2   3 -31   75.26    4.61
  -2  -3 -31   81.69    4.78
   2  -3  31   76.80    4.66
   2   3 -30   17.86    2.59
  -2  -3 -30   20.51    2.56
   2   3 -29  456.76   12.83
  -2  -3 -29  466.55   12.76
   2   3 -28   54.76    4.38
  -2  -3 -28   60.06    4.45
   2   3 -28   52.58    4.73
   2   3 -27  150.74    7.25
  -2  -3 -27  152.29    7.19
   2   3 -27  151.12    7.91
   2   3 -26  279.24   10.10
  -2  -3 -26  281.40   10.04
   2   3 -26  290.91   11.20
   2   3 -25  254.60    9.54
  -2  -3 -25  254.58    9.43
   2   3 -25  254.55   10.42
   2   3 -24  221.71    8.77
  -2  -3 -24  208.88    8.41
   2   3 -24  204.01    9.23
   2   3 -23  283.96    9.91
  -2  -3 -23  287.10    9.79
   2   3 -23  274.86   10.64
  -2  -3 -22   16.24    2.53
   2   3 -22   13.26    2.41
   2   3 -22   13.66    2.50
   2   3 -21  241.82    8.74
  -2  -3 -21  239.14    8.48
   2   3 -21  243.54    9.58
  -2  -3 -20  214.53    7.81
   2   3 -20  220.02    8.05
   2   3 -20  216.75    8.74
   2   3 -20  205.70    8.23
  -2  -3 -19  420.76   10.98
   2   3 -19  388.78   11.79
   2   3 -19  391.59   11.40
  -2  -3 -18   12.75    2.00
   2   3 -18   14.97    2.25
   2   3 -18   14.55    2.21
  -2  -3 -17  714.70   14.43
   2   3 -17  699.96   12.85
   2   3 -17  699.81   15.73
   2   3 -17  720.33   15.49
  -2   3  16  360.08    8.69
  -2  -3 -16  391.91    9.57
   2   3 -16  370.41    8.26
   2   3 -16  381.24   10.48
   2   3 -16  377.69   10.24
   2  -3  15  191.51    6.12
  -2   3  15  199.09    5.89
  -2   3  15  195.45    5.46
  -2  -3 -15  205.92    6.39
   2   3 -15  202.44    5.54
   2   3 -15  209.24    7.22
   2   3 -15  200.12    6.99
   2  -3  14  200.41    6.02
  -2   3  14  192.21    5.59
  -2   3  14  189.56    5.21
   2   3 -14  191.98    5.23
  -2  -3 -14  195.86    6.01
   2   3 -14  191.74    6.69
   2   3 -14  194.98    6.68
   2   3 -13  628.16   10.44
  -2   3  13  606.33   10.34
  -2  -3 -13  617.80   11.46
  -2  -3 -13  623.73   11.87
   2  -3  13  615.52   11.55
  -2   3  13  583.06    8.10
  -2   3  13  599.55   10.75
   2   3 -13  620.63   12.59
  -2  -3 -12  797.55   14.15
  -2   3  12  823.73   12.81
   2   3 -12  852.74   12.91
  -2  -3 -12  843.77   13.96
   2  -3  12  848.04   14.17
  -2   3  12  843.95   13.27
  -2   3  12  778.89   10.85
   2   3 -12  857.65   15.19
   2   3 -11  570.67    9.56
  -2   3  11  554.44    9.44
  -2  -3 -11  564.42   10.41
  -2   3  11  565.50    8.13
   2  -3  11  586.26   10.76
  -2   3  11  568.18    9.81
   2   3 -11  566.90   11.38
  -2   3  10  767.96   11.39
  -2  -3 -10  786.14   12.39
   2  -3  10  772.38   12.73
  -2   3  10  763.50   10.21
  -2   3  10  785.14   11.67
   2   3 -10  775.31   13.37
  -2  -3  -9  368.02    5.38
   2  -3   9  390.57    7.91
  -2   3   9  381.16    6.04
  -2   3   9  388.04    6.86
   2   3  -9  387.01    6.79
  -2   3   9  392.73    6.84
  -2  -3  -9  380.42    7.44
   2   3  -9  377.92    8.34
   2   3  -9  398.43    8.37
   2  -3   8  896.49   13.62
  -2  -3  -8  831.68   10.88
  -2   3   8  868.78   11.54
  -2   3   8  865.88   12.02
   2   3  -8  847.33   13.56
  -2   3   8  863.05   12.14
  -2  -3  -8  851.77   12.88
  -2  -3  -8  874.66   13.53
   2   3  -8  904.88   14.56
   2   3  -8  845.70   13.83
  -2   3   7  159.58    3.42
  -2  -3  -7  164.49    3.08
   2   3  -7  168.51    4.56
  -2   3   7  171.34    3.45
   2  -3   7  161.49    4.44
  -2   3   7  164.30    3.64
  -2  -3  -7  163.99    4.45
   2   3  -7  161.39    5.32
   2   3  -7  160.27    4.59
  -2  -3  -6 2344.17   29.19
  -2   3   6 2319.18   27.71
   2  -3   6 2331.43   29.25
  -2  -3  -6 2291.06   27.10
  -2   3   6 2256.45   27.04
   2   3  -6 2312.30   29.18
  -2   3   6 2287.76   27.47
   2   3  -6 2230.49   29.33
  -2   3   5  914.52   12.31
   2  -3   5  955.52   13.73
  -2  -3  -5  915.13   12.06
  -2   3   5  928.95   11.51
   2   3  -5  965.48   13.58
  -2  -3  -5  945.28   13.58
  -2   3   5  905.57   12.35
   2  -3   4  196.18    4.63
  -2   3   4  198.75    2.93
   2   3  -4  201.90    4.50
  -2   3   4  205.76    3.96
  -2  -3  -4  207.07    4.53
  -2   3   4  201.69    3.88
  -2   3   3  833.57   11.33
   2  -3   3  815.85   12.10
   2   3  -3  852.54   11.96
  -2  -3  -3  817.04   11.84
  -2   3   2  869.11   12.00
   2   3  -2  877.68   12.29
  -2  -3  -2  897.74   12.40
  -2   3   1   59.91    2.02
   2   3  -1   59.97    2.07
   2   3  -1   62.14    1.97
  -2   3  -1   42.44    1.78
   2  -3  -1   39.25    1.66
   2   3   1   43.17    1.71
   2   3   1   45.51    1.74
  -2   3  -2  889.38   12.42
   2  -3  -2  888.06   12.03
   2   3   2  881.88   12.15
  -2  -3   3  791.47   11.59
  -2   3  -3  806.86   11.92
   2   3   3  817.28   11.58
  -2   3  -4  235.35    5.10
  -2  -3   4  232.83    4.87
  -2  -3   5  891.69   12.88
  -2  -3   6 2313.77   29.15
  -2   3  -7  177.08    4.58
  -2  -3   7  168.14    4.40
  -2   3  -7  184.44    4.72
   2  -3  -7  175.04    4.21
   2   3   7  170.84    4.56
  -2   3  -8  836.27   13.09
  -2  -3   8  869.80   13.25
  -2   3  -8  882.13   13.62
   2   3   8  833.22   13.35
   2  -3  -8  842.45   12.77
  -2   3  -9  397.05    7.72
  -2  -3   9  375.78    7.70
   2   3   9  381.94    7.96
  -2   3  -9  383.55    8.05
   2  -3  -9  392.52    6.90
   2  -3  -9  373.23    7.42
  -2   3 -10  780.91   12.67
  -2  -3  10  765.88   12.79
   2   3  10  764.19   13.06
   2  -3 -10  778.81   12.52
   2  -3 -10  802.66   11.71
  -2  -3  11  569.56   10.69
  -2   3 -11  589.27   11.38
   2  -3 -11  575.14    9.55
   2  -3 -11  560.34   10.41
  -2  -3  12  823.96   13.89
  -2  -3  12  805.50   14.18
  -2   3 -12  845.50   14.40
   2  -3 -12  836.79   12.88
   2  -3 -12  829.92   13.94
   2   3  12  798.66   14.40
  -2  -3  13  622.05   11.70
  -2  -3  13  624.89   12.09
  -2   3 -13  600.73   11.95
   2  -3 -13  620.75   10.70
   2   3  13  619.13   12.31
   2  -3 -13  633.98   11.82
  -2   3 -13  640.37   12.51
  -2  -3  14  176.36    5.54
  -2   3 -14  174.15    5.81
   2  -3 -14  173.68    4.91
   2  -3 -14  170.90    5.56
  -2  -3  15  211.05    6.28
   2  -3 -15  197.17    5.49
   2  -3 -15  201.86    6.32
  -2   3 -15  206.96    6.68
   2  -3 -16  402.48    9.69
   2  -3 -16  380.16    8.42
  -2   3 -16  403.71   10.10
   2  -3 -17  672.01   12.60
   2  -3 -17  707.43   14.19
  -2   3 -17  710.40   14.71
   2  -3 -18   12.24    1.81
  -2   3 -18   13.33    1.98
   2  -3 -19  418.16   10.90
  -2   3 -19  416.00   11.33
   2  -3 -20  213.24    7.69
  -2   3 -20  213.04    8.05
  -2   3 -20  203.03    7.83
  -2   3 -21  258.79    9.20
   2  -3 -21  265.17    8.84
  -2   3 -21  255.56    9.12
  -2   3 -22   19.78    2.74
   2  -3 -22   12.68    2.27
  -2   3 -22   18.36    2.59
  -2   3 -23  279.87    9.99
   2  -3 -23  270.16    9.39
  -2   3 -23  275.57    9.81
   2  -3 -24  227.12    8.69
  -2   3 -24  221.69    8.98
  -2   3 -24  217.68    8.74
   2  -3 -25  233.40    8.90
  -2   3 -25  247.17    9.56
  -2   3 -25  234.05    9.12
  -2   3 -26  272.08   10.08
   2  -3 -26  273.32    9.71
  -2   3 -26  270.60    9.78
  -2   3 -27  164.93    7.68
   2  -3 -27  156.68    7.22
  -2   3 -27  154.70    7.20
  -2   3 -28   50.83    4.28
   2  -3 -28   49.80    4.00
  -2   3 -29  443.33   12.71
   2  -3 -29  447.12   12.31
  -2   3 -30   10.92    2.15
   2  -3 -30   14.76    2.16
  -2   3 -31   89.84    5.07
   2  -3 -31   87.80    4.88
   2   3  31   89.75    4.96
   2  -3 -32   22.75    2.53
  -2   3 -32   24.58    2.66
   2   3  32   26.52    2.65
  -2  -4 -31   46.54    3.57
   2   4 -31   53.32    3.83
   2  -4  31   50.96    3.71
  -2  -4 -30   17.52    2.47
   2   4 -30   17.55    2.55
   2   4 -29   15.43    2.53
  -2  -4 -29   17.01    2.38
   2   4 -29   18.45    2.86
   2   4 -28   49.67    4.17
  -2  -4 -28   50.93    4.13
   2   4 -28   49.74    4.56
   2   4 -27   20.51    2.84
  -2  -4 -27   20.54    2.81
   2   4 -27   18.47    2.99
   2   4 -26  174.14    7.87
  -2  -4 -26  170.11    7.62
   2   4 -26  177.35    8.71
   2   4 -25   67.26    4.88
  -2  -4 -25   65.25    4.74
   2   4 -25   63.48    5.21
   2   4 -24  402.56   12.37
  -2  -4 -24  439.46   12.47
   2   4 -24  409.80   13.50
   2   4 -23  359.74   11.40
  -2  -4 -23  346.87   10.92
   2   4 -23  342.96   12.09
  -2  -4 -22  102.47    5.61
   2   4 -22   98.98    5.69
   2   4 -22  105.83    6.44
  -2  -4 -21  117.27    5.89
   2   4 -21  110.11    5.92
   2   4 -21  115.01    6.53
   2   4 -21  114.07    6.18
  -2  -4 -20   32.83    3.03
   2   4 -20   33.98    3.55
   2   4 -20   30.45    3.21
  -2  -4 -19   14.11    2.05
   2   4 -19   10.17    2.17
   2   4 -19   14.76    2.32
  -2  -4 -18  372.43   10.16
   2   4 -18  391.54   11.55
   2   4 -18  405.13   11.32
  -2  -4 -17   58.35    3.65
   2   4 -17   51.24    3.92
   2   4 -17   57.06    3.95
  -2  -4 -16 1380.58   22.22
   2   4 -16 1339.67   20.65
   2   4 -16 1319.45   23.71
   2   4 -16 1402.59   23.75
   2   4 -15  819.45   13.97
  -2  -4 -15  842.25   15.22
   2   4 -15  810.52   16.44
   2   4 -15  854.41   16.55
  -2  -4 -14  273.39    7.33
  -2   4  14  261.69    6.54
   2   4 -14  253.30    6.45
   2  -4  14  263.68    7.44
  -2   4  14  244.75    6.32
   2   4 -14  259.19    7.98
  -2  -4 -13  396.95    8.85
  -2   4  13  360.82    7.85
   2   4 -13  385.81    8.03
  -2  -4 -13  375.25    9.09
   2  -4  13  373.21    9.02
  -2   4  13  358.99    7.74
   2  -4  13  393.56    9.15
   2   4 -13  387.44    9.69
   2   4 -12  295.86    6.67
  -2  -4 -12  285.27    7.15
  -2   4  12  293.44    6.61
  -2  -4 -12  298.19    7.69
   2  -4  12  304.08    7.67
  -2   4  12  288.95    6.45
   2  -4  12  294.19    7.48
   2   4 -12  299.06    8.06
  -2   4  11  213.47    5.26
   2   4 -11  229.10    5.43
  -2  -4 -11  217.23    5.81
  -2   4  11  198.85    3.24
   2  -4  11  226.27    6.26
  -2   4  11  212.68    5.07
   2  -4  11  215.96    5.94
   2   4 -11  222.43    6.53
  -2  -4 -10  344.97    7.42
  -2   4  10  331.58    6.78
  -2   4  10  335.91    5.07
  -2   4  10  346.93    6.57
   2  -4  10  345.96    7.90
   2  -4  10  341.87    7.54
   2   4 -10  343.30    8.20
   2  -4   9 1372.56   18.67
  -2   4   9 1369.31   14.92
  -2   4   9 1368.95   16.29
   2  -4   9 1362.96   17.86
  -2  -4  -9 1352.25   17.77
  -2   4   9 1389.19   17.04
   2   4  -9 1364.53   20.63
   2   4  -9 1387.83   19.08
   2  -4   8  922.81   14.50
  -2   4   8  933.37   11.77
  -2  -4  -8  878.43   10.96
  -2   4   8  953.17   12.39
   2   4  -8  963.46   14.67
   2  -4   8  935.34   13.74
  -2  -4  -8  898.76   13.64
  -2   4   8  925.75   13.14
  -2  -4  -8  964.04   14.58
   2   4  -8  924.13   14.73
  -2   4   7  957.86   13.60
  -2  -4  -7  988.34   14.89
  -2  -4  -7  994.54   14.20
  -2  -4  -7  934.30   12.04
  -2   4   7  983.88   12.60
   2  -4   7  928.55   14.85
   2   4  -7  941.04   14.80
  -2   4   7  967.18   12.56
   2  -4   7  929.61   13.86
   2   4  -7  937.26   14.97
  -2  -4  -6 2040.99   26.65
  -2   4   6 1995.51   25.34
  -2  -4  -6 2033.74   25.86
  -2   4   6 2061.17   24.56
  -2   4   6 2013.06   23.88
  -2  -4  -6 2034.58   24.19
   2  -4   6 1946.76   26.72
   2   4  -6 2060.27   26.67
   2  -4   6 2008.97   25.45
   2   4  -6 2022.82   26.96
   2  -4   5 2694.41   34.03
  -2   4   5 2676.20   32.04
   2   4  -5 2828.48   33.89
  -2   4   5 2666.97   30.70
   2  -4   5 2599.43   32.33
  -2  -4  -5 2764.81   33.85
   2  -4   5 2780.20   34.70
  -2   4   5 2675.47   32.68
   2   4  -4  114.20    3.40
  -2   4   4  109.82    2.81
   2  -4   4  110.79    2.73
  -2  -4  -4  110.84    3.42
  -2   4   4  109.20    3.01
   2  -4   4  110.40    3.72
   2   4  -3  283.67    5.71
   2  -4   3  270.91    4.59
  -2   4   3  285.35    5.18
  -2  -4  -3  287.67    5.93
  -2   4   2  286.97    5.30
   2  -4   2  279.28    4.33
   2  -4   1  936.05   13.59
  -2   4   1  943.55   13.14
  -2  -4  -1  921.36   13.15
   2   4  -1  964.35   13.39
   2  -4   1  946.65   11.29
   2   4  -1  966.22   13.34
  -2   4   0   96.56    2.85
   2  -4   0   98.62    2.95
   2   4   0   93.47    2.81
   2   4   0   97.25    2.88
   2  -4  -1  928.60   13.28
  -2   4  -1  941.26   13.43
   2   4   1  933.99   13.20
  -2   4  -2  288.67    5.73
   2   4   2  279.90    5.46
   2  -4  -2  279.24    5.35
   2   4   2  285.70    5.71
  -2   4  -3  281.65    5.82
   2  -4  -3  271.22    5.26
   2   4   4   96.02    2.96
  -2   4  -4   97.43    3.24
   2  -4  -4  101.94    2.73
  -2   4  -5 2758.00   34.43
   2   4   5 2749.73   33.86
   2   4   6 2059.84   26.24
   2  -4  -6 2038.53   26.08
   2  -4  -7  911.16   13.52
   2   4   7  905.45   14.25
  -2   4  -8  965.19   14.95
   2   4   8  965.96   15.15
   2  -4  -8  949.65   14.34
  -2   4  -9 1405.71   19.87
  -2   4  -9 1392.33   20.21
   2   4   9 1350.01   20.15
  -2  -4  10  343.71    7.75
  -2   4 -10  357.95    7.82
   2   4  10  340.73    7.99
   2  -4 -10  355.91    7.58
  -2  -4  11  223.82    6.03
  -2  -4  11  224.30    6.03
   2   4  11  220.99    6.21
   2  -4 -11  217.24    5.77
   2  -4 -12  286.59    5.87
  -2  -4  12  298.97    7.53
  -2  -4  12  301.29    7.49
  -2   4 -12  297.55    8.66
   2   4  12  293.19    7.74
   2  -4 -12  295.34    7.32
   2  -4 -13  360.67    6.98
  -2  -4  13  392.67    8.99
  -2   4 -13  396.19    9.57
  -2   4 -13  386.40    9.41
   2   4  13  364.03    9.13
   2  -4 -13  377.47    8.73
  -2  -4  14  263.95    7.41
   2  -4 -14  272.22    7.38
  -2   4 -14  267.16    7.75
   2  -4 -15  834.43   15.37
  -2   4 -15  838.32   16.07
   2  -4 -16 1308.70   21.62
  -2   4 -16 1322.37   22.38
   2  -4 -17   56.27    3.55
  -2   4 -17   54.42    3.72
   2  -4 -18  392.16   10.30
  -2   4 -18  386.70   10.78
   2  -4 -19   12.85    1.93
  -2   4 -19   12.90    2.09
   2  -4 -20   28.36    2.83
  -2   4 -20   25.91    2.96
  -2   4 -21  102.55    5.78
   2  -4 -21  101.36    5.45
  -2   4 -21  101.30    5.74
  -2   4 -22   95.25    5.65
   2  -4 -22  100.78    5.52
  -2   4 -22   97.13    5.71
  -2   4 -23  359.21   11.55
   2  -4 -23  354.97   10.95
  -2   4 -23  356.67   11.45
  -2   4 -24  424.73   12.81
   2  -4 -24  419.31   12.11
  -2   4 -24  407.12   12.48
  -2   4 -25   58.77    4.68
   2  -4 -25   57.40    4.38
  -2   4 -25   55.12    4.46
  -2   4 -26  184.26    8.21
   2  -4 -26  178.79    7.68
  -2   4 -26  174.60    7.82
   2  -4 -27   16.20    2.48
  -2   4 -27   16.37    2.61
  -2   4 -27   13.65    2.43
  -2   4 -28   45.45    4.09
   2  -4 -28   47.67    3.90
  -2   4 -28   41.33    3.72
  -2   4 -29   15.88    2.62
   2  -4 -29   15.72    2.33
   2  -4 -30   22.26    2.70
  -2   4 -30   19.85    2.70
   2   4  30   22.57    2.64
   2  -4 -31   47.31    3.55
  -2   4 -31   52.30    3.80
   2   4  31   51.57    3.77
  -2  -5 -31    2.76    1.41
   2   5 -31    1.75    1.25
   2  -5  31    1.77    1.29
  -2  -5 -30   15.62    2.31
   2   5 -30   18.91    2.57
   2  -5  30   16.42    2.27
  -2  -5 -29   10.14    2.01
   2   5 -29   10.16    2.11
   2   5 -29   10.18    2.29
  -2  -5 -28  264.53    9.25
   2   5 -28  246.87    9.96
   2   5 -27    9.91    2.17
  -2  -5 -27   11.41    2.23
   2   5 -27   11.07    2.51
   2   5 -26   58.01    4.54
  -2  -5 -26   58.62    4.44
   2   5 -26   65.27    5.24
   2   5 -25  105.66    6.11
  -2  -5 -25  116.71    6.21
   2   5 -25  109.72    6.86
   2   5 -24  467.46   13.49
  -2  -5 -24  455.70   12.91
   2   5 -24  466.68   14.57
  -2  -5 -23  127.33    6.39
   2   5 -23  125.09    6.61
   2   5 -23  132.22    7.38
   2   5 -22  266.04    9.65
  -2  -5 -22  251.54    9.08
   2   5 -22  281.16   10.72
   2   5 -22  262.42    9.74
  -2  -5 -21  185.58    7.54
   2   5 -21  189.69    8.57
   2   5 -21  195.90    8.21
  -2  -5 -20  332.38   10.14
   2   5 -20  349.80   11.56
   2   5 -20  351.21   11.15
  -2  -5 -19  117.38    5.62
   2   5 -19  115.16    6.29
   2   5 -19  117.41    6.08
  -2  -5 -18    3.23    1.34
   2   5 -18    3.65    1.54
   2   5 -18    7.63    1.68
  -2  -5 -17  118.43    5.32
   2   5 -17  126.89    6.26
   2   5 -17  124.21    5.94
  -2  -5 -16 1373.85   22.62
   2   5 -16 1351.38   24.22
   2   5 -16 1382.02   24.03
   2   5 -15  524.33   10.75
  -2  -5 -15  525.08   11.54
   2   5 -15  499.10   12.57
   2   5 -15  525.56   12.60
   2   5 -14   67.28    3.29
  -2   5  14   62.25    3.18
  -2  -5 -14   66.51    3.54
   2   5 -14   68.43    4.03
   2   5 -13  347.33    7.88
  -2   5  13  338.71    7.79
  -2  -5 -13  336.39    8.29
   2  -5  13  342.31    8.46
  -2   5  13  312.84    6.96
   2   5 -13  346.84    9.28
   2  -5  12 3362.86   43.78
   2  -5  12 3326.92   42.68
  -2   5  12 3222.06   40.34
  -2   5  12 3251.61   41.65
  -2  -5 -12 3302.15   42.61
   2   5 -12 3374.54   41.81
  -2  -5 -12 3223.42   40.13
   2   5 -12 3338.21   44.25
   2  -5  11 1314.93   20.91
   2  -5  11 1328.25   19.95
  -2   5  11 1312.67   18.18
  -2  -5 -11 1324.35   19.97
  -2   5  11 1333.29   19.37
  -2  -5 -11 1325.12   18.38
   2   5 -11 1346.11   21.32
   2  -5  10  559.98   10.50
  -2   5  10  540.77    7.99
   2  -5  10  545.60    9.45
  -2  -5 -10  563.67    9.76
  -2   5  10  550.27    9.09
  -2  -5 -10  545.37    8.56
   2   5 -10  557.00   10.70
  -2   5   9  181.48    3.08
   2  -5   9  202.03    5.82
   2  -5   9  198.98    5.07
  -2   5   9  199.63    4.12
  -2   5   9  196.36    4.93
  -2  -5  -9  205.49    5.36
  -2  -5  -9  201.11    4.78
   2   5  -9  197.23    5.86
   2  -5   8 2125.70   27.57
  -2   5   8 2062.82   23.37
   2   5  -8 2189.52   27.54
  -2   5   8 2079.94   24.00
  -2  -5  -8 1768.69   22.20
  -2  -5  -8 1866.87   22.32
   2  -5   8 2051.74   25.72
  -2  -5  -8 2107.66   27.38
  -2   5   8 2042.47   25.75
  -2  -5  -8 2121.32   26.43
  -2  -5  -8 2062.18   25.61
   2   5  -8 2065.12   27.53
  -2   5   7  624.00    8.89
   2  -5   7  638.16   11.50
  -2  -5  -7  608.06    8.43
   2  -5   7  642.79   10.21
   2   5  -7  647.16   11.47
  -2   5   7  641.48    8.70
  -2  -5  -7  640.94   10.81
  -2   5   7  638.79   10.42
  -2  -5  -7  640.42   11.47
  -2  -5  -7  622.87   10.33
   2   5  -7  634.42   11.67
  -2   5   6  547.66    8.16
   2  -5   6  536.85   10.24
  -2   5   6  542.03    7.17
  -2  -5  -6  537.25    7.90
   2  -5   6  553.61    8.90
   2   5  -6  571.57   10.15
  -2   5   6  550.66    7.32
  -2  -5  -6  538.93    9.36
  -2  -5  -6  555.87   10.21
  -2  -5  -6  586.16    9.81
  -2   5   6  548.61    9.35
   2  -5   6  577.48   10.89
  -2   5   5   72.24    2.21
   2  -5   5   73.77    2.35
  -2   5   5   66.34    1.24
   2   5  -5   70.39    2.90
  -2   5   5   66.09    1.27
  -2  -5  -5   67.67    2.68
   2  -5   5   71.90    3.23
  -2  -5  -5   73.48    2.79
  -2   5   5   72.32    2.67
  -2  -5  -5   72.55    3.03
   2  -5   4 1548.92   19.64
   2   5  -4 1669.96   21.59
  -2   5   4 1537.79   19.99
  -2  -5  -4 1521.43   21.09
   2  -5   4 1550.49   21.32
  -2  -5  -4 1630.15   21.12
  -2   5   4 1573.35   21.03
   2  -5   4 1610.16   22.45
   2  -5   3  310.11    6.69
   2   5  -3  319.83    6.47
   2  -5   3  310.67    5.07
  -2   5   3  310.05    5.75
   2  -5   3  304.76    6.46
  -2  -5  -3  313.43    6.43
  -2  -5  -3  318.04    6.28
   2  -5   2   18.80    1.46
   2   5  -2   19.50    1.39
   2  -5   2   20.98    0.90
   2  -5   2   21.60    1.56
  -2  -5  -2   21.21    1.41
   2  -5   1  133.34    2.26
   2   5  -1  131.70    3.67
  -2   5   1  130.43    3.51
   2  -5   1  126.50    3.77
   2  -5   1  129.89    4.00
  -2  -5  -1  126.98    3.52
   2  -5   1  135.80    3.94
   2   5  -1  135.23    3.82
  -2   5   0 3580.22   43.41
   2  -5   0 3500.88   44.12
   2  -5   0 3648.10   43.72
   2   5   0 3640.19   43.42
  -2  -5   0 3724.01   43.78
  -2  -5   0 3614.01   43.39
   2  -5   0 3590.86   43.96
  -2  -5   0 3579.38   43.79
   2   5   0 3636.52   43.83
  -2  -5   1  119.49    3.51
  -2   5  -1  121.80    3.54
   2   5   1  122.54    3.44
  -2  -5   1  122.40    3.47
   2  -5  -1  118.17    3.64
   2  -5  -1  117.51    3.41
  -2  -5   1  122.35    3.67
   2   5   1  119.03    3.63
  -2   5  -2   19.87    1.45
   2  -5  -2   21.72    1.53
   2  -5  -2   21.46    1.35
   2   5   2   21.22    1.38
  -2  -5   2   22.75    1.46
  -2  -5   2   23.29    1.57
   2  -5  -2   23.67    1.61
   2   5   2   21.89    1.54
   2  -5  -2   21.11    1.40
  -2   5  -3  319.74    6.58
   2  -5  -3  303.48    6.29
   2   5   3  306.85    6.13
   2  -5  -3  306.52    5.86
  -2  -5   3  312.08    6.26
   2  -5  -3  311.57    6.45
  -2  -5   3  301.88    6.33
   2  -5  -3  311.11    6.17
   2  -5  -4 1574.32   20.95
  -2   5  -4 1536.12   21.38
  -2  -5   4 1546.44   21.01
   2  -5  -4 1584.19   20.20
   2   5   4 1552.15   20.81
  -2  -5   4 1579.34   21.05
   2  -5  -4 1563.26   21.16
   2  -5  -4 1545.28   20.81
  -2   5  -5   67.70    2.88
   2   5   5   64.41    2.56
  -2  -5   5   72.00    2.81
   2  -5  -5   69.04    2.27
   2  -5  -5   66.45    2.60
  -2  -5   5   69.18    2.68
   2  -5  -5   67.79    2.70
   2  -5  -5   74.37    2.81
   2   5   6  551.04    9.42
  -2   5  -6  556.67   10.02
  -2  -5   6  544.61    9.67
   2  -5  -6  533.50    9.14
  -2  -5   6  532.24    9.31
   2  -5  -6  545.48    9.60
  -2  -5   7  635.61   11.04
   2  -5  -7  627.13   10.31
   2   5   7  648.45   10.73
  -2  -5   7  641.00   10.52
   2   5   7  650.25   11.54
   2  -5  -7  625.51   10.79
   2  -5  -8 2089.37   26.70
   2   5   8 2057.20   27.28
  -2  -5   8 2026.01   27.75
  -2  -5   8 2066.84   26.77
   2   5   8 2112.15   28.45
   2  -5  -8 2071.65   27.44
   2   5   9  182.18    5.05
   2  -5  -9  195.16    4.75
  -2  -5   9  191.40    4.75
  -2  -5   9  173.98    4.53
   2   5   9  186.71    5.67
   2  -5  -9  195.27    5.27
   2  -5 -10  552.96    9.29
  -2  -5  10  575.09   10.94
  -2  -5  10  535.51    9.17
   2   5  10  554.93   11.09
   2  -5 -10  556.52   10.30
   2  -5 -11 1323.53   18.64
  -2  -5  11 1367.36   20.84
   2   5  11 1330.41   20.85
   2  -5 -11 1324.43   20.06
   2  -5 -12 3258.93   34.52
  -2  -5  12 3260.91   37.71
   2   5  12 3322.05   38.24
   2  -5 -12 3283.88   36.91
   2  -5 -13  318.54    6.79
  -2   5 -13  320.76    9.96
   2  -5 -13  319.95    8.10
   2  -5 -14   67.48    2.87
   2  -5 -14   70.33    3.67
  -2   5 -14   77.15    4.36
   2  -5 -15  509.11   11.44
  -2   5 -15  537.88   12.42
   2  -5 -16 1389.10   22.74
  -2   5 -16 1363.82   23.65
   2  -5 -17  112.75    5.17
  -2   5 -17  115.85    5.59
   2  -5 -18    2.64    1.21
  -2   5 -18    2.75    1.24
   2  -5 -19  116.51    5.59
  -2   5 -19  115.67    5.93
   2  -5 -20  315.68    9.71
  -2   5 -20  318.58   10.42
   2  -5 -21  203.02    7.80
  -2   5 -21  197.30    8.26
  -2   5 -22  290.42   10.24
   2  -5 -22  277.47    9.42
  -2   5 -22  270.62    9.95
  -2   5 -23  114.26    6.37
   2  -5 -23  107.36    5.83
  -2   5 -23  110.49    6.32
  -2   5 -24  481.08   13.82
   2  -5 -24  477.14   13.11
  -2   5 -24  455.25   13.45
  -2   5 -25  106.64    6.21
   2  -5 -25  107.34    5.92
  -2   5 -25   91.63    5.78
  -2   5 -26   62.40    4.75
   2  -5 -26   51.36    4.17
  -2   5 -26   57.02    4.52
   2  -5 -27   10.78    2.19
  -2   5 -27   12.45    2.47
  -2   5 -27    9.86    2.13
   2  -5 -28  235.39    8.64
  -2   5 -28  224.06    8.77
  -2   5 -28  215.98    8.40
   2  -5 -29   10.37    2.03
  -2   5 -29    6.57    1.86
   2   5  29    8.95    1.84
  -2   5 -30   19.95    2.66
   2  -5 -30   19.97    2.50
   2   5  30   18.62    2.45
   2  -5 -31    3.11    1.38
  -2   5 -31    2.65    1.36
   2   6 -31   45.44    3.35
   2   6 -30  124.04    5.88
  -2  -6 -30  130.74    5.95
   2   6 -30  130.30    6.50
   2  -6  30  123.55    5.45
  -2  -6 -29   -0.67    1.52
   2   6 -29   -0.17    1.46
   2   6 -29   -0.20    1.39
   2  -6  29    1.59    1.05
  -2  -6 -28   96.47    5.51
   2   6 -28   94.79    5.56
   2   6 -28   99.60    6.20
   2  -6  28   96.70    5.14
  -2  -6 -27    3.80    1.60
   2   6 -27    4.42    1.49
   2   6 -27    3.71    1.75
  -2  -6 -26   34.10    3.44
   2   6 -26   43.77    4.00
   2   6 -26   42.45    4.27
  -2  -6 -25   10.83    2.25
  -2  -6 -25    9.07    1.78
   2   6 -25    6.47    1.87
   2   6 -25    7.79    2.21
  -2  -6 -24  150.54    7.11
   2   6 -24  155.36    7.48
   2   6 -24  153.33    8.07
   2   6 -23   19.21    2.83
  -2  -6 -23   20.98    2.68
   2   6 -23   21.06    3.21
   2   6 -23   18.97    2.74
  -2  -6 -22   39.19    3.58
   2   6 -22   35.96    3.95
   2   6 -22   32.93    3.44
  -2  -6 -21   35.38    3.34
   2   6 -21   32.46    3.74
   2   6 -21   35.55    3.52
  -2  -6 -20  233.82    8.46
   2   6 -20  234.75    9.51
   2   6 -20  228.12    8.89
  -2  -6 -19  150.61    6.51
   2   6 -19  135.60    7.03
   2   6 -19  139.31    6.76
  -2  -6 -18  727.40   15.59
   2   6 -18  703.27   17.09
   2   6 -18  744.46   16.79
  -2  -6 -17   73.91    4.30
   2   6 -17   69.12    4.79
   2   6 -17   73.14    4.65
  -2  -6 -16  231.96    7.54
   2   6 -16  217.78    8.21
   2   6 -16  225.57    8.15
  -2  -6 -15  856.79   16.34
   2   6 -15  883.31   17.72
  -2  -6 -14  239.60    7.33
   2   6 -14  259.13    8.30
   2   6 -13 1093.18   17.95
  -2   6  13 1100.96   18.04
  -2  -6 -13 1120.94   18.72
  -2  -6 -13 1115.00   16.50
   2   6 -13 1131.95   19.99
   2  -6  12  229.01    6.50
  -2   6  12  231.93    6.38
  -2  -6 -12  227.96    6.70
  -2  -6 -12  227.02    5.66
   2   6 -12  231.72    7.42
   2  -6  11   28.93    2.11
  -2  -6 -11   22.45    2.00
  -2   6  11   22.51    1.85
  -2  -6 -11   21.04    1.67
   2   6 -11   31.54    2.59
   2  -6  10  422.05    9.47
   2  -6  10  398.57    8.07
  -2   6  10  397.99    6.56
  -2  -6 -10  407.09    8.65
  -2   6  10  422.89    8.36
  -2  -6 -10  399.98    7.75
   2   6 -10  402.05    9.42
   2  -6   9   29.11    2.28
  -2   6   9   27.42    1.26
   2  -6   9   29.27    1.89
  -2   6   9   27.43    1.33
  -2  -6  -9   29.70    2.14
  -2   6   9   27.43    1.92
  -2  -6  -9   27.34    1.91
   2   6  -9   27.93    2.30
  -2  -6  -8  327.00    4.78
  -2  -6  -8  333.20    4.84
   2  -6   8  453.56    9.46
  -2   6   8  431.13    5.98
   2  -6   8  431.62    7.84
  -2   6   8  417.63    6.12
   2   6  -8  453.13    9.31
  -2   6   8  413.33    5.91
  -2   6   8  424.93    8.23
  -2  -6  -8  455.58    8.85
  -2  -6  -8  445.72    9.31
  -2  -6  -8  436.23    8.21
   2   6  -8  443.99    9.50
   2  -6   7  128.72    4.64
   2   6  -7  135.71    4.63
  -2  -6  -7  123.85    2.69
   2  -6   7  129.90    3.74
  -2   6   7  134.00    2.51
  -2   6   7  127.13    2.97
  -2   6   7  127.81    2.57
  -2  -6  -7  124.15    2.57
   2   6  -7  136.91    4.94
  -2  -6  -7  127.30    4.08
   2  -6   7  130.04    4.94
  -2  -6  -7  141.55    4.46
  -2   6   7  129.33    4.14
  -2   6   6  158.69    3.56
   2  -6   6  157.29    3.96
  -2  -6  -6  150.91    3.20
  -2   6   6  151.02    2.43
   2   6  -6  172.61    5.05
  -2   6   6  149.76    2.47
   2  -6   6  168.46    4.85
  -2  -6  -6  160.01    4.62
  -2   6   6  159.59    4.61
   2  -6   6  172.13    5.57
  -2  -6  -6  164.01    4.71
  -2   6   5  737.51   10.77
   2  -6   5  731.82   10.81
   2   6  -5  739.64   12.52
  -2  -6  -5  734.98   12.22
   2  -6   5  752.19   12.43
   2  -6   5  739.68   13.37
  -2  -6  -5  730.08   12.16
  -2   6   5  726.39   12.16
  -2   6   4   92.40    2.80
   2  -6   4   95.37    3.66
   2  -6   4   90.10    2.54
   2   6  -4   93.21    3.42
   2  -6   4   88.34    3.43
   2  -6   4   94.53    3.88
  -2   6   4   91.01    3.40
  -2  -6  -4   87.09    3.26
  -2   6   3  216.07    4.79
   2  -6   3  222.90    4.10
   2  -6   3  210.32    5.62
   2   6  -3  226.83    5.50
  -2  -6  -3  216.23    5.46
   2  -6   3  219.82    5.66
  -2   6   3  215.61    5.54
  -2  -6  -3  221.93    5.42
  -2  -6  -2  744.03   12.42
  -2   6   2  768.16   11.63
   2  -6   2  793.00   12.70
   2  -6   2  763.98   10.00
   2   6  -2  773.58   12.21
   2  -6   2  738.47   12.53
   2   6  -2  730.55   12.42
  -2  -6  -2  808.76   12.45
  -2   6   1  342.46    6.70
   2  -6   1  341.38    7.20
   2  -6   1  346.02    7.68
  -2  -6  -1  339.86    6.77
   2  -6   1  337.93    4.84
   2   6  -1  373.13    7.13
  -2  -6  -1  349.99    7.26
   2  -6   1  344.52    7.36
   2   6  -1  355.74    7.38
  -2  -6  -1  338.88    7.07
  -2   6   0 3348.22   41.29
   2  -6   0 3390.39   42.43
  -2  -6   0 3361.23   41.21
  -2  -6   0 3362.44   41.80
   2  -6   0 3385.83   41.72
   2   6   0 3369.99   41.32
   2  -6   0 3379.21   42.14
  -2  -6   0 3426.87   41.98
   2   6   0 3257.54   41.88
   2  -6   0 3332.45   41.40
  -2  -6   0 3515.55   41.88
  -2   6  -1  360.65    7.21
  -2  -6   1  353.02    7.36
   2   6   1  362.96    7.03
   2  -6  -1  349.58    7.54
  -2  -6   1  366.25    7.10
   2  -6  -1  361.46    7.20
  -2  -6   1  347.15    7.40
   2   6   1  365.66    7.60
   2  -6  -1  355.33    7.12
   2  -6  -2  773.94   12.62
  -2  -6   2  739.85   11.96
  -2  -6   2  764.97   12.34
   2  -6  -2  775.80   11.91
   2   6   2  749.07   11.84
  -2   6  -2  766.56   12.34
  -2  -6   2  752.09   12.44
   2   6   2  744.61   12.61
   2  -6  -2  760.77   12.10
   2  -6  -3  240.85    5.81
   2   6   3  233.75    5.35
  -2  -6   3  229.17    5.48
   2  -6  -3  225.89    5.14
  -2  -6   3  222.10    5.50
  -2   6  -3  230.65    5.70
  -2  -6   3  238.78    5.78
   2  -6  -3  225.31    5.73
   2  -6  -3  221.94    5.42
   2   6   3  234.93    5.95
   2  -6  -4   71.26    2.96
   2   6   4   72.25    2.80
  -2  -6   4   70.45    2.88
   2  -6  -4   77.38    2.65
  -2  -6   4   74.51    3.00
  -2   6  -4   76.35    3.16
   2  -6  -4   71.37    3.03
  -2  -6   4   79.43    3.14
   2  -6  -4   73.38    2.97
  -2  -6   5  742.91   12.29
   2  -6  -5  756.53   11.26
   2   6   5  777.32   12.15
  -2  -6   5  743.94   12.31
   2  -6  -5  769.07   12.39
  -2   6  -5  743.71   12.82
   2  -6  -5  752.38   12.46
  -2  -6   5  738.93   12.31
   2  -6  -5  752.51   12.36
   2  -6  -6  172.16    4.81
   2  -6  -6  171.71    3.94
  -2  -6   6  177.21    4.98
   2   6   6  176.56    4.75
  -2  -6   6  172.16    4.86
  -2   6  -6  177.10    5.24
   2  -6  -6  176.45    4.93
  -2  -6   6  177.44    4.88
   2  -6  -6  173.72    4.90
  -2  -6   7  116.32    3.99
   2   6   7  121.34    3.91
   2  -6  -7  118.22    3.89
  -2  -6   7  126.66    4.22
  -2   6  -7  113.69    4.25
   2  -6  -7  129.60    4.27
   2   6   7  121.73    4.46
  -2  -6   7  123.42    3.97
  -2  -6   8  421.20    9.25
  -2  -6   8  434.06    8.94
   2   6   8  418.97    8.41
  -2  -6   8  427.02    8.65
   2  -6  -8  419.19    8.35
   2   6   8  429.56    9.44
   2  -6  -8  428.26    8.86
  -2  -6   8  421.56    8.33
  -2   6  -8  410.95    7.86
   2   6   9   27.10    1.92
   2  -6  -9   28.29    1.92
  -2  -6   9   29.98    2.27
  -2  -6   9   25.98    2.02
  -2  -6   9   27.86    1.88
   2  -6  -9   28.73    2.07
  -2  -6   9   27.57    1.96
   2   6   9   25.81    2.18
   2   6  10  450.45    9.04
   2  -6 -10  424.80    8.48
  -2  -6  10  430.56    9.45
  -2  -6  10  423.39    9.71
  -2  -6  10  427.06    8.41
   2  -6 -10  432.11    9.22
  -2  -6  10  400.34    8.40
   2   6  10  416.95    9.75
   2   6  11   21.62    1.84
   2  -6 -11   23.56    1.81
  -2  -6  11   23.90    1.77
   2  -6 -11   24.60    2.04
   2  -6 -12  221.02    5.78
   2   6  12  216.75    6.24
   2  -6 -12  217.30    6.49
   2  -6 -13 1128.96   16.01
   2  -6 -13 1161.30   17.93
   2  -6 -14  230.51    6.02
  -2   6 -14  229.95    8.82
   2  -6 -14  227.44    7.10
   2  -6 -15  856.28   14.33
   2  -6 -15  885.61   16.59
   2  -6 -16  221.78    7.42
  -2   6 -16  221.33    7.93
   2  -6 -17   72.58    4.24
  -2   6 -17   65.96    4.41
   2  -6 -18  737.54   15.67
  -2   6 -18  714.80   16.38
   2  -6 -19  138.91    6.22
  -2   6 -19  139.52    6.70
   2  -6 -20  226.42    8.21
  -2   6 -20  224.32    8.82
   2  -6 -21   32.73    3.21
  -2   6 -21   28.98    3.30
   2  -6 -22   32.31    3.22
  -2   6 -22   32.97    3.51
  -2   6 -23   20.78    2.95
   2  -6 -23   18.38    2.51
  -2   6 -23   17.89    2.82
   2  -6 -24  146.06    6.91
  -2   6 -24  146.91    7.36
  -2   6 -24  145.21    7.32
  -2   6 -25    7.60    2.15
   2  -6 -25    9.30    2.17
  -2   6 -25    6.78    1.89
   2  -6 -26   42.52    3.80
  -2   6 -26   42.39    3.99
  -2   6 -26   45.39    4.07
   2  -6 -27    5.47    1.68
  -2   6 -27    2.92    1.68
  -2   6 -27    1.70    1.28
   2  -6 -28   87.64    5.17
  -2   6 -28   88.41    5.42
  -2   6 -28   86.82    5.23
   2   6  28   92.90    5.19
   2  -6 -29   -0.33    1.31
  -2   6 -29   -0.17    1.33
   2   6  29    0.76    1.03
   2  -6 -30  141.92    6.17
  -2   6 -30  136.55    6.18
   2   6  30  132.05    5.70
   2  -6 -31   43.59    3.22
   2   7 -30   47.13    3.62
  -2  -7 -30   55.66    3.76
   2   7 -30   47.82    3.89
   2   7 -29   14.91    2.28
  -2  -7 -29   16.17    2.35
   2   7 -29   14.94    2.55
  -2  -7 -28  183.97    7.43
   2   7 -28  177.69    7.50
   2   7 -28  166.63    7.91
   2   7 -27   35.23    3.44
  -2  -7 -27   36.69    3.44
   2   7 -27   32.67    3.68
   2  -7  27   32.25    3.00
  -2  -7 -26   53.00    4.23
   2   7 -26   52.60    4.30
   2   7 -26   51.92    4.67
   2  -7  26   39.35    3.39
   2   7 -25   37.99    4.08
  -2  -7 -25   40.86    3.76
   2   7 -25   36.39    3.67
  -2  -7 -24  759.50   17.34
   2   7 -24  722.60   17.53
   2   7 -24  751.41   19.09
  -2  -7 -23    6.85    1.87
  -2  -7 -23    1.54    1.23
   2   7 -23    7.30    2.10
   2   7 -23    4.50    1.71
  -2  -7 -22   91.03    5.42
   2   7 -22   84.83    6.03
   2   7 -22   83.13    5.39
  -2  -7 -21   70.06    4.74
   2   7 -21   68.60    5.31
   2   7 -21   66.36    4.78
  -2  -7 -20  836.14   17.96
   2   7 -20  828.44   19.74
   2   7 -20  827.90   18.70
  -2  -7 -19  165.57    7.02
   2   7 -19  161.66    7.92
   2   7 -19  172.34    7.62
  -2  -7 -18   68.47    4.37
   2   7 -18   75.92    5.24
   2   7 -18   70.54    4.78
  -2  -7 -17  115.34    5.51
   2   7 -17  108.73    6.10
   2   7 -17  110.87    5.91
  -2  -7 -16  957.27   18.44
   2   7 -16 1012.10   20.01
  -2  -7 -15   90.81    4.66
   2   7 -15   92.21    5.11
  -2  -7 -14   52.42    3.43
   2   7 -14   60.74    4.05
  -2  -7 -13   88.43    4.35
  -2  -7 -13   77.87    3.39
   2   7 -13   89.29    4.76
  -2  -7 -12  735.62   14.10
  -2  -7 -12  702.40   12.40
   2   7 -12  715.77   14.85
   2  -7  11    9.22    1.30
  -2   7  11   11.59    1.49
  -2  -7 -11   11.10    1.63
  -2  -7 -11   10.04    1.36
   2   7 -11   10.93    1.70
   2  -7  10   66.83    3.11
  -2  -7 -10   76.87    3.74
  -2   7  10   66.95    3.34
  -2  -7 -10   71.37    3.24
   2   7 -10   71.34    3.89
   2  -7   9   51.34    2.58
  -2  -7  -9   55.69    3.07
  -2   7   9   60.51    3.08
  -2  -7  -9   52.24    2.75
   2   7  -9   55.83    3.38
   2   7  -8  603.63   11.16
   2  -7   8  577.61    9.26
   2  -7   8  590.04   11.84
  -2  -7  -8  600.84   10.65
  -2   7   8  564.88   10.25
  -2  -7  -8  591.82   10.21
   2   7  -8  608.07   11.76
   2  -7   8  575.07    8.59
  -2  -7  -7  545.87    7.49
  -2   7   7  482.37    6.50
  -2   7   7  468.87    6.52
  -2  -7  -7  554.62    7.73
   2  -7   7  595.07    9.48
   2   7  -7  599.54   11.26
   2  -7   7  588.23   12.09
  -2  -7  -7  599.50   10.85
  -2   7   7  575.37   10.68
  -2  -7  -7  597.41   10.61
   2  -7   7  574.23    9.48
  -2  -7  -6  226.23    4.40
   2  -7   6  223.49    6.59
   2  -7   6  233.23    5.14
   2   7  -6  239.85    6.45
  -2   7   6  229.65    6.20
   2  -7   6  244.99    7.15
  -2  -7  -6  236.93    6.26
  -2  -7  -6  233.48    6.18
   2  -7   6  228.77    6.22
   2  -7   6  230.72    5.25
   2  -7   5  285.60    7.36
   2  -7   5  294.48    5.64
   2   7  -5  277.94    6.94
  -2  -7  -5  283.15    5.39
  -2   7   5  285.09    5.69
  -2  -7  -5  302.58    7.08
   2  -7   5  282.76    7.03
   2  -7   5  287.66    7.78
  -2  -7  -5  278.66    6.88
  -2   7   5  287.15    7.04
   2  -7   4 1866.34   25.88
   2  -7   4 1832.11   22.60
   2   7  -4 1779.85   25.00
  -2  -7  -4 1759.66   25.33
  -2   7   4 1765.34   23.38
  -2  -7  -4 1809.96   23.10
   2  -7   4 1795.05   25.40
  -2  -7  -4 1818.08   25.21
   2  -7   4 1773.06   26.32
  -2   7   4 1808.41   25.30
  -2  -7  -4 1828.87   25.10
   2  -7   3   39.24    2.41
  -2  -7  -3   36.17    2.34
   2  -7   3   36.77    1.46
   2   7  -3   37.80    2.22
  -2  -7  -3   39.95    1.90
  -2   7   3   37.10    1.91
   2  -7   3   37.26    2.36
  -2  -7  -3   40.55    2.41
  -2   7   3   33.48    2.19
  -2  -7  -3   38.53    2.28
  -2  -7  -2  198.81    5.62
   2  -7   2  201.58    5.69
  -2   7   2  208.09    5.06
   2   7  -2  206.15    5.39
   2  -7   2  205.30    3.69
  -2  -7  -2  212.63    4.97
   2  -7   2  209.79    5.85
   2   7  -2  197.09    5.67
  -2  -7  -2  209.89    5.64
  -2  -7  -1  119.96    4.17
   2  -7   1  116.97    4.06
   2   7  -1  113.63    3.78
  -2  -7  -1  116.85    3.64
   2  -7   1  110.32    2.20
  -2   7   1  116.57    3.71
   2  -7   1  111.82    4.17
   2   7  -1  105.72    4.02
  -2  -7  -1  109.88    3.97
   2  -7   0 7246.77   85.59
   2  -7   0 7366.24   84.63
  -2  -7   0 7086.34   84.85
  -2  -7   0 7078.63   83.88
   2   7   0 7192.64   84.01
  -2  -7   0 7201.82   83.95
  -2   7   0 7047.54   84.00
  -2  -7   0 7132.03   85.03
   2  -7   0 7196.31   85.12
   2   7   0 7348.54   85.29
  -2  -7   1  113.83    3.74
  -2  -7   1  114.23    4.08
   2   7   1  109.39    3.66
   2  -7  -1  116.07    3.88
   2  -7  -1  107.53    4.14
  -2  -7   1  113.61    3.83
  -2   7  -1  108.26    3.78
  -2  -7   1  110.96    4.12
   2   7   1  114.91    4.19
   2  -7  -1  106.09    3.81
   2  -7  -2  210.25    5.32
  -2  -7   2  205.46    5.34
   2  -7  -2  210.70    5.91
   2   7   2  210.34    5.26
  -2  -7   2  211.20    5.73
  -2  -7   2  219.59    5.65
  -2   7  -2  207.38    5.56
  -2  -7   2  209.95    5.83
   2   7   2  210.07    5.92
   2  -7  -2  213.24    5.60
   2  -7  -3   37.95    2.39
   2   7   3   38.39    2.11
   2  -7  -3   35.46    2.00
  -2  -7   3   36.12    2.13
  -2  -7   3   39.32    2.38
  -2  -7   3   41.12    2.36
  -2   7  -3   40.46    2.35
   2  -7  -3   37.64    2.38
  -2  -7   3   38.43    2.37
   2  -7  -3   40.84    2.34
   2   7   3   38.02    2.42
  -2  -7   4 1857.70   25.29
   2  -7  -4 1812.22   25.29
   2  -7  -4 1789.14   23.82
   2   7   4 1764.13   24.35
  -2   7  -4 1795.43   25.29
  -2  -7   4 1762.82   25.31
  -2  -7   4 1826.38   24.84
   2  -7  -4 1800.06   25.29
  -2  -7   4 1828.40   25.28
   2  -7  -4 1826.39   25.06
   2  -7  -5  287.12    6.95
  -2  -7   5  285.00    6.95
   2  -7  -5  281.10    5.85
  -2  -7   5  297.60    7.28
  -2  -7   5  275.68    6.66
   2   7   5  270.17    6.36
  -2  -7   5  284.37    6.90
   2  -7  -5  284.08    6.97
   2  -7  -5  279.93    6.83
   2   7   6  237.37    5.87
  -2  -7   6  249.70    6.69
  -2  -7   6  218.61    6.05
  -2  -7   6  220.35    5.97
   2  -7  -6  226.34    4.91
   2  -7  -6  227.93    6.09
   2  -7  -6  223.73    6.13
  -2  -7   6  245.87    6.26
   2  -7  -6  229.04    6.16
  -2  -7   7  580.27   11.10
   2   7   7  590.77   10.68
  -2  -7   7  581.02   11.09
   2  -7  -7  583.99   10.97
   2  -7  -7  568.86   10.96
  -2  -7   7  586.41   10.94
   2   7   7  573.54   11.72
   2  -7  -7  578.42   11.07
  -2  -7   8  605.54   11.52
   2  -7  -8  590.07   11.11
  -2  -7   8  588.03   11.43
   2   7   8  592.98   10.92
  -2  -7   8  587.56   10.98
   2  -7  -8  593.51   11.40
   2   7   8  591.19   12.10
   2   7   9   49.50    2.66
  -2  -7   9   45.83    2.79
   2  -7  -9   49.01    2.69
  -2  -7   9   47.15    2.67
  -2  -7   9   48.04    2.82
   2  -7  -9   51.37    2.92
   2  -7 -10   71.04    3.28
   2   7  10   71.15    3.32
  -2  -7  10   70.87    3.23
  -2  -7  10   67.80    3.37
   2  -7 -10   67.84    3.53
   2  -7 -11   14.82    1.58
   2   7  11   10.52    1.40
  -2  -7  11   13.20    1.53
   2  -7 -11   12.24    1.67
  -2  -7  11   11.84    1.48
   2  -7 -12  739.63   13.10
   2  -7 -12  742.85   14.24
   2  -7 -13   85.99    3.66
   2  -7 -13   85.26    4.22
   2  -7 -14   49.49    2.85
  -2   7 -14   46.85    5.16
   2  -7 -14   49.59    3.37
   2  -7 -15   91.00    3.91
  -2   7 -15   93.31    5.74
   2  -7 -15   95.85    4.78
   2  -7 -16  989.41   18.53
  -2   7 -16 1019.27   20.37
   2  -7 -17  112.10    5.42
  -2   7 -17  105.19    5.75
   2  -7 -18   67.73    4.35
  -2   7 -18   62.82    4.59
   2  -7 -19  170.48    7.05
  -2   7 -19  155.69    7.35
   2  -7 -20  861.10   18.18
  -2   7 -20  860.39   19.33
   2  -7 -21   78.68    4.93
  -2   7 -21   74.86    5.24
   2  -7 -22   95.39    5.47
  -2   7 -22   82.18    5.56
   2  -7 -23    5.25    1.65
  -2   7 -23    4.24    1.71
   2  -7 -24  720.97   16.72
  -2   7 -24  694.77   17.30
  -2   7 -24  711.43   17.53
  -2   7 -25   38.68    3.83
   2  -7 -25   37.00    3.53
  -2   7 -25   32.44    3.52
  -2   7 -26   44.12    4.00
   2  -7 -26   45.69    3.85
  -2   7 -26   37.45    3.75
   2   7  26   46.82    3.74
   2  -7 -27   46.14    3.77
  -2   7 -27   40.18    3.78
  -2   7 -27   38.16    3.63
   2   7  27   33.71    3.20
  -2   7 -28  171.57    7.41
   2  -7 -28  182.58    7.30
  -2   7 -28  157.17    6.96
   2  -7 -29   13.85    2.16
  -2   7 -29   13.46    2.22
  -2   7 -30   47.26    3.63
   2  -7 -30   46.67    3.45
  -2  -8 -29   35.29    3.09
   2   8 -29   36.53    3.25
   2   8 -29   40.34    3.61
  -2  -8 -28   98.38    5.23
   2   8 -28  100.98    5.45
   2   8 -28   99.95    5.91
  -2  -8 -27   19.60    2.56
   2   8 -27   21.28    2.76
   2   8 -27   20.10    2.96
  -2  -8 -26   39.18    3.48
   2   8 -26   37.28    3.55
   2   8 -26   43.44    4.26
  -2  -8 -25    5.44    1.59
   2   8 -25    6.31    1.93
   2   8 -25    5.47    2.03
  -2  -8 -24   17.10    2.32
  -2  -8 -24   22.34    2.89
   2   8 -24   23.24    2.98
   2   8 -24   25.26    3.45
   2  -8  24   21.11    2.50
  -2  -8 -23   30.12    3.06
  -2  -8 -23   40.40    3.70
   2   8 -23   43.13    4.42
   2   8 -23   34.76    3.58
   2  -8  23   31.97    2.98
  -2  -8 -22   42.34    3.52
  -2  -8 -22   39.20    3.69
   2   8 -22   36.27    4.15
   2   8 -22   40.63    3.88
  -2  -8 -21  117.71    5.83
  -2  -8 -21  129.42    6.57
   2   8 -21  120.12    7.09
   2   8 -21  128.49    6.70
  -2  -8 -20  177.45    7.24
   2   8 -20  175.14    8.54
   2   8 -20  177.99    7.95
  -2  -8 -19   74.65    4.62
  -2  -8 -19   74.60    4.87
   2   8 -19   75.49    5.48
   2   8 -19   62.01    4.65
  -2  -8 -18   22.91    2.78
   2   8 -18   22.03    3.21
   2   8 -18   20.18    2.78
  -2  -8 -17   71.10    4.62
   2   8 -17   72.34    4.89
  -2  -8 -16  117.16    5.76
   2   8 -16  106.34    5.83
  -2  -8 -15  615.62   14.04
   2   8 -15  601.96   14.65
  -2  -8 -14  267.62    8.44
  -2  -8 -14  260.17    6.91
   2   8 -14  253.15    8.72
  -2  -8 -13  511.08   11.90
  -2  -8 -13  481.89   10.24
   2   8 -13  492.68   12.53
  -2  -8 -12  303.42    8.55
  -2  -8 -12  289.26    7.48
   2   8 -12  294.03    9.08
  -2  -8 -11  218.94    6.85
  -2  -8 -11  225.57    6.34
   2   8 -11  211.70    7.35
   2  -8  10  298.23    7.24
  -2  -8 -10  306.83    8.23
  -2  -8 -10  304.66    7.78
   2   8 -10  308.76    8.96
   2  -8  10  306.86    7.13
   2  -8   9  282.44    6.77
  -2   8   9  289.95    7.83
  -2  -8  -9  304.24    7.99
  -2  -8  -9  301.29    7.61
   2   8  -9  295.59    8.59
   2  -8   9  290.78    6.71
   2  -8   8  222.45    5.61
  -2  -8  -8  239.40    6.87
   2  -8   8  222.46    7.52
  -2   8   8  222.44    6.65
   2   8  -8  234.20    7.52
  -2  -8  -8  239.56    6.65
   2  -8   8  223.50    5.54
  -2  -8  -7   70.48    2.05
   2  -8   7   74.49    2.89
   2   8  -7   74.45    3.73
   2  -8   7   80.51    3.78
  -2  -8  -7   81.83    3.72
  -2  -8  -7   78.89    3.73
   2  -8   7   75.92    4.20
  -2   8   7   79.84    3.77
   2   8  -6 1513.91   22.59
  -2  -8  -6 1410.83   18.89
   2  -8   6 1460.70   19.85
  -2  -8  -6 1409.86   22.59
   2  -8   6 1516.58   22.60
  -2  -8  -6 1510.85   22.31
  -2   8   6 1476.48   22.54
  -2  -8  -6 1556.82   22.50
   2  -8   6 1493.73   23.92
   2  -8   5  242.60    5.10
  -2  -8  -5  239.12    5.11
   2   8  -5  246.70    6.71
   2  -8   5  244.63    7.07
  -2  -8  -5  239.11    6.85
   2  -8   5  234.85    6.73
  -2  -8  -5  239.71    6.68
   2  -8   5  248.38    7.52
  -2   8   5  235.80    6.70
  -2  -8  -5  236.50    6.60
  -2  -8  -4 2116.43   29.77
  -2  -8  -4 2126.52   27.14
   2  -8   4 2135.13   30.07
   2  -8   4 2114.43   26.22
   2   8  -4 2099.85   29.22
   2  -8   4 2132.32   30.99
   2  -8   4 2107.33   29.80
  -2  -8  -4 2128.38   29.57
  -2  -8  -4 2220.92   29.69
  -2   8   4 2046.68   29.45
  -2  -8  -3  230.31    5.35
   2  -8   3  224.39    6.47
  -2  -8  -3  222.99    6.44
   2  -8   3  212.06    4.21
   2   8  -3  228.95    6.13
   2  -8   3  222.76    6.48
  -2  -8  -3  231.49    6.46
   2   8  -3  218.34    6.47
  -2   8   3  212.86    6.25
  -2  -8  -3  222.93    6.29
  -2  -8  -2   27.34    2.22
   2  -8   2   24.86    2.07
   2  -8   2   34.75    1.28
   2   8  -2   24.88    1.88
  -2  -8  -2   30.85    1.88
   2  -8   2   29.47    2.31
  -2   8   2   21.13    1.89
   2   8  -2   25.45    2.12
  -2  -8  -2   26.31    2.08
   2  -8   1  129.86    4.61
  -2  -8  -1  130.74    4.75
   2   8  -1  128.45    4.31
  -2  -8  -1  143.79    4.31
   2  -8   1  126.36    4.77
  -2  -8  -1  137.50    4.79
   2   8  -1  126.09    4.74
  -2  -8   0   11.36    1.26
   2   8   0    6.94    1.03
   2  -8   0    8.12    1.17
  -2  -8   0    8.72    1.13
   2  -8   0    7.58    1.40
  -2  -8   0    8.40    1.43
   2  -8   0    6.63    1.31
   2   8   0   10.34    1.42
  -2  -8   0    6.69    1.23
  -2  -8   1  134.18    4.80
  -2  -8   1  129.24    4.27
   2   8   1  131.62    4.28
  -2  -8   1  139.78    4.52
   2  -8  -1  135.63    5.04
   2  -8  -1  133.54    4.48
  -2  -8   1  141.13    4.94
   2   8   1  131.68    4.87
   2  -8  -1  133.38    4.65
  -2  -8   2   26.86    2.14
   2   8   2   28.56    1.91
   2  -8  -2   25.56    1.87
  -2  -8   2   27.26    1.92
   2  -8  -2   24.39    2.15
  -2  -8   2   28.48    2.05
  -2  -8   2   30.13    2.30
   2   8   2   30.57    2.34
   2  -8  -2   26.23    2.04
   2   8   3  209.14    5.58
   2  -8  -3  213.57    5.58
   2  -8  -3  218.83    6.42
  -2  -8   3  213.58    5.81
  -2  -8   3  224.89    6.41
  -2  -8   3  217.27    6.15
  -2  -8   3  210.62    6.23
   2  -8  -3  220.39    6.38
   2  -8  -3  218.32    6.16
   2   8   3  217.32    6.56
   2  -8  -4 2094.39   30.04
  -2  -8   4 2194.77   30.21
  -2  -8   4 2155.74   29.33
   2  -8  -4 2154.68   28.38
   2   8   4 2212.16   28.98
  -2  -8   4 2218.76   30.26
  -2  -8   4 2174.39   30.11
   2  -8  -4 2105.18   30.03
   2  -8  -4 2130.34   29.79
   2  -8  -5  231.40    5.51
   2   8   5  230.89    6.02
   2  -8  -5  235.11    6.67
  -2  -8   5  245.64    6.76
  -2  -8   5  227.03    6.24
  -2  -8   5  243.47    6.85
   2  -8  -5  236.58    6.71
  -2  -8   5  241.26    6.72
   2  -8  -5  232.90    6.51
   2  -8  -6 1506.77   22.64
   2  -8  -6 1442.71   20.01
  -2  -8   6 1446.65   22.10
  -2  -8   6 1500.11   22.65
   2   8   6 1531.69   21.74
  -2  -8   6 1505.87   23.10
   2  -8  -6 1493.03   22.60
  -2  -8   6 1562.51   22.70
   2  -8  -6 1514.86   22.53
  -2  -8   7   77.90    3.59
  -2  -8   7   80.42    3.80
   2   8   7   74.01    3.29
   2  -8  -7   78.57    3.69
   2  -8  -7   71.51    3.54
  -2  -8   7   76.33    3.62
   2  -8  -7   74.33    3.63
  -2  -8   8  222.09    6.72
   2  -8  -8  221.55    6.49
   2   8   8  219.76    6.10
  -2  -8   8  224.95    6.45
   2  -8  -8  217.52    6.56
   2   8   9  296.75    7.41
  -2  -8   9  307.96    8.15
   2  -8  -9  307.10    7.84
  -2  -8   9  307.66    7.78
   2  -8  -9  291.08    7.88
   2  -8 -10  315.65    8.06
  -2  -8  10  305.58    7.80
   2  -8 -10  312.64    8.31
  -2  -8  10  312.13    8.30
   2  -8 -11  221.79    6.60
  -2  -8  11  211.86    6.28
   2  -8 -11  210.98    6.82
  -2  -8  11  228.24    6.94
   2  -8 -12  296.87    7.93
  -2  -8  12  309.18    7.77
   2  -8 -12  316.49    8.74
   2  -8 -13  498.08   10.80
   2  -8 -13  510.14   12.00
   2  -8 -14  241.19    6.85
   2  -8 -14  252.56    8.02
   2  -8 -15  602.53   12.33
  -2   8 -15  633.61   17.46
   2  -8 -15  630.80   14.24
   2  -8 -16  102.29    4.46
  -2   8 -16  116.17    6.54
   2  -8 -16  121.19    5.83
  -2   8 -17   73.50    5.01
   2  -8 -17   77.98    4.78
  -2   8 -18   18.72    2.86
   2  -8 -18   23.73    2.78
  -2   8 -19   63.18    4.79
   2  -8 -19   67.98    4.65
  -2   8 -20  175.79    8.08
   2  -8 -20  202.84    8.12
  -2   8 -21  109.89    6.48
   2  -8 -21  114.64    6.14
  -2   8 -22   45.80    4.26
   2  -8 -22   41.31    3.79
  -2   8 -23   39.98    4.01
   2  -8 -23   47.24    3.96
  -2   8 -24   29.17    3.46
   2  -8 -24   32.99    3.42
  -2   8 -24   28.63    3.32
  -2   8 -25    5.47    1.81
   2  -8 -25    7.45    1.76
  -2   8 -25    5.58    1.76
  -2   8 -26   37.04    3.68
   2  -8 -26   42.55    3.58
  -2   8 -26   35.62    3.46
  -2   8 -27   23.46    2.88
   2  -8 -27   22.05    2.65
  -2   8 -27   28.25    3.16
   2  -8 -28  102.73    5.23
  -2   8 -28   93.76    5.30
   2  -8 -29   42.04    3.25
  -2   8 -29   35.08    3.24
   2   9 -28  111.54    5.98
  -2  -9 -28  106.34    5.24
   2   9 -28  106.31    5.46
   2   9 -27    8.93    2.11
   2   9 -27   12.41    2.12
  -2  -9 -27   10.82    1.86
   2   9 -26   95.55    5.99
  -2  -9 -26   91.94    5.23
   2   9 -26   89.65    5.41
   2   9 -25   18.35    3.01
   2   9 -25   19.40    2.70
  -2  -9 -25   16.50    2.36
  -2  -9 -24  235.14    7.97
  -2  -9 -24  233.78    8.72
   2   9 -24  249.04   10.22
  -2  -9 -23    6.50    1.73
  -2  -9 -23    4.71    1.69
   2   9 -23    6.33    2.08
   2   9 -23    3.33    1.48
  -2  -9 -22    8.39    1.91
  -2  -9 -22    4.04    1.48
   2   9 -22    3.67    1.90
   2   9 -22    4.06    1.60
  -2  -9 -21   10.42    2.13
  -2  -9 -21   18.00    2.60
   2   9 -21   10.68    2.64
   2   9 -21   11.98    2.23
  -2  -9 -20  223.90    8.25
  -2  -9 -20  226.35    8.56
   2   9 -20  217.21    9.63
   2   9 -20  208.18    8.69
  -2  -9 -19   49.69    3.89
  -2  -9 -19   50.93    4.03
   2   9 -19   44.72    4.44
   2   9 -19   51.00    4.30
  -2  -9 -18  198.08    7.70
  -2  -9 -18  197.62    7.85
   2   9 -18  187.44    8.77
   2   9 -18  186.49    8.11
  -2  -9 -17  137.83    6.42
  -2  -9 -17  137.74    6.33
   2   9 -17  133.61    6.74
  -2  -9 -16  241.27    8.51
  -2  -9 -16  246.98    8.53
   2   9 -16  256.44    9.34
  -2  -9 -15    5.35    1.54
  -2  -9 -15    6.63    1.72
   2   9 -15    3.05    1.45
  -2  -9 -14  100.80    5.20
  -2  -9 -14  100.50    5.11
  -2  -9 -14  100.74    4.39
   2   9 -14   98.85    5.51
   2  -9  14   98.06    4.21
  -2  -9 -13   28.21    2.82
  -2  -9 -13   31.12    2.85
  -2  -9 -13   29.28    2.46
   2  -9  13   27.67    2.23
   2   9 -13   30.38    3.08
  -2  -9 -12  700.21   14.79
  -2  -9 -12  725.64   14.66
  -2  -9 -12  696.45   13.32
   2   9 -12  691.34   15.33
  -2  -9 -11  166.63    6.52
  -2  -9 -11  168.29    6.32
  -2  -9 -11  153.30    5.61
   2   9 -11  167.41    6.78
  -2  -9 -10   98.94    4.94
  -2  -9 -10   93.89    4.60
  -2  -9 -10   95.66    4.34
   2   9 -10   95.96    5.03
  -2  -9  -9  186.10    6.50
  -2  -9  -9  190.96    6.30
   2   9  -9  196.16    7.19
   2   9  -8 2413.96   35.66
  -2  -9  -8 2366.10   33.55
   2  -9   8 2350.92   35.80
  -2  -9  -8 2393.92   33.88
   2  -9   7   33.18    1.95
  -2  -9  -7   39.20    2.78
   2  -9   7   39.25    3.26
  -2  -9  -7   38.70    2.82
  -2  -9  -6   18.53    2.09
   2  -9   6   16.06    1.29
   2  -9   6   20.24    2.14
  -2  -9  -6   18.73    2.07
   2  -9   6   16.77    2.22
  -2  -9  -6   14.58    1.80
  -2  -9  -5  304.52    8.36
  -2  -9  -5  299.31    6.21
   2  -9   5  309.28    6.04
  -2  -9  -5  319.63    8.34
   2  -9   5  302.79    8.28
   2  -9   5  311.14    9.13
  -2  -9  -5  314.89    8.25
  -2  -9  -4 1026.27   15.58
   2  -9   4 1051.96   14.49
   2  -9   4 1098.97   19.59
   2   9  -4 1071.04   17.68
  -2  -9  -4 1093.37   18.46
   2  -9   4 1052.93   18.25
  -2  -9  -4 1089.92   18.30
  -2  -9  -4 1084.21   18.14
  -2  -9  -3  248.29    5.99
  -2  -9  -3  249.70    7.32
   2   9  -3  252.11    6.86
   2  -9   3  244.16    4.62
   2  -9   3  252.83    7.42
  -2  -9  -3  258.03    7.34
  -2  -9  -3  253.42    7.25
   2  -9   2  190.78    6.18
  -2  -9  -2  194.11    5.35
   2   9  -2  201.24    5.92
  -2  -9  -2  193.58    6.36
   2  -9   2  200.90    6.48
  -2  -9  -2  202.58    6.37
  -2  -9  -1  298.73    7.07
   2  -9   1  287.38    7.65
  -2  -9  -1  297.85    8.04
   2   9  -1  292.90    7.28
   2  -9   1  298.69    8.14
  -2  -9   0 2133.15   29.25
   2  -9   0 2140.99   31.37
   2  -9   0 2090.29   29.82
  -2  -9   0 2188.79   30.80
   2   9   0 2148.40   29.33
   2  -9   0 2124.23   30.72
  -2  -9   0 2147.42   30.69
  -2  -9   1  312.17    7.57
   2  -9  -1  292.88    8.27
   2  -9  -1  286.07    7.38
  -2  -9   1  293.22    7.17
   2   9   1  294.50    7.19
  -2  -9   1  309.70    8.20
  -2  -9   1  295.85    8.02
  -2  -9   2  196.96    6.04
  -2  -9   2  200.37    5.81
   2  -9  -2  202.14    5.85
   2  -9  -2  204.74    6.71
   2   9   2  206.36    5.81
  -2  -9   2  220.23    6.79
  -2  -9   2  215.12    6.66
   2  -9  -2  205.79    6.37
  -2  -9   3  260.65    7.16
   2  -9  -3  254.76    7.52
  -2  -9   3  254.29    7.44
  -2  -9   3  261.11    6.81
   2  -9  -3  251.00    6.48
   2   9   3  267.41    6.70
  -2  -9   3  250.73    7.34
   2  -9  -3  248.60    7.39
   2  -9  -3  250.82    7.21
  -2  -9   4 1104.27   18.57
  -2  -9   4 1081.56   17.44
   2  -9  -4 1053.04   18.36
   2   9   4 1100.34   17.11
   2  -9  -4 1020.25   16.35
   2  -9  -4 1069.42   18.35
  -2  -9   4 1102.83   18.44
   2  -9  -4 1057.73   18.01
   2  -9  -5  290.97    6.68
   2  -9  -5  303.71    8.29
  -2  -9   5  299.05    7.67
  -2  -9   5  305.37    8.28
   2   9   5  303.08    7.36
  -2  -9   5  311.73    8.25
   2  -9  -5  303.56    8.25
   2  -9  -5  309.74    8.10
  -2  -9   6   17.70    2.01
   2  -9  -6   12.00    1.69
   2   9   6   15.45    1.63
   2  -9  -6   13.09    1.23
   2  -9  -6   16.56    1.94
  -2  -9   6   16.55    1.94
   2  -9  -6   13.25    1.72
   2  -9  -7   31.99    2.58
   2   9   7   29.28    2.21
  -2  -9   7   36.76    2.80
   2  -9  -7   29.88    2.51
  -2  -9   7   30.46    2.55
   2  -9  -7   31.44    2.58
   2  -9  -8 2361.24   33.40
  -2  -9   8 2308.22   33.59
   2  -9  -8 2349.12   33.31
  -2  -9   8 2354.23   33.15
   2  -9  -9  190.25    6.41
  -2  -9   9  190.69    6.65
   2  -9  -9  190.44    6.49
  -2  -9   9  190.57    6.28
  -2   9  -9  184.27    5.89
   2  -9 -10   88.01    4.30
  -2  -9  10   94.83    4.35
   2  -9 -10   89.48    4.46
  -2  -9  10  100.15    4.75
   2  -9 -11  164.73    5.99
  -2  -9  11  163.00    5.79
  -2  -9  11  174.75    6.43
   2  -9 -11  158.65    6.14
   2  -9 -12  737.39   14.48
  -2  -9  12  730.42   14.11
  -2  -9  12  705.09   14.68
   2  -9 -12  721.10   15.05
   2  -9 -13   36.82    2.83
   2  -9 -13   31.19    2.85
   2  -9 -14  106.22    4.75
   2  -9 -14  102.33    5.12
   2  -9 -15    7.61    1.54
   2  -9 -15    7.38    1.74
   2  -9 -16  259.14    7.72
  -2   9 -16  260.64   10.62
   2  -9 -16  257.04    8.78
  -2   9 -17  151.08    7.52
   2  -9 -17  135.32    6.38
  -2   9 -18  194.99    8.43
   2  -9 -18  187.90    7.63
  -2   9 -19   46.89    4.28
   2  -9 -19   55.62    4.16
  -2   9 -20  213.54    9.08
   2  -9 -20  206.53    8.21
  -2   9 -21   12.69    2.49
   2  -9 -21   11.13    2.31
  -2   9 -22    3.45    1.86
   2  -9 -22    5.74    1.58
  -2   9 -23    3.62    1.78
   2  -9 -23    9.42    1.90
  -2   9 -24  234.16    9.31
   2  -9 -24  232.52    8.64
  -2   9 -25   13.55    2.43
  -2   9 -25   22.18    2.87
   2  -9 -25   20.02    2.54
  -2   9 -26   87.70    5.35
   2  -9 -26   94.42    5.20
  -2   9 -26   87.49    5.34
  -2   9 -27    6.20    1.70
  -2   9 -27    7.15    1.75
   2  -9 -27    6.49    1.50
   2  -9 -28  115.54    5.37
  -2   9 -28  116.77    5.73
   2  10 -28   96.37    5.32
   2  10 -27   12.50    2.31
   2  10 -27   10.74    1.94
  -2 -10 -27   13.25    1.92
   2  10 -26   87.88    5.55
   2  10 -26   83.82    5.01
  -2 -10 -26   85.20    4.81
   2  10 -25    4.34    1.71
   2  10 -25    5.38    1.82
  -2 -10 -25    1.96    1.37
   2  10 -24   70.15    5.28
  -2 -10 -24   74.05    4.78
  -2 -10 -23   51.09    3.83
  -2 -10 -23   53.85    4.12
   2  10 -23   54.29    4.88
  -2 -10 -22  190.83    7.51
  -2 -10 -22  200.25    8.08
   2  10 -22  198.49    9.19
   2  10 -22  188.01    7.95
  -2 -10 -21   50.74    3.97
  -2 -10 -21   53.96    4.19
   2  10 -21   58.99    5.12
   2  10 -21   52.54    4.29
  -2 -10 -20  203.49    7.99
  -2 -10 -20  220.67    8.56
   2  10 -20  201.51    8.52
  -2 -10 -19   21.15    2.71
  -2 -10 -19   21.42    2.77
   2  10 -19   19.07    3.21
   2  10 -19   18.63    2.78
  -2 -10 -18   84.16    5.19
  -2 -10 -18   90.83    5.28
   2  10 -18   80.32    5.39
  -2 -10 -17   77.47    4.89
  -2 -10 -17   70.24    4.64
   2  10 -17   73.13    5.11
  -2 -10 -16   68.78    4.52
  -2 -10 -16   62.25    4.34
   2  10 -16   62.33    4.67
  -2 -10 -15  205.40    7.86
  -2 -10 -15  199.23    7.79
   2  10 -15  201.88    8.35
  -2 -10 -14  445.36   12.02
  -2 -10 -14  441.97   11.87
  -2 -10 -14  433.37   10.36
   2  10 -14  419.59   12.30
  -2 -10 -13   19.53    2.53
  -2 -10 -13   16.89    2.36
  -2 -10 -13   19.42    2.22
   2  10 -13   17.49    2.53
  -2 -10 -12   75.99    4.59
  -2 -10 -12   69.19    4.29
  -2 -10 -12   74.23    4.05
   2  10 -12   68.63    4.59
  -2 -10 -11  327.30    9.90
  -2 -10 -11  324.21    9.47
  -2 -10 -11  322.18    8.96
   2  10 -11  329.33   10.22
  -2 -10 -10  119.48    5.66
  -2 -10 -10  113.79    5.37
  -2 -10 -10  122.07    5.28
   2  10 -10  119.67    5.91
   2 -10   9  291.28    9.72
  -2 -10  -9  286.53    8.63
  -2 -10  -9  301.87    8.58
   2  10  -9  288.99    9.35
   2  10  -8  189.85    7.45
  -2 -10  -8  175.81    6.41
   2 -10   8  174.54    7.37
  -2 -10  -8  176.47    6.53
  -2 -10  -7  184.90    6.65
   2 -10   7  195.34    7.68
  -2 -10  -7  194.56    6.78
  -2 -10  -6  421.92   10.87
  -2 -10  -6  425.37   10.64
   2 -10   6  417.68   10.61
   2 -10   6  441.34   11.86
  -2 -10  -6  424.30   10.53
  -2 -10  -5  282.65    8.45
  -2 -10  -5  279.87    8.29
   2 -10   5  276.23    8.34
   2 -10   5  282.61    9.19
  -2 -10  -5  267.21    8.06
  -2 -10  -4 1416.22   23.71
  -2 -10  -4 1487.23   23.76
   2 -10   4 1473.00   23.84
   2 -10   4 1444.48   24.99
  -2 -10  -4 1427.03   23.38
  -2 -10  -3  154.49    4.81
  -2 -10  -3  155.24    6.07
   2 -10   3  148.27    6.37
   2 -10   3  151.24    6.00
  -2 -10  -3  166.72    6.16
  -2 -10  -3  171.96    6.17
  -2 -10  -2   99.52    3.92
  -2 -10  -2   94.43    4.66
   2 -10   2  103.01    4.85
  -2 -10  -1   28.59    2.16
  -2 -10  -1   29.59    2.62
   2 -10   1   29.03    2.62
  -2 -10   0   11.21    1.46
  -2 -10   0   12.48    1.81
   2 -10   0    7.60    1.63
  -2 -10   0   11.21    1.77
   2 -10   0    8.14    1.63
   2 -10  -1   27.11    2.66
   2 -10  -1   26.01    2.22
   2  10   1   26.23    2.17
  -2 -10   1   27.09    2.62
  -2 -10   1   28.60    2.61
  -2 -10   2  111.93    5.06
   2 -10  -2   97.14    4.18
   2  10   2  105.17    4.24
   2 -10  -2  101.91    4.97
  -2 -10   2  102.97    4.82
   2  10   3  161.08    5.32
   2 -10  -3  150.93    5.12
   2 -10  -3  154.05    6.13
  -2 -10   3  160.05    6.18
   2 -10  -3  156.39    6.06
  -2 -10   3  171.47    6.32
   2 -10  -3  158.92    5.94
   2 -10  -4 1455.56   23.84
  -2 -10   4 1466.49   23.88
   2 -10  -4 1402.46   23.42
  -2 -10   4 1426.36   23.50
   2 -10  -4 1431.69   23.31
   2 -10  -5  266.96    8.20
  -2 -10   5  276.30    8.39
   2 -10  -5  253.83    7.98
  -2 -10   5  280.61    8.30
   2 -10  -5  272.45    8.05
   2 -10  -6  430.01   10.79
  -2 -10   6  435.00   10.93
   2 -10  -6  419.04   10.62
  -2 -10   6  416.71   10.51
   2 -10  -6  433.24   10.63
   2 -10  -7  187.57    6.79
  -2 -10   7  194.14    6.94
  -2 -10   7  179.13    6.57
   2 -10  -7  185.77    6.57
   2 -10  -8  174.38    6.54
  -2 -10   8  176.30    6.69
  -2 -10   8  170.84    6.39
   2 -10  -8  182.28    6.56
   2 -10  -9  285.13    8.54
  -2 -10   9  279.36    8.29
  -2 -10   9  264.71    8.47
   2 -10 -10  126.33    5.51
  -2 -10  10  122.84    5.31
  -2 -10  10  122.98    5.65
   2 -10 -10  120.16    5.48
   2 -10 -11  317.39    9.13
  -2 -10  11  308.76    8.74
   2 -10 -11  300.88    9.17
  -2 -10  11  312.51    9.37
   2 -10 -12   81.40    4.47
  -2 -10  12   82.65    4.29
  -2 -10  12   76.78    4.51
   2 -10 -12   77.92    4.55
   2 -10 -13   13.75    2.05
  -2 -10  13   14.24    1.91
   2 -10 -13   16.15    2.28
   2 -10 -14  433.95   10.35
   2 -10 -14  439.82   11.26
   2 -10 -15  196.34    6.99
  -2  10 -15  199.85   11.50
   2 -10 -15  204.88    7.86
  -2  10 -16   76.56    6.40
   2 -10 -16   67.33    4.52
   2 -10 -17   75.15    4.18
   2 -10 -17   75.53    4.86
  -2  10 -18   95.54    6.13
   2 -10 -18   94.54    5.50
  -2  10 -19   15.63    2.74
   2 -10 -19   17.41    2.58
  -2  10 -20  198.71    8.82
   2 -10 -20  207.58    8.25
  -2  10 -21   47.71    4.42
   2 -10 -21   51.20    4.07
  -2  10 -22  202.63    8.79
   2 -10 -22  200.16    8.05
  -2  10 -23   42.45    4.09
   2 -10 -23   46.84    3.83
  -2  10 -24   60.19    4.66
   2 -10 -24   69.42    4.57
  -2  10 -25    3.18    1.47
  -2  10 -25    6.94    1.75
   2 -10 -25    2.72    1.48
  -2  10 -26   75.89    4.84
   2 -10 -26   89.39    4.89
  -2  10 -26   81.11    4.95
   2 -10 -27   15.20    1.97
  -2  10 -27   16.43    2.29
   2  11 -26   49.12    4.01
   2  11 -26   46.42    3.64
  -2 -11 -26   53.86    3.70
   2  11 -25   33.50    3.57
  -2 -11 -25   30.69    3.02
   2  11 -25   28.44    3.03
   2  11 -24   93.47    5.96
  -2 -11 -24  105.38    5.45
   2  11 -23   25.74    3.40
  -2 -11 -23   26.02    2.95
  -2 -11 -22   64.94    4.36
  -2 -11 -22   72.73    4.77
   2  11 -22   78.91    5.75
  -2 -11 -21   59.61    4.27
  -2 -11 -21   60.46    4.42
   2  11 -21   62.19    5.15
   2  11 -21   54.92    4.31
  -2 -11 -20  306.34    9.93
  -2 -11 -20  292.81    9.95
   2  11 -20  293.68   11.31
   2  11 -20  295.15   10.28
  -2 -11 -19   75.51    4.93
  -2 -11 -19   74.52    4.83
   2  11 -19   71.92    5.07
  -2 -11 -18   53.57    4.24
  -2 -11 -18   50.87    4.08
   2  11 -18   48.76    4.21
  -2 -11 -17  220.59    8.56
  -2 -11 -17  222.52    8.52
   2  11 -17  224.79    9.08
  -2 -11 -16  164.40    7.28
  -2 -11 -16  156.78    7.09
   2  11 -16  161.48    7.63
  -2 -11 -15   54.03    4.14
  -2 -11 -15   47.62    3.95
   2  11 -15   41.26    3.90
  -2 -11 -14  250.91    9.04
  -2 -11 -14  255.09    8.96
  -2 -11 -14  249.72    7.86
   2  11 -14  250.09    9.42
  -2 -11 -13  798.19   17.71
  -2 -11 -13  799.50   17.37
  -2 -11 -13  814.99   16.19
   2  11 -13  853.46   23.94
   2  11 -13  821.34   18.43
  -2 -11 -12   21.48    2.72
  -2 -11 -12   18.87    2.49
  -2 -11 -12   19.64    2.41
   2  11 -12   26.90    3.10
  -2 -11 -11   95.04    5.42
  -2 -11 -11  100.84    5.35
  -2 -11 -11  107.13    5.19
   2  11 -11  101.54    5.72
  -2 -11 -10  155.76    6.86
  -2 -11 -10  145.56    6.38
  -2 -11 -10  159.69    6.38
   2  11 -10  143.73    6.81
  -2 -11  -9  510.03   12.65
  -2 -11  -9  530.61   12.60
   2  11  -9  512.93   13.48
   2  11  -8  302.50   10.06
  -2 -11  -8  307.10    9.19
   2 -11   8  302.38   10.38
  -2 -11  -8  292.08    9.08
  -2 -11  -7  182.97    6.95
   2 -11   7  177.58    7.77
  -2 -11  -7  182.85    6.96
  -2 -11  -6  216.30    7.86
  -2 -11  -6  219.60    7.67
   2 -11   6  203.09    8.26
  -2 -11  -6  204.28    7.40
  -2 -11  -5  129.63    5.91
   2 -11   5  122.66    5.72
  -2 -11  -5  123.06    5.66
   2 -11   5  123.19    6.23
  -2 -11  -5  120.50    5.53
  -2 -11  -4   63.17    4.08
  -2 -11  -4   58.04    3.86
   2 -11   4   53.42    3.82
   2 -11   4   63.64    4.48
  -2 -11  -3   78.79    4.55
   2 -11   3   78.72    4.93
   2 -11   3   74.23    4.39
  -2 -11  -3   73.88    4.34
  -2 -11  -2   17.22    2.31
   2 -11   2   17.09    2.32
  -2 -11  -1  289.53    8.99
   2 -11   1  302.27    9.20
  -2 -11   0  839.76   16.93
   2 -11   0  780.90   17.10
   2 -11   0  826.71   16.77
  -2 -11   0  811.45   16.64
  -2 -11   1  282.65    8.95
   2 -11  -1  282.37    9.26
  -2 -11   1  303.53    9.13
   2 -11  -2   15.40    2.27
  -2 -11   2   16.86    2.27
  -2 -11   2   18.34    2.29
   2 -11  -3   81.71    4.67
  -2 -11   3   68.72    4.28
   2 -11  -3   69.87    4.27
  -2 -11   3   67.01    4.20
  -2 -11   4   62.42    4.16
   2 -11  -4   50.47    3.76
   2 -11  -4   56.60    3.81
  -2 -11   4   59.22    3.94
   2 -11  -5  111.82    5.49
  -2 -11   5  112.86    5.58
   2 -11  -5  111.52    5.42
  -2 -11   5  103.58    5.21
   2 -11  -5  108.10    5.22
  -2 -11   6  199.00    7.51
   2 -11  -6  200.94    7.46
  -2 -11   6  196.12    7.23
   2 -11  -6  193.13    7.11
  -2 -11   7  186.06    7.25
   2 -11  -7  190.50    7.26
  -2 -11   7  178.27    6.87
   2 -11  -7  180.64    6.89
   2 -11  -8  300.26    9.29
  -2 -11   8  299.84    9.43
  -2 -11   8  291.54    9.01
   2 -11  -8  296.76    9.08
   2 -11  -9  552.86   13.19
  -2 -11   9  514.82   12.52
  -2 -11   9  521.38   13.11
   2 -11  -9  527.06   12.80
   2 -11 -10  159.24    6.65
  -2 -11  10  153.09    6.27
  -2 -11  10  163.14    6.88
   2 -11 -10  156.09    6.57
   2 -11 -11   92.03    5.03
  -2 -11  11   90.58    4.75
  -2 -11  11   85.09    4.95
   2 -11 -11   89.31    5.01
   2 -11 -12   20.29    2.56
  -2 -11  12   26.01    2.67
  -2 -11  12   22.66    2.64
   2 -11 -12   25.93    2.83
   2 -11 -13  824.94   17.00
  -2 -11  13  830.04   16.33
   2 -11 -13  796.54   17.40
   2 -11 -14  247.81    8.18
   2 -11 -14  244.62    8.67
   2 -11 -15   47.54    3.61
   2 -11 -15   51.47    4.05
   2 -11 -16  155.59    6.39
  -2  11 -16  169.77    9.32
   2 -11 -16  165.24    7.25
   2 -11 -17  220.55    7.56
   2 -11 -17  231.34    8.79
  -2  11 -18   51.81    4.67
   2 -11 -18   50.02    4.06
  -2  11 -19   75.07    5.48
   2 -11 -19   72.44    4.87
  -2  11 -20  288.79   10.74
   2 -11 -20  306.70   10.15
  -2  11 -21   64.20    4.98
   2 -11 -21   63.63    4.51
  -2  11 -22   62.25    4.94
   2 -11 -22   74.43    4.73
  -2  11 -23   19.14    2.91
   2 -11 -23   22.39    2.74
  -2  11 -24   90.32    5.52
   2 -11 -24   96.31    5.17
  -2  11 -25   28.73    3.12
  -2  11 -25   26.49    2.99
   2 -11 -25   25.94    2.76
   2 -11 -26   44.43    3.34
  -2  11 -26   37.31    3.36
   2  12 -25    6.67    1.82
   2  12 -25    8.30    1.86
  -2 -12 -25    5.12    1.45
   2  12 -24   23.12    3.04
  -2 -12 -24   26.50    2.75
   2  12 -23   47.77    4.38
  -2 -12 -23   41.24    3.52
  -2 -12 -22  181.39    7.06
  -2 -12 -22  196.08    7.63
   2  12 -22  192.16    8.64
  -2 -12 -21   14.91    2.30
  -2 -12 -21   15.38    2.30
   2  12 -21   12.06    2.80
  -2 -12 -20  320.01   10.34
  -2 -12 -20  327.59   10.23
   2  12 -20  313.59   10.37
  -2 -12 -19  137.50    6.61
  -2 -12 -19  136.37    6.52
   2  12 -19  126.19    6.58
  -2 -12 -18  131.24    6.50
  -2 -12 -18  127.92    6.42
   2  12 -18  118.35    6.50
  -2 -12 -17   24.95    2.94
  -2 -12 -17   23.11    2.95
   2  12 -17   19.21    2.88
  -2 -12 -16    9.09    2.08
  -2 -12 -16   12.90    2.27
   2  12 -16   12.01    2.26
  -2 -12 -15   15.65    2.48
  -2 -12 -15   19.04    2.77
   2  12 -15   14.62    2.52
  -2 -12 -14  181.63    7.85
  -2 -12 -14  170.06    7.43
  -2 -12 -14  188.86    6.92
   2  12 -14  180.84    8.11
  -2 -12 -13   66.11    4.71
  -2 -12 -13   56.54    4.22
  -2 -12 -13   62.85    4.12
   2  12 -13   58.11    4.62
  -2 -12 -12  596.31   15.05
  -2 -12 -12  581.57   14.43
  -2 -12 -12  629.92   14.10
   2  12 -12  597.66   15.42
  -2 -12 -11  178.42    7.71
  -2 -12 -11  182.43    7.52
  -2 -12 -11  182.61    7.17
   2  12 -11  179.06    7.97
  -2 -12 -10  787.29   17.62
  -2 -12 -10  732.76   16.57
  -2 -12 -10  783.21   16.56
   2  12 -10  724.66   17.38
  -2 -12  -9   41.71    3.58
  -2 -12  -9   39.90    3.42
   2  12  -9   40.25    3.76
   2 -12   8  126.49    6.84
  -2 -12  -8  120.09    5.92
  -2 -12  -8  127.10    6.02
   2  12  -8  122.52    6.48
  -2 -12  -7    1.60    1.34
  -2 -12  -7    3.55    1.41
   2 -12   7    4.15    1.83
  -2 -12  -6    4.49    1.63
  -2 -12  -6    4.77    1.45
  -2 -12  -6    5.51    1.70
   2 -12   6    3.67    1.77
  -2 -12  -5    6.09    1.74
  -2 -12  -5    3.73    1.57
   2 -12   5    3.99    1.74
  -2 -12  -4  287.66    9.53
  -2 -12  -4  277.25    9.19
   2 -12   4  287.24   10.24
  -2 -12  -3   33.52    3.19
   2 -12   3   36.60    3.36
  -2 -12  -3   38.39    3.41
   2 -12   3   37.26    3.60
  -2 -12  -2   44.76    3.68
   2 -12   2   46.76    3.78
   2 -12   1    1.79    1.44
  -2 -12  -1    1.66    1.34
  -2 -12   0  138.49    6.41
   2 -12   0  135.49    6.33
  -2 -12   0  141.77    6.43
  -2 -12   1    3.21    1.28
  -2 -12   1    3.70    1.59
   2 -12  -1    4.84    1.75
  -2 -12   2   41.25    3.63
   2 -12  -2   43.10    3.76
  -2 -12   2   45.47    3.69
  -2 -12   3   30.26    3.12
   2 -12  -3   32.41    3.24
   2 -12  -3   32.10    3.11
  -2 -12   3   34.98    3.25
   2 -12  -4  282.66    9.63
  -2 -12   4  295.16    9.77
  -2 -12   4  302.00    9.62
  -2 -12   5    4.02    1.49
   2 -12  -5    5.34    1.52
  -2 -12   5    4.20    1.56
  -2 -12   6    8.01    1.90
   2 -12  -6    8.48    1.79
  -2 -12   6    6.37    1.80
   2 -12  -6    6.03    1.83
  -2 -12   7    2.39    1.33
  -2 -12   7    2.30    1.46
   2 -12  -7    2.22    1.28
   2 -12  -7    2.58    1.34
   2 -12  -8  129.93    6.31
  -2 -12   8  122.12    5.92
  -2 -12   8  126.66    6.28
   2 -12  -8  125.22    6.02
   2 -12  -9   40.51    3.58
  -2 -12   9   39.48    3.41
  -2 -12   9   39.96    3.58
   2 -12  -9   40.23    3.51
   2 -12 -10  759.81   16.83
  -2 -12  10  757.80   16.25
  -2 -12  10  727.04   16.71
   2 -12 -10  724.98   16.39
   2 -12 -11  206.78    7.98
  -2 -12  11  195.64    7.44
  -2 -12  11  203.65    8.05
   2 -12 -11  203.86    7.95
   2 -12 -12  613.19   14.68
  -2 -12  12  593.24   13.86
   2 -12 -12  601.78   14.79
   2 -12 -13   62.32    4.32
  -2 -12  13   53.71    3.85
   2 -12 -13   58.27    4.27
   2 -12 -14  177.60    7.22
   2 -12 -14  184.39    7.68
   2 -12 -15    9.47    1.90
   2 -12 -15   11.41    2.16
   2 -12 -16   15.36    2.25
   2 -12 -16   14.63    2.41
  -2  12 -17   30.39    4.12
   2 -12 -17   17.19    2.61
  -2  12 -18  135.45    7.45
   2 -12 -18  133.97    6.61
  -2  12 -19  136.28    7.29
   2 -12 -19  138.96    6.64
  -2  12 -20  317.88   11.13
   2 -12 -20  323.67   10.32
  -2  12 -21    9.96    2.46
   2 -12 -21   16.74    2.40
  -2  12 -22  200.68    8.37
   2 -12 -22  202.85    7.74
  -2  12 -23   30.82    3.41
   2 -12 -23   37.64    3.33
  -2  12 -24   24.03    2.92
   2 -12 -24   23.33    2.65
  -2  12 -25    6.19    1.67
   2 -12 -25    3.70    1.29
   2  13 -24   42.75    3.70
   2  13 -23  204.74    8.26
  -2 -13 -23  192.16    7.07
   2  13 -22   42.84    4.04
  -2 -13 -22   47.96    3.62
  -2 -13 -21  207.06    7.77
  -2 -13 -21  211.54    7.65
  -2 -13 -20   73.15    4.69
  -2 -13 -20   70.06    4.53
  -2 -13 -19  351.21   10.77
  -2 -13 -19  363.97   10.82
   2  13 -19  334.12   10.67
  -2 -13 -18   21.44    2.75
  -2 -13 -18   21.64    2.83
   2  13 -18   24.62    3.06
  -2 -13 -17  159.32    7.15
  -2 -13 -17  153.50    7.11
   2  13 -17  142.39    7.13
  -2 -13 -16   67.89    4.69
  -2 -13 -16   71.18    4.92
   2  13 -16   60.22    4.70
  -2 -13 -15  118.33    6.32
  -2 -13 -15  112.49    6.11
   2  13 -15  110.34    6.33
  -2 -13 -14   16.63    2.71
  -2 -13 -14   14.53    2.38
  -2 -13 -14   16.00    2.28
   2  13 -14   14.42    2.58
  -2 -13 -13  333.05   11.01
  -2 -13 -13  303.85   10.33
  -2 -13 -13  310.11    9.60
   2  13 -13  320.24   11.08
  -2 -13 -12   75.29    5.14
  -2 -13 -12   73.89    4.96
  -2 -13 -12   78.48    4.73
   2  13 -12   73.77    5.21
  -2 -13 -11  250.26    9.50
  -2 -13 -11  226.49    8.73
   2  13 -11  268.34   20.94
  -2 -13 -11  232.73    8.49
   2  13 -11  249.62    9.63
  -2 -13 -10   62.87    4.71
  -2 -13 -10   65.15    4.61
  -2 -13 -10   59.98    4.32
   2  13 -10   64.37    4.85
  -2 -13  -9  530.88   13.95
  -2 -13  -9  552.85   14.00
   2  13  -9  551.07   14.95
   2 -13   8  217.71    9.42
  -2 -13  -8  232.31    8.64
   2  13  -8  212.69    8.96
   2  13  -7  610.42   16.05
  -2 -13  -7  597.36   14.84
   2 -13   7  584.51   16.25
  -2 -13  -6  250.59    9.42
  -2 -13  -6  261.17    9.21
   2 -13   6  244.28   10.02
  -2 -13  -5  485.13   13.55
  -2 -13  -5  486.87   13.21
   2 -13   5  505.38   14.65
  -2 -13  -4    8.31    2.06
   2 -13   4   13.54    2.64
  -2 -13  -4    8.23    2.02
  -2 -13  -3  259.43    9.46
  -2 -13  -3  259.72    9.27
   2 -13   3  266.47   10.16
  -2 -13  -2   51.04    4.16
  -2 -13  -1  627.82   15.58
  -2 -13   0   38.73    3.70
  -2 -13   0   45.35    3.94
   2 -13  -1  618.85   15.86
  -2 -13   1  622.33   15.53
  -2 -13   1  618.14   15.20
   2 -13  -2   50.19    4.34
  -2 -13   2   48.45    4.16
  -2 -13   2   50.34    4.12
  -2 -13   3  276.75    9.95
   2 -13  -3  275.62   10.09
  -2 -13   3  290.07    9.85
  -2 -13   4    7.31    2.13
   2 -13  -4    7.42    1.97
  -2 -13   4    9.52    2.17
   2 -13  -5  492.74   13.69
  -2 -13   5  484.46   13.65
  -2 -13   5  494.31   13.28
   2 -13  -6  253.96    9.41
  -2 -13   6  240.12    9.26
  -2 -13   6  247.96    9.01
   2 -13  -7  590.97   15.13
  -2 -13   7  575.66   15.10
  -2 -13   7  578.73   14.54
   2 -13  -8  225.28    8.81
  -2 -13   8  232.28    8.56
  -2 -13   8  212.90    8.65
  -2 -13   9  551.50   13.89
  -2 -13   9  525.89   14.24
   2 -13  -9  517.55   13.74
   2 -13 -10   71.84    4.86
  -2 -13  10   67.45    4.55
  -2 -13  10   64.97    4.71
   2 -13 -10   64.44    4.56
   2 -13 -11  236.80    8.84
  -2 -13  11  221.10    8.19
  -2 -13  11  225.95    8.74
   2 -13 -11  215.97    8.49
   2 -13 -12   77.36    4.92
  -2 -13  12   64.07    4.28
   2 -13 -12   75.40    4.99
   2 -13 -13  321.28   10.29
  -2 -13  13  316.81    9.66
   2 -13 -13  318.15   10.54
   2 -13 -14   14.22    2.31
   2 -13 -14   17.03    2.59
   2 -13 -15  102.96    5.54
   2 -13 -15  111.23    6.06
   2 -13 -16   54.10    3.97
   2 -13 -16   57.66    4.42
  -2  13 -17  166.03    8.33
   2 -13 -17  150.18    7.01
  -2  13 -18   26.02    3.46
   2 -13 -18   21.95    2.75
  -2  13 -19  364.72   12.10
   2 -13 -19  373.20   11.08
  -2  13 -20   71.11    5.11
   2 -13 -20   74.93    4.67
  -2  13 -21  205.80    8.45
   2 -13 -21  203.32    7.64
  -2  13 -22   42.99    3.83
   2 -13 -22   35.31    3.15
  -2  13 -23  199.26    7.75
   2 -13 -23  199.13    7.13
   2 -13 -24   43.20    3.21
  -2 -14 -22  118.29    5.37
  -2 -14 -21   18.85    2.42
  -2 -14 -20  294.04    9.23
  -2 -14 -20  284.79    8.93
  -2 -14 -19   60.46    4.13
  -2 -14 -19   58.68    4.17
  -2 -14 -18   84.40    4.98
  -2 -14 -18   84.24    5.08
  -2 -14 -17    5.04    1.60
  -2 -14 -17    1.77    1.40
   2  14 -17    2.91    1.59
  -2 -14 -16   13.56    2.21
  -2 -14 -16    9.76    2.14
   2  14 -16   14.16    2.87
   2  14 -16   10.89    2.22
  -2 -14 -15    3.27    1.52
  -2 -14 -15    2.28    1.50
   2  14 -15    0.59    1.32
  -2 -14 -14   53.74    4.37
  -2 -14 -14   52.61    4.14
   2  14 -14   51.19    4.40
  -2 -14 -13   27.44    3.27
  -2 -14 -13   30.73    3.28
  -2 -14 -13   25.62    2.85
   2  14 -13   24.59    3.17
  -2 -14 -12  412.11   12.71
  -2 -14 -12  431.31   11.86
   2  14 -12  430.95   13.16
  -2 -14 -11  101.92    6.11
  -2 -14 -11   95.94    5.49
   2  14 -11  100.78    6.16
  -2 -14 -10  100.30    6.05
  -2 -14 -10  109.28    5.90
   2  14 -10  102.16    6.12
  -2 -14  -9  148.30    6.98
   2  14  -9  155.08    7.58
  -2 -14  -8   27.99    3.28
   2  14  -8   25.43    3.25
   2 -14   7   65.74    5.33
  -2 -14  -7   62.19    4.59
   2  14  -7   56.00    4.70
  -2 -14  -6  205.02    8.73
  -2 -14  -6  210.94    8.55
   2 -14   6  194.41    9.08
  -2 -14  -5   91.68    5.79
  -2 -14  -5   92.55    5.68
   2 -14   5   98.35    6.37
  -2 -14  -4  338.69   11.39
  -2 -14  -4  338.10   11.14
   2 -14   4  343.69   12.14
  -2 -14  -3   53.51    4.43
  -2 -14  -3   48.12    4.20
   2 -14   3   49.88    4.54
  -2 -14  -2  337.77   11.25
  -2 -14  -1    9.74    2.26
  -2 -14   0   26.11    3.20
  -2 -14   0   22.80    3.06
  -2 -14   1    9.88    2.24
  -2 -14   1   14.96    2.53
   2 -14  -1   11.05    2.52
   2 -14  -2  353.67   11.89
  -2 -14   2  346.86   11.60
  -2 -14   2  340.89   11.21
   2 -14  -3   53.23    4.60
  -2 -14   3   47.85    4.26
  -2 -14   3   52.06    4.29
  -2 -14   4  362.32   11.94
   2 -14  -4  344.99   11.71
  -2 -14   4  350.13   11.36
  -2 -14   5  105.01    6.24
   2 -14  -5  109.23    6.39
  -2 -14   5  101.99    5.92
  -2 -14   6  201.90    8.73
   2 -14  -6  218.14    9.06
  -2 -14   6  211.57    8.55
   2 -14  -7   61.90    4.74
  -2 -14   7   55.85    4.36
  -2 -14   7   56.28    4.58
   2 -14  -8   24.66    3.20
  -2 -14   8   27.09    3.07
  -2 -14   8   25.42    3.19
   2 -14  -9  152.09    7.36
  -2 -14   9  143.83    6.77
  -2 -14   9  140.93    7.13
   2 -14 -10  104.29    6.08
  -2 -14  10   99.79    5.58
  -2 -14  10  100.24    5.93
   2 -14 -11   95.26    5.74
  -2 -14  11   95.09    5.34
   2 -14 -12  438.67   12.57
  -2 -14  12  417.02   11.54
   2 -14 -12  416.44   12.31
   2 -14 -13   24.65    3.01
   2 -14 -13   28.85    3.11
   2 -14 -14   54.90    4.18
   2 -14 -14   55.38    4.35
   2 -14 -15    2.74    1.44
   2 -14 -15    1.79    1.25
  -2  14 -16   25.95    4.09
   2 -14 -16   12.38    2.23
  -2  14 -17    8.45    2.75
   2 -14 -17    4.19    1.48
  -2  14 -18   92.88    5.88
   2 -14 -18   88.75    5.14
  -2  14 -19   54.21    4.44
   2 -14 -19   56.83    3.99
  -2  14 -20  288.48    9.86
   2 -14 -20  275.77    8.92
  -2  14 -21   14.71    2.47
   2 -14 -21   20.19    2.38
   2 -14 -22  128.19    5.55
  -2 -15 -19   79.45    4.56
  -2 -15 -18   37.72    3.29
   2  15 -18   32.93    3.63
  -2 -15 -17   24.76    2.89
   2  15 -17   25.71    3.35
  -2 -15 -16    2.77    1.56
   2  15 -16    5.75    2.10
   2  15 -16    5.32    1.68
  -2 -15 -15   77.56    5.04
   2  15 -15   85.56    5.78
   2  15 -15   70.30    4.83
  -2 -15 -14    7.72    2.03
   2  15 -14    9.12    2.02
  -2 -15 -13   12.47    2.41
   2  15 -13   15.17    2.54
  -2 -15 -12   60.68    4.65
  -2 -15 -12   65.38    4.39
   2  15 -12   69.20    5.02
  -2 -15 -11  161.73    7.72
  -2 -15 -11  162.69    7.09
   2  15 -11  157.33    7.66
  -2 -15 -10   17.14    2.92
  -2 -15 -10   13.55    2.49
  -2 -15  -9  430.55   12.46
   2  15  -9  412.35   12.97
  -2 -15  -8   32.64    3.48
   2  15  -8   29.16    3.53
  -2 -15  -7   72.02    4.99
   2  15  -7   70.17    5.22
  -2 -15  -6    7.07    2.09
   2 -15   6    6.24    2.36
  -2 -15  -6    8.81    2.17
   2  15  -6    7.80    2.28
  -2 -15  -5  429.37   13.21
  -2 -15  -5  451.93   13.18
   2 -15   5  436.27   14.04
  -2 -15  -4    2.58    1.75
   2 -15   4    0.48    1.56
  -2 -15  -4    1.51    1.67
  -2 -15  -3  461.74   13.85
  -2 -15  -3  481.63   13.73
   2 -15   3  467.35   14.50
  -2 -15  -2  136.46    7.15
  -2 -15  -1  186.46    8.49
  -2 -15   0   17.77    2.83
  -2 -15   0   18.79    2.95
  -2 -15   1  196.66    8.72
  -2 -15   1  191.69    8.44
   2 -15  -1  197.35    9.01
  -2 -15   2  147.98    7.61
  -2 -15   2  149.33    7.34
   2 -15  -2  144.61    7.61
   2 -15  -3  460.29   14.22
  -2 -15   3  496.78   14.50
  -2 -15   3  503.02   14.10
  -2 -15   4    0.60    1.62
  -2 -15   4    2.86    1.84
   2 -15  -4    2.91    1.74
   2 -15  -5  425.95   13.39
  -2 -15   5  459.16   13.81
  -2 -15   5  418.10   12.71
  -2 -15   6    6.62    1.98
   2 -15  -6   10.68    2.49
  -2 -15   6    6.54    2.13
   2 -15  -7   81.68    5.55
  -2 -15   7   74.64    5.07
  -2 -15   7   76.50    5.39
   2 -15  -8   28.62    3.51
  -2 -15   8   30.05    3.36
  -2 -15   8   28.41    3.45
   2 -15  -9  429.87   13.01
  -2 -15   9  438.42   12.42
  -2 -15   9  423.06   12.89
  -2 -15  10   17.98    2.63
   2 -15 -10   16.38    2.68
   2 -15 -11  161.99    7.43
  -2 -15  11  144.48    6.58
   2 -15 -12   66.18    4.70
  -2 -15  12   60.79    4.23
  -2  15 -13  128.37   12.62
   2 -15 -13    8.96    1.94
  -2  15 -14   39.24    6.83
   2 -15 -14    8.45    1.94
  -2  15 -15   96.16    7.01
  -2  15 -16   18.54    3.32
  -2  15 -17   25.50    3.27
  -2  15 -18   35.26    3.61
  -2  15 -19   70.24    4.72
  -2  15 -20    1.77    1.41
   2  16 -18    0.17    1.63
   2  16 -17    2.15    1.60
  -2 -16 -17    6.51    1.67
   2  16 -16    9.36    2.25
  -2 -16 -16   10.26    1.99
  -2 -16 -15   51.26    3.97
   2  16 -15   56.32    4.43
  -2 -16 -14   82.38    5.09
   2  16 -14   90.21    5.75
   2  16 -14   74.72    4.80
  -2 -16 -13   15.37    2.55
   2  16 -13   18.10    2.64
  -2 -16 -12  586.81   15.05
   2  16 -12  549.89   14.60
  -2 -16 -11   51.82    4.35
   2  16 -11   54.43    4.42
  -2 -16 -10   64.20    4.83
  -2 -16 -10   60.14    4.38
   2  16 -10   59.82    4.66
  -2 -16  -9   66.70    4.67
   2  16  -9   66.64    4.97
  -2 -16  -8   48.91    4.13
   2  16  -8   52.33    4.46
  -2 -16  -7   14.98    2.59
   2  16  -7   15.04    2.75
  -2 -16  -6  300.73   10.88
  -2 -16  -6  294.79   10.30
   2  16  -6  282.60   10.56
  -2 -16  -5   17.81    2.87
   2 -16   5   18.55    3.13
  -2 -16  -5   19.64    2.95
   2  16  -5   19.91    3.15
  -2 -16  -4  653.92   16.90
  -2 -16  -4  656.97   16.35
   2  16  -4  666.40   17.48
   2 -16   4  625.03   17.13
  -2 -16  -3   18.40    2.88
  -2 -16  -3   19.67    3.08
   2 -16   3   18.38    3.08
  -2 -16  -2   89.51    5.91
  -2 -16  -1   18.25    2.99
  -2 -16   0    1.83    1.64
  -2 -16   0    2.87    1.72
  -2 -16   1   20.96    3.10
   2 -16  -1   25.61    3.46
  -2 -16   1   17.26    2.87
  -2 -16   2   79.90    5.58
  -2 -16   2   71.51    5.17
   2 -16  -2   72.02    5.46
  -2 -16   3   12.94    2.69
  -2 -16   3   15.04    2.78
   2 -16  -3   15.69    2.87
  -2 -16   4  630.51   16.10
  -2 -16   4  646.47   16.97
   2 -16  -4  647.36   17.05
  -2 -16   5   20.27    3.11
   2 -16  -5   22.14    3.20
  -2 -16   5   20.51    3.08
  -2 -16   6  292.79   10.22
  -2 -16   6  288.07   10.64
   2 -16  -6  283.58   10.61
  -2 -16   7   18.86    2.78
   2 -16  -7   16.77    2.89
  -2 -16   7   15.87    2.80
   2 -16  -8   47.71    4.30
  -2 -16   8   48.27    4.04
  -2 -16   8   48.54    4.33
   2 -16  -9   67.32    4.91
  -2 -16   9   62.68    4.42
   2 -16 -10   54.32    4.39
  -2 -16  10   51.54    3.96
   2 -16 -11   51.63    4.18
   2 -16 -12  571.50   13.79
  -2  16 -12  298.56   17.94
   2 -16 -13   16.41    2.43
  -2  16 -13   74.60    8.07
  -2  16 -14  116.67    7.51
  -2  16 -15   78.51    5.49
  -2  16 -16   11.96    2.60
  -2  16 -17    9.14    2.05
   2  17 -15   10.23    2.15
  -2 -17 -14   28.94    2.95
   2  17 -14   27.06    3.16
  -2 -17 -13   15.29    2.38
   2  17 -13   17.31    2.87
   2  17 -13   12.21    2.05
  -2 -17 -12  124.62    6.21
   2  17 -12  126.01    6.04
  -2 -17 -11   29.48    3.32
   2  17 -11   31.19    3.24
  -2 -17 -10   71.92    4.93
   2  17 -10   61.63    4.50
   2  17  -9  307.11   13.49
   2  17  -9  221.04    8.68
  -2 -17  -8  204.71    7.96
   2  17  -8  197.28    8.29
  -2 -17  -7  131.44    6.46
   2  17  -7  118.97    6.46
  -2 -17  -6   14.74    2.71
  -2 -17  -6   18.41    2.74
   2  17  -6   19.34    2.89
  -2 -17  -5   57.97    4.70
  -2 -17  -5   61.68    4.56
   2  17  -5   66.57    4.95
  -2 -17  -4  312.77   11.02
  -2 -17  -4  309.66   10.42
   2  17  -4  302.05   10.80
  -2 -17  -3  473.18   14.00
  -2 -17  -3  486.79   13.47
   2  17  -3  481.48   14.11
   2 -17   3  467.25   14.10
  -2 -17  -2   49.28    4.34
  -2 -17  -1  130.77    7.01
  -2 -17   0  133.99    7.11
  -2 -17   0  143.12    7.07
  -2 -17   1  130.03    7.02
   2 -17  -1  127.94    7.10
  -2 -17   1  130.97    6.76
  -2 -17   2   46.21    4.32
   2 -17  -2   46.65    4.42
  -2 -17   2   42.87    4.09
  -2 -17   3  498.04   14.27
   2 -17  -3  504.47   14.63
  -2 -17   3  512.73   14.02
   2 -17  -4  311.63   11.05
  -2 -17   4  289.28   10.51
  -2 -17   4  293.90   10.20
  -2 -17   5   67.80    4.99
   2 -17  -5   55.22    4.61
  -2 -17   5   56.61    4.38
   2 -17  -6   22.13    3.17
  -2 -17   6   21.15    2.99
  -2 -17   6   15.27    2.52
  -2 -17   7  125.26    6.57
   2 -17  -7  118.82    6.45
  -2 -17   7  124.57    6.24
   2 -17  -8  204.08    8.36
   2 -17  -9  208.93    8.29
   2 -17 -10   67.83    4.63
   2 -17 -11   27.58    3.03
  -2  17 -11  200.75   13.97
  -2  17 -12  199.51   10.67
  -2  17 -13   35.55    4.55
  -2  17 -14   43.26    4.06
  -2  17 -15    8.96    2.14
  -2 -18 -11    8.13    1.92
   2  18 -11   14.36    2.51
  -2 -18 -10   17.76    2.61
   2  18 -10   25.74    3.30
   2  18  -9   58.17    5.07
   2  18  -9   33.14    3.18
   2  18  -8   64.83    5.95
   2  18  -8    7.45    1.80
   2  18  -7  123.84    9.09
   2  18  -7    6.05    1.69
  -2 -18  -6   19.88    2.87
   2  18  -6   20.93    2.75
  -2 -18  -5   40.91    3.79
   2  18  -5   35.96    3.51
  -2 -18  -4   88.72    5.51
   2  18  -4   95.74    5.56
  -2 -18  -3   18.99    2.88
  -2 -18  -3   19.02    2.64
   2  18  -3   20.62    2.93
  -2 -18  -2  406.97   12.35
   2  18  -2  443.00   12.67
  -2 -18  -1   22.97    3.05
   2  18  -1   24.68    3.26
  -2 -18   0  111.63    6.24
  -2 -18   0  140.61    6.59
  -2 -18   1   19.65    2.89
   2 -18  -1   18.73    2.94
  -2 -18   1   20.64    2.77
  -2 -18   2  436.07   12.58
   2 -18  -2  407.22   12.49
  -2 -18   2  414.96   11.88
   2 -18  -3   23.06    3.10
  -2 -18   3   19.06    2.78
  -2 -18   3   23.16    2.88
  -2 -18   4   96.57    5.63
   2 -18  -4   92.80    5.64
  -2 -18   5   37.56    3.65
   2 -18  -5   38.99    3.73
   2 -18  -6   16.52    2.57
  -2 -18   6   18.45    2.62
   2 -18  -7    4.53    1.70
   2 -18  -8    4.48    1.65
   2 -18  -9   28.69    3.04
  -2  18  -9  273.35   17.49
  -2  18 -10  124.23    9.81
  -2  18 -11   60.43    5.59
  -2 -19  -5   93.33    5.20
  -2 -19  -4  130.91    6.18
  -2 -19  -3   32.46    3.22
   2  19  -3   31.69    3.12
  -2 -19  -2   58.95    4.25
   2  19  -2   58.45    4.14
  -2 -19  -1   59.21    4.24
   2  19  -1   63.55    4.34
  -2 -19   0   13.23    2.24
   2  19   0   14.48    2.36
  -2 -19   1   63.40    4.37
   2  19   1   65.65    4.48
   2  19   2   71.02    4.66
  -2 -19   2   63.37    4.34
  -2 -19   3   31.36    3.17
  -3   0   0    0.40    0.24
  -3   0   0    0.23    0.43
   3   0   0    1.33    0.39
  -3   0   1   11.23    0.53
   3   0   1   10.09    0.68
  -3   0  -1   11.23    0.71
   3   0   1   11.09    0.83
   3   0  -1   10.37    0.77
  -3   0   1    9.54    0.75
  -3   0   1   13.08    1.10
   3   0   2  150.66    3.19
  -3   0   2  155.86    2.16
  -3   0  -2  163.53    3.31
   3   0  -2  159.55    3.28
   3   0   2  168.05    3.45
  -3   0   2  154.71    3.26
   3   0   3  156.20    3.50
  -3   0  -3  162.54    3.55
   3   0  -3  158.66    3.41
   3   0   3  164.51    3.96
   3   0   4  679.30   10.20
  -3   0  -4  729.13   10.36
  -3   0   4  700.92    9.87
   3   0   4  680.24   10.55
   3   0  -4  722.43   10.03
  -3   0  -4  674.30   10.54
  -3   0  -5    1.37    0.49
   3   0   5    1.22    0.45
  -3   0  -5    1.37    0.53
   3   0   5    0.52    0.45
   3   0  -5    0.94    0.41
   3   0   6 1683.07   22.53
  -3   0  -6 1759.13   22.65
  -3   0  -6 1800.16   22.55
   3   0   6 1718.08   22.49
  -3   0   6 1712.39   21.87
   3   0  -6 1746.86   22.16
   3   0  -6 1681.51   23.09
   3   0   7  273.06    5.67
  -3   0  -7  283.39    5.67
  -3   0   7  264.78    5.36
   3   0  -7  262.78    6.00
   3   0   7  253.61    5.73
  -3   0  -7  279.39    5.95
  -3   0  -8  529.42    8.71
   3   0   8  520.60    8.78
  -3   0   8  500.11    8.46
   3   0  -8  494.56    9.38
   3   0  -8  488.93    6.40
  -3   0  -8  531.96    9.33
  -3   0  -9   39.66    1.93
   3   0   9   39.13    1.99
  -3   0   9   38.97    1.99
   3   0  -9   42.54    2.02
  -3   0  -9   43.22    2.03
  -3   0  -9   39.29    2.23
   3   0  -9   42.16    1.24
   3   0  -9   37.65    2.28
  -3   0 -10 4194.34   50.51
  -3   0  10 4283.13   51.01
   3   0  10 4191.32   50.87
  -3   0 -10 4175.06   50.85
   3   0 -10 4212.23   50.85
   3   0 -10 4185.51   48.29
  -3   0 -10 4307.05   52.14
   3   0 -10 4272.93   52.63
   3   0 -10 4261.53   52.96
  -3   0  11    0.82    0.53
  -3   0 -11    1.03    0.51
   3   0  11    1.28    0.53
  -3   0 -11    2.80    0.76
   3   0 -11    3.83    0.79
  -3   0 -11    0.84    0.52
   3   0 -11    1.32    0.36
   3   0 -11    0.09    0.62
   3   0 -11    0.59    0.73
  -3   0 -12  197.06    4.89
   3   0  12  193.30    5.10
  -3   0  12  184.63    5.29
  -3   0 -12  186.99    5.28
   3   0 -12  184.00    3.85
  -3   0 -12  188.04    5.75
   3   0 -12  184.33    5.24
  -3   0 -12  177.11    4.82
   3   0 -12  182.88    5.99
   3   0 -12  192.77    6.25
  -3   0 -13  218.26    5.35
   3   0  13  228.33    5.73
  -3   0  13  210.29    5.95
  -3   0 -13  204.97    5.88
   3   0 -13  224.33    6.06
   3   0 -13  218.59    4.48
  -3   0 -13  202.35    5.48
   3   0 -13  219.08    6.98
   3   0  14 3118.44   38.97
  -3   0  14 3039.42   39.89
  -3   0 -14 3046.99   40.05
   3   0 -14 3050.31   39.89
   3   0 -14 3017.72   36.78
  -3   0 -14 2982.30   39.05
   3   0 -14 3092.28   42.15
   3   0  15   58.30    2.88
   3   0 -15   56.10    3.19
  -3   0 -15   56.19    3.22
   3   0 -15   52.45    2.21
  -3   0 -15   49.70    2.85
   3   0 -15   59.19    3.80
   3   0 -16  315.16    8.31
  -3   0 -16  311.60    8.35
  -3   0 -16  287.77    7.65
  -3   0 -17   12.27    1.78
   3   0 -17   12.89    1.75
  -3   0 -17   11.07    1.58
   3   0 -17   12.65    2.07
  -3   0 -18 1321.27   22.59
   3   0 -18 1365.50   22.60
   3   0 -18 1360.48   24.44
  -3   0 -18 1298.39   21.52
  -3   0 -19   28.88    2.78
   3   0 -19   30.61    2.80
   3   0 -19   32.83    3.31
  -3   0 -19   32.45    2.72
  -3   0 -20   26.11    2.74
   3   0 -20   20.43    2.42
   3   0 -20   23.34    2.94
  -3   0 -20   20.70    2.32
   3   0 -21   16.18    2.25
  -3   0 -21   20.36    2.55
   3   0 -21   18.81    2.80
  -3   0 -22   22.53    2.76
   3   0 -22   17.42    2.38
   3   0 -22   21.73    3.00
  -3   0 -23   10.91    2.01
   3   0 -23   13.16    2.23
   3   0 -23    8.28    2.26
  -3   0 -24   26.69    3.08
   3   0 -24   26.87    3.01
  -3   0 -25   12.49    2.28
   3   0 -25    7.22    1.87
   3   0 -26 1591.29   28.23
  -3   0 -26 1595.34   28.50
   3   0 -27    4.57    1.46
  -3   0 -27    3.00    1.32
   3   0 -28    2.48    1.30
  -3   0 -28    3.27    1.31
   3   0 -29   91.05    5.22
  -3   0 -29   85.11    5.14
   3   0 -30  444.65   11.88
  -3   0 -30  467.64   12.26
   3   0  30  446.48   12.55
   3   0 -31   11.59    2.04
  -3   0 -31   12.01    2.14
   3   0  31   11.51    2.12
   3   0 -32   12.43    1.92
   3   0  32   11.27    2.04
   3   1 -31   26.14    2.79
  -3  -1 -31   26.59    2.83
   3   1 -30  125.48    5.91
  -3  -1 -30  119.67    5.81
   3   1 -29   54.47    4.05
  -3  -1 -29   51.58    4.00
   3   1 -28  100.60    5.65
  -3  -1 -28  100.39    5.64
   3   1 -27  324.75   10.54
  -3  -1 -27  309.71   10.37
   3   1 -26  182.40    7.81
  -3  -1 -26  178.04    7.77
   3   1 -25   67.30    4.78
  -3  -1 -25   70.79    4.84
   3   1 -25   75.87    5.58
  -3  -1 -24   62.19    4.52
   3   1 -24   57.94    4.37
   3   1 -24   65.10    5.22
   3   1 -23  119.36    6.16
  -3  -1 -23  122.02    6.20
   3   1 -23  131.12    7.19
   3   1 -22   36.58    3.33
  -3  -1 -22   37.84    3.36
   3   1 -22   39.51    3.90
  -3  -1 -21   13.01    2.09
   3   1 -21   14.16    2.14
   3   1 -21   10.55    2.26
   3   1 -20  105.11    5.30
  -3  -1 -20  104.04    5.28
   3   1 -20   99.63    5.91
   3   1 -19   14.54    2.02
  -3  -1 -19   13.03    1.94
   3   1 -19   12.83    2.22
   3   1 -18  282.84    8.45
  -3  -1 -18  271.86    8.31
   3   1 -18  266.77    9.27
  -3  -1 -17   34.52    2.79
   3   1 -17   33.91    2.76
   3   1 -17   31.08    3.01
   3   1 -16  101.74    4.55
  -3  -1 -16   98.03    4.41
  -3  -1 -16   94.47    4.02
   3   1 -16   96.65    5.05
  -3   1  15    2.54    0.90
   3  -1  15    2.78    0.84
   3   1 -15    4.28    0.72
   3   1 -15    4.33    1.10
  -3  -1 -15    3.53    1.06
  -3  -1 -15    3.17    0.90
   3   1 -15    2.33    1.17
   3  -1  14  383.87    8.44
  -3   1  14  377.21    8.55
   3   1 -14  389.70    8.88
   3   1 -14  381.20    6.84
  -3  -1 -14  385.80    8.77
  -3  -1 -14  366.60    8.07
   3   1 -14  393.39   10.09
   3  -1  13  454.99    9.19
  -3   1  13  456.14    9.26
  -3  -1 -13  451.34    8.00
   3   1 -13  437.46    9.30
  -3  -1 -13  435.07    9.20
   3   1 -13  452.22    7.44
  -3  -1 -13  433.10    8.63
   3   1 -13  469.45   10.81
  -3  -1 -12   44.70    2.02
   3  -1  12   42.37    2.37
  -3   1  12   40.23    2.26
  -3  -1 -12   44.08    2.64
   3   1 -12   43.85    1.70
  -3  -1 -12   45.25    2.46
  -3  -1 -12   41.53    2.16
   3   1 -12   42.06    2.79
   3   1 -12   42.92    2.86
  -3  -1 -11  551.65    9.06
   3  -1  11  533.62    9.98
  -3   1  11  542.24    9.71
   3   1 -11  545.35    8.03
  -3  -1 -11  570.26   10.73
  -3  -1 -11  565.94   10.04
   3   1 -11  541.51   11.06
   3   1 -11  535.05   11.21
  -3  -1 -10   45.50    1.98
   3  -1  10   39.43    2.17
  -3   1  10   40.94    2.07
  -3  -1 -10   41.26    2.40
  -3  -1 -10   43.24    2.17
   3   1 -10   41.76    1.43
   3   1 -10   41.05    2.52
   3   1 -10   40.72    2.58
   3  -1   9 1521.40   20.53
  -3   1   9 1462.68   19.62
  -3  -1  -9 1468.55   19.38
  -3  -1  -9 1480.70   20.88
  -3  -1  -9 1441.01   19.78
   3   1  -9 1460.13   17.68
   3   1  -9 1444.27   21.16
   3   1  -9 1465.32   21.56
   3  -1   8    6.54    0.92
  -3   1   8    6.58    0.79
  -3  -1  -8    8.65    0.87
   3   1  -8    5.37    0.94
  -3  -1  -8    6.09    0.93
   3   1  -8    6.05    0.45
  -3  -1  -7  164.00    3.94
  -3   1   7  154.73    3.66
   3  -1   7  165.54    4.34
   3   1  -7  162.70    4.29
   3   1  -7  152.49    4.33
  -3  -1  -7  161.80    4.32
   3   1  -7  161.33    2.52
  -3  -1  -6  305.94    6.11
   3   1  -6  293.60    3.82
   3   1  -6  309.44    6.00
  -3  -1  -6  306.32    5.81
  -3   1   6  298.69    5.29
   3  -1   6  311.85    6.25
  -3  -1  -5  280.61    5.56
  -3  -1  -5  293.60    5.59
   3   1  -5  287.08    5.57
   3  -1   5  272.86    5.79
  -3   1   5  276.81    4.86
  -3   1   5  277.93    5.63
  -3  -1  -4  188.89    4.16
  -3  -1  -4  195.37    4.33
  -3   1   4  186.65    3.58
   3   1  -4  200.16    4.26
   3  -1   4  183.48    4.49
  -3   1   4  206.19    4.57
  -3  -1  -3 1489.44   18.97
   3   1  -3 1488.26   17.07
   3   1  -3 1545.15   19.16
   3  -1   3 1562.69   19.94
  -3   1   3 1471.79   18.22
  -3  -1  -3 1444.74   19.43
  -3   1   3 1537.87   19.83
  -3   1   2   54.01    1.16
  -3  -1  -2   53.90    1.77
   3   1  -2   55.11    1.22
  -3   1   2   56.19    1.58
   3  -1   2   57.77    1.75
  -3  -1  -2   54.41    2.15
   3   1  -2   51.70    1.87
  -3   1   2   55.34    2.22
   3  -1   2   56.12    2.21
  -3   1   1  422.67    5.72
  -3  -1  -1  423.99    6.32
   3   1  -1  412.17    5.74
  -3   1   1  436.23    7.46
   3   1  -1  412.83    6.70
  -3   1   1  424.49    6.07
   3  -1   1  414.04    6.19
   3  -1   1  429.28    7.36
  -3   1   0  172.77    3.12
   3   1   0  179.02    3.18
  -3  -1   0  177.08    3.19
   3  -1   0  172.56    3.20
  -3   1   0  172.70    4.17
   3   1   0  170.47    3.65
  -3  -1   0  174.76    3.69
  -3   1  -1  412.60    6.27
   3   1   1  422.05    6.31
  -3  -1   1  433.06    5.84
   3  -1  -1  413.92    6.05
  -3  -1   1  418.30    6.71
   3   1   1  405.99    6.71
  -3   1  -1  414.55    7.33
  -3   1  -2   50.03    1.73
   3   1   2   52.61    1.78
  -3  -1   2   53.08    1.87
   3  -1  -2   49.82    1.52
  -3   1  -3 1465.17   19.01
   3   1   3 1510.62   19.12
  -3  -1   3 1512.19   19.10
   3  -1  -3 1510.57   18.42
   3   1   4  179.37    4.07
  -3   1  -4  183.13    4.10
  -3   1  -4  172.48    4.26
  -3  -1   4  192.71    4.07
   3  -1  -4  189.59    3.64
   3   1   5  277.14    5.62
  -3   1  -5  297.16    5.75
  -3   1  -5  276.10    5.81
  -3  -1   5  284.60    5.43
   3  -1  -5  284.74    5.07
   3   1   6  293.87    6.04
  -3   1  -6  294.57    6.02
  -3  -1   6  297.67    5.78
  -3   1  -6  291.58    6.03
   3  -1  -6  289.02    6.35
  -3   1  -7  170.36    4.33
   3   1   7  164.60    4.01
  -3  -1   7  162.47    4.12
   3   1   7  160.41    4.39
  -3   1  -7  166.46    4.48
   3  -1  -7  165.30    4.60
   3  -1  -7  163.58    4.70
  -3   1  -8    5.65    0.82
   3   1   8    7.81    0.87
  -3  -1   8    6.65    0.90
   3  -1  -8    5.78    0.97
  -3   1  -8    5.25    0.90
  -3   1  -9 1525.99   20.45
  -3  -1   9 1483.35   20.41
   3   1   9 1569.83   19.95
   3  -1  -9 1465.91   21.49
   3  -1  -9 1482.26   20.00
  -3   1  -9 1531.21   21.24
   3  -1  -9 1423.11   17.85
  -3   1 -10   42.80    2.16
  -3  -1  10   45.16    2.30
   3   1  10   46.09    2.08
   3  -1 -10   41.52    1.45
   3  -1 -10   42.34    2.14
  -3   1 -10   40.55    2.39
   3  -1 -10   39.72    2.49
  -3   1 -11  545.15    9.79
  -3  -1  11  524.55   10.07
   3   1  11  583.14    9.48
   3   1  11  542.61   10.63
   3  -1 -11  538.22    9.85
  -3   1 -11  591.24   11.02
   3  -1 -11  548.32    8.06
   3  -1 -11  545.08   11.10
  -3   1 -11  505.80    9.36
   3  -1 -11  551.85   11.30
  -3  -1  12   39.19    2.39
   3   1  12   48.15    2.24
  -3   1 -12   51.59    2.51
   3   1  12   45.31    2.73
   3  -1 -12   47.61    2.52
   3  -1 -12   45.52    1.75
  -3   1 -12   54.82    3.01
  -3   1 -12   43.01    2.31
   3  -1 -12   45.54    2.95
   3   1  13  460.55    8.38
  -3  -1  13  431.43    9.32
  -3   1 -13  454.75    8.83
  -3   1 -13  448.93    9.01
   3   1  13  406.23    9.51
  -3   1 -13  433.37    9.28
   3  -1 -13  433.36    9.09
   3  -1 -13  431.07    7.29
  -3  -1  14  363.54    8.64
  -3   1 -14  352.48    8.17
  -3   1 -14  371.37    8.74
   3  -1 -14  365.54    8.47
   3  -1 -14  355.84    6.62
  -3   1 -15    3.38    0.92
   3  -1 -15    4.07    1.06
   3  -1 -15    5.41    0.77
  -3  -1  16   92.00    3.93
  -3   1 -16   97.49    4.50
   3  -1 -16  107.30    4.55
  -3   1 -16   98.76    4.26
  -3   1 -17   33.16    2.75
   3  -1 -17   28.63    2.51
   3  -1 -17   28.13    2.89
  -3   1 -17   30.43    2.51
  -3   1 -18  276.64    8.47
   3  -1 -18  270.16    8.20
   3  -1 -18  261.69    9.11
  -3   1 -18  269.78    7.96
  -3   1 -19   20.78    2.48
   3  -1 -19   24.39    2.55
  -3   1 -19   21.09    2.31
   3  -1 -19   20.45    2.69
  -3   1 -20   98.86    5.22
   3  -1 -20   93.89    4.96
  -3   1 -20   85.50    4.63
   3  -1 -20   99.63    5.78
  -3   1 -21   19.39    2.44
   3  -1 -21   21.48    2.46
  -3   1 -21   16.10    2.21
  -3   1 -22   30.99    3.14
   3  -1 -22   34.21    3.18
  -3   1 -22   28.24    2.87
  -3   1 -23  112.76    6.02
   3  -1 -23  116.27    5.97
  -3   1 -24   58.61    4.40
   3  -1 -24   59.28    4.35
  -3   1 -25   79.70    5.19
   3  -1 -25   78.78    5.08
  -3   1 -26  178.59    7.82
   3  -1 -26  165.39    7.39
  -3   1 -27  316.46   10.57
   3  -1 -27  314.34   10.32
  -3   1 -28  107.50    5.91
   3  -1 -28  104.05    5.69
  -3   1 -29   50.33    3.95
   3  -1 -29   48.16    3.79
  -3   1 -30  125.60    5.97
   3  -1 -30  119.54    5.79
   3   1  30  136.51    6.51
  -3   1 -31   30.22    3.05
   3  -1 -31   30.68    2.94
   3   1  31   32.51    3.26
   3   1  32    9.51    1.83
   3  -2  32    4.66    1.46
   3   2 -31   14.39    2.17
  -3  -2 -31   16.27    2.28
   3  -2  31   16.11    2.43
   3   2 -30  232.48    8.16
  -3  -2 -30  219.45    7.99
   3  -2  30  226.95    8.53
   3   2 -29   46.54    3.79
  -3  -2 -29   45.66    3.79
   3  -2  29   51.58    4.09
  -3  -2 -28    7.81    1.90
   3   2 -28   12.17    2.22
   3   2 -27   19.59    2.72
  -3  -2 -27   21.65    2.90
   3   2 -26  404.97   12.04
  -3  -2 -26  400.15   11.95
   3   2 -26  396.08   13.28
   3   2 -25  254.11    9.31
  -3  -2 -25  243.08    9.08
   3   2 -25  245.55   10.22
   3   2 -24   64.69    4.60
  -3  -2 -24   71.95    4.86
   3   2 -24   63.90    5.20
   3   2 -23   57.37    4.32
  -3  -2 -23   53.61    4.11
   3   2 -23   52.82    4.64
  -3  -2 -22  535.65   13.66
   3   2 -22  538.00   13.79
   3   2 -22  555.05   15.50
   3   2 -21   44.22    3.65
  -3  -2 -21   41.77    3.50
   3   2 -21   38.40    3.93
   3   2 -20  254.20    8.62
  -3  -2 -20  259.86    8.57
   3   2 -20  259.97    9.75
   3   2 -19   97.40    5.01
  -3  -2 -19   84.03    4.61
   3   2 -19   81.53    5.21
   3   2 -19   97.33    5.58
   3   2 -18 2583.59   37.36
  -3  -2 -18 2567.18   37.04
   3   2 -18 2615.37   39.45
   3   2 -17  603.54   13.09
  -3  -2 -17  595.06   12.86
   3   2 -17  625.50   14.60
   3   2 -16   40.40    2.93
  -3  -2 -16   45.99    3.01
   3  -2  16   39.93    2.77
   3   2 -16   46.84    3.56
  -3  -2 -15  153.94    5.41
   3   2 -15  147.17    4.06
   3  -2  15  146.43    5.21
  -3   2  15  144.76    5.01
   3   2 -15  154.64    6.28
  -3  -2 -14 2198.60   30.44
   3   2 -14 2176.70   27.71
   3  -2  14 2241.54   30.55
  -3   2  14 2130.93   29.73
   3   2 -14 2220.11   32.60
   3  -2  13  215.04    6.19
  -3   2  13  216.28    5.76
  -3  -2 -13  216.10    4.58
   3   2 -13  223.26    4.84
  -3  -2 -13  223.24    6.17
   3   2 -13  221.79    7.08
   3   2 -13  223.46    7.19
  -3  -2 -12  283.12    5.47
   3  -2  12  273.05    6.98
  -3   2  12  287.85    6.50
  -3  -2 -12  286.71    6.85
  -3  -2 -12  279.31    7.33
   3   2 -12  288.08    5.51
   3   2 -12  281.93    7.79
   3   2 -12  277.46    7.87
  -3  -2 -11  211.22    4.50
   3  -2  11  220.23    5.87
  -3   2  11  214.00    5.18
  -3   2  11  197.74    4.17
  -3  -2 -11  205.73    5.94
  -3  -2 -11  208.83    5.48
   3   2 -11  211.47    4.30
   3   2 -11  215.26    6.38
   3   2 -11  206.08    6.41
  -3  -2 -10  780.89   11.41
   3  -2  10  791.40   13.27
  -3   2  10  832.45   12.42
  -3   2  10  783.89   12.07
  -3  -2 -10  807.10   13.54
   3   2 -10  811.71   11.00
  -3  -2 -10  769.15   12.53
  -3   2  10  773.83   10.85
   3   2 -10  791.42   13.92
   3   2 -10  794.74   14.19
  -3  -2  -9 1147.30   15.29
   3  -2   9 1171.90   17.13
  -3   2   9 1126.86   15.86
  -3   2   9 1115.81   15.52
  -3   2   9 1109.79   14.33
  -3  -2  -9 1151.43   17.11
   3   2  -9 1126.27   14.43
  -3  -2  -9 1112.46   16.08
   3   2  -9 1103.08   17.38
   3   2  -9 1099.04   17.68
   3  -2   8  400.56    8.09
  -3  -2  -8  394.97    6.91
  -3   2   8  404.32    7.31
  -3   2   8  403.13    6.85
   3   2  -8  409.23    8.15
   3   2  -8  409.14    6.11
  -3  -2  -8  417.67    8.14
  -3   2   8  406.32    5.98
  -3  -2  -8  408.98    7.36
   3   2  -8  412.89    8.34
   3   2  -8  397.97    8.52
   3  -2   7  126.80    3.94
  -3   2   7  123.38    3.43
  -3   2   7  124.45    3.00
   3   2  -7  132.01    3.92
  -3  -2  -7  121.14    3.23
   3   2  -7  122.39    3.88
   3   2  -7  123.11    2.51
  -3  -2  -7  124.78    3.81
  -3   2   7  119.13    2.40
  -3  -2  -6 2229.92   28.74
  -3   2   6 2231.72   26.18
  -3  -2  -6 2206.26   27.89
   3  -2   6 2360.92   29.38
  -3   2   6 2255.08   27.05
  -3   2   6 2283.62   28.36
   3   2  -6 2368.13   29.00
   3   2  -5  703.74    9.25
  -3   2   5  708.74    9.03
  -3  -2  -5  753.82   11.14
   3   2  -5  708.97   11.11
  -3  -2  -5  718.98   10.65
   3  -2   5  715.90   11.52
  -3   2   5  727.27   10.96
  -3   2   5  736.03    9.61
   3   2  -5  714.15   11.55
   3  -2   4  628.76   10.67
  -3   2   4  707.00   10.53
  -3  -2  -4  679.69   10.14
  -3   2   4  668.50    8.80
  -3   2   4  682.43    8.58
  -3  -2  -4  659.40   10.19
   3   2  -4  665.83    8.68
  -3   2   3 2382.02   29.43
  -3   2   3 2327.60   27.34
   3  -2   3 2455.14   29.96
  -3  -2  -3 2368.15   29.16
  -3  -2  -3 2376.19   28.99
   3   2  -3 2361.17   27.50
  -3   2   2 1766.61   22.56
   3  -2   2 1742.97   22.78
  -3   2   2 1730.98   20.33
  -3  -2  -2 1734.97   21.80
   3   2  -2 1750.93   20.75
  -3   2   1  121.52    3.40
   3  -2   1  126.39    2.48
   3   2  -1  121.21    2.59
  -3  -2  -1  124.96    2.94
   3  -2   0   68.86    1.62
  -3  -2   0   74.10    2.40
  -3   2   0   70.88    2.54
   3   2   0   74.98    2.02
  -3  -2   0   74.41    2.10
  -3  -2   1  116.11    3.08
  -3   2  -1  116.65    3.38
   3  -2  -1  111.32    2.14
   3   2   1  113.76    2.74
  -3   2  -2 1732.67   22.27
  -3  -2   2 1683.70   21.64
   3  -2  -2 1690.48   20.00
  -3   2  -2 1709.07   21.24
   3   2   2 1718.66   21.35
  -3   2  -3 2247.21   29.18
  -3  -2   3 2263.39   28.70
   3  -2  -3 2382.51   27.11
  -3   2  -3 2320.15   28.55
   3   2   3 2360.14   28.65
  -3  -2   4  710.45   10.58
  -3   2  -4  683.11   10.51
   3   2   4  693.19   10.52
   3   2   5  711.11   10.97
  -3  -2   5  710.64   10.91
  -3   2  -5  714.90   11.10
   3   2   5  723.18   11.08
  -3   2  -6 2323.24   29.32
  -3  -2   6 2337.70   28.85
  -3   2  -6 2324.58   29.19
  -3   2  -7  122.86    3.76
  -3  -2   7  124.78    3.68
  -3   2  -7  124.78    3.89
   3   2   7  112.34    3.69
  -3   2  -8  401.46    7.90
  -3  -2   8  411.17    7.86
  -3   2  -8  404.32    8.19
   3  -2  -8  409.64    7.38
  -3   2  -9 1147.96   17.00
  -3  -2   9 1130.73   16.94
   3  -2  -9 1103.59   17.73
   3  -2  -9 1164.40   16.45
  -3   2 -10  782.21   12.76
  -3  -2  10  736.67   12.67
  -3   2 -10  771.22   12.32
   3  -2 -10  757.35   13.68
  -3   2 -10  770.17   13.40
   3  -2 -10  802.68   12.49
  -3   2 -11  208.20    5.54
  -3  -2  11  200.56    5.67
  -3   2 -11  202.83    5.32
   3   2  11  200.38    5.94
   3  -2 -11  210.55    5.47
  -3  -2  12  272.26    6.95
  -3   2 -12  277.60    6.69
  -3   2 -12  274.17    6.63
   3  -2 -12  275.00    6.67
   3   2  12  260.33    7.12
   3  -2 -12  276.12    5.35
  -3   2 -12  281.82    7.44
  -3  -2  13  218.23    6.26
  -3   2 -13  227.06    6.03
  -3   2 -13  203.55    5.85
   3  -2 -13  215.43    4.74
   3   2  13  208.92    6.45
   3  -2 -13  210.89    5.95
  -3   2 -14 2072.48   29.40
   3  -2 -14 2175.60   29.71
   3  -2 -14 2116.70   27.05
  -3  -2  15  152.69    5.30
   3  -2 -15  159.30    5.47
   3  -2 -15  149.93    4.14
  -3   2 -15  152.54    5.34
   3  -2 -16   45.75    3.02
  -3   2 -16   42.08    2.89
  -3   2 -17  592.77   13.09
   3  -2 -17  598.24   12.70
  -3   2 -17  596.06   12.71
  -3   2 -18 2502.63   36.52
   3  -2 -18 2583.11   36.15
  -3   2 -19   95.13    5.04
   3  -2 -19   98.09    4.90
  -3   2 -19   87.72    4.65
   3  -2 -20  249.25    8.32
  -3   2 -20  254.98    8.71
  -3   2 -20  255.02    8.34
  -3   2 -21   35.51    3.27
   3  -2 -21   32.94    3.07
  -3   2 -21   33.37    3.09
  -3   2 -22  518.93   13.59
   3  -2 -22  525.64   13.27
  -3   2 -22  500.33   12.79
  -3   2 -23   60.20    4.48
   3  -2 -23   59.47    4.33
  -3   2 -23   52.77    3.97
  -3   2 -24   71.38    4.90
   3  -2 -24   72.02    4.75
  -3   2 -25  253.36    9.43
   3  -2 -25  264.52    9.42
  -3   2 -26  421.68   12.51
   3  -2 -26  424.98   12.27
  -3   2 -27   17.85    2.63
   3  -2 -27   20.15    2.67
   3  -2 -28    9.21    2.03
  -3   2 -28   10.65    2.21
  -3   2 -29   49.06    3.97
   3  -2 -29   43.64    3.67
   3   2  29   52.20    4.10
  -3   2 -30  213.47    7.92
   3  -2 -30  206.19    7.60
   3   2  30  216.91    8.28
  -3   2 -31   18.27    2.45
   3  -2 -31   18.12    2.37
   3   2  31   19.02    2.52
   3   2  32    2.16    1.23
  -3  -3 -31   21.73    2.48
   3   3 -31   25.38    2.62
   3  -3  31   27.13    2.93
   3   3 -30  101.37    5.35
  -3  -3 -30  113.13    5.59
   3  -3  30  110.26    5.75
   3   3 -29   99.10    5.46
  -3  -3 -29   97.83    5.39
   3  -3  29   93.76    5.45
   3   3 -28   23.34    2.92
  -3  -3 -28   23.46    2.76
  -3  -3 -27   54.92    4.19
   3   3 -27   56.69    4.33
   3   3 -27   55.58    4.81
   3   3 -26  293.53   10.07
  -3  -3 -26  290.17    9.93
   3   3 -26  276.38   10.97
  -3  -3 -25  156.13    7.17
   3   3 -25  153.71    7.17
   3   3 -25  158.72    8.19
   3   3 -24    2.60    1.37
  -3  -3 -24    0.90    1.36
   3   3 -24    3.09    1.72
   3   3 -23  173.80    7.53
  -3  -3 -23  168.66    7.31
   3   3 -23  175.80    8.44
   3   3 -22   76.70    4.89
  -3  -3 -22   75.62    4.74
   3   3 -22   72.66    5.41
   3   3 -21  136.28    6.41
  -3  -3 -21  158.73    6.68
   3   3 -21  144.96    7.41
   3   3 -20   22.78    2.68
  -3  -3 -20   26.89    2.77
   3   3 -20   28.77    3.24
   3   3 -20   25.70    3.07
  -3  -3 -19  119.43    5.52
   3   3 -19  114.29    5.57
   3   3 -19  123.03    6.43
  -3  -3 -18  141.76    5.87
   3   3 -18  157.57    7.02
  -3  -3 -17    3.79    1.30
   3   3 -17    6.56    1.72
  -3  -3 -16  330.00    8.74
   3   3 -16  347.08   10.18
  -3  -3 -15  392.54    9.37
   3   3 -15  402.44    7.88
  -3   3  15  390.78    8.72
   3   3 -15  410.43   10.90
  -3   3  14  675.27   12.07
  -3  -3 -14  674.74   12.85
   3   3 -14  678.96   11.09
   3   3 -14  659.58   14.21
   3   3 -14  694.98   14.62
   3  -3  13  365.52    8.82
  -3   3  13  378.84    7.85
  -3   3  13  354.95    6.97
   3   3 -13  386.08    7.19
  -3  -3 -13  370.01    8.44
   3   3 -13  360.11    9.51
   3   3 -13  376.40    9.80
   3  -3  12   94.95    4.05
  -3   3  12   99.48    3.07
  -3   3  12  100.61    3.44
  -3  -3 -12   87.56    2.38
  -3   3  12   96.44    3.01
   3   3 -12   95.28    3.02
  -3  -3 -12  100.58    4.23
  -3  -3 -12  100.81    3.86
   3   3 -12  102.85    4.55
   3   3 -12  101.02    4.58
  -3  -3 -11 1485.26   19.46
   3  -3  11 1572.39   23.05
  -3   3  11 1637.56   20.66
  -3   3  11 1570.39   21.07
  -3   3  11 1545.40   20.27
  -3  -3 -11 1613.50   23.27
  -3  -3 -11 1553.53   22.08
   3   3 -11 1600.38   20.44
  -3  -3 -11 1530.40   20.44
   3   3 -11 1584.80   23.79
   3   3 -11 1561.09   23.98
  -3  -3 -10    0.78    0.35
  -3   3  10    0.59    0.41
  -3   3  10    0.59    0.42
   3   3 -10    1.63    0.44
  -3   3  10    0.68    0.36
  -3  -3 -10   -0.08    0.52
  -3  -3 -10    0.54    0.66
   3   3 -10    0.09    0.68
  -3  -3 -10    1.20    0.61
   3   3 -10    0.78    0.65
  -3  -3  -9  282.41    5.31
   3  -3   9  304.89    7.16
  -3   3   9  298.58    5.86
  -3   3   9  306.88    5.67
   3   3  -9  295.79    5.40
  -3   3   9  287.72    5.29
  -3  -3  -9  311.35    7.18
  -3  -3  -9  301.73    6.42
  -3  -3  -9  300.92    5.99
   3   3  -9  293.83    7.27
   3   3  -9  293.67    7.44
  -3  -3  -8   92.60    2.65
  -3   3   8   91.45    2.88
  -3   3   8   88.80    2.50
   3  -3   8   86.71    3.49
  -3  -3  -8   90.69    3.47
  -3  -3  -8   95.42    3.13
  -3   3   8   93.81    2.49
  -3  -3  -8   92.99    3.00
   3   3  -8   89.14    3.56
   3   3  -8   88.49    3.68
   3  -3   7   85.34    3.37
  -3   3   7   84.11    2.23
  -3   3   7   87.92    2.81
  -3  -3  -7   86.87    2.61
  -3   3   7   84.30    2.26
  -3  -3  -7   82.79    2.79
  -3  -3  -7   85.27    3.23
  -3  -3  -7   85.74    2.87
   3   3  -7   84.95    3.36
   3   3  -7   83.16    3.44
   3  -3   6   19.91    1.62
  -3  -3  -6   14.94    1.08
  -3   3   6   16.50    1.18
  -3   3   6   15.89    0.81
  -3   3   6   19.04    0.99
  -3  -3  -6   16.93    1.38
   3   3  -6   15.30    1.42
   3  -3   6   14.75    1.24
  -3   3   5  409.79    6.33
  -3  -3  -5  439.14    7.85
   3  -3   5  436.32    8.25
  -3   3   5  413.85    7.31
  -3   3   5  412.28    5.71
  -3  -3  -5  394.03    6.99
  -3   3   4  412.21    6.46
  -3  -3  -4  444.40    7.75
   3   3  -4  419.33    6.62
  -3   3   4  433.82    5.55
  -3   3   4  446.62    7.61
   3  -3   4  428.10    8.15
  -3  -3  -4  414.52    7.24
   3   3  -4  421.17    8.07
  -3  -3  -3 2870.34   34.66
   3   3  -3 2834.07   33.46
  -3   3   3 2827.51   34.69
   3  -3   3 2776.17   35.35
  -3  -3  -2   51.22    2.05
   3   3  -2   47.68    1.71
  -3   3   2   44.32    2.02
   3   3  -2   48.05    2.07
  -3  -3  -1  212.82    4.50
   3   3  -1  205.07    4.08
  -3  -3  -1  206.94    4.61
  -3   3   1  203.38    4.69
   3  -3   1  206.89    3.26
   3   3  -1  193.34    4.55
   3   3   0   44.04    1.72
  -3   3   0   43.52    2.02
   3   3   0   45.07    1.98
   3  -3   0   46.38    1.05
   3  -3   0   42.91    2.05
  -3  -3   0   42.45    1.93
   3   3   1  213.13    4.40
  -3   3  -1  216.18    4.96
   3  -3  -1  212.46    4.91
   3   3   1  213.48    4.75
  -3  -3   1  209.03    4.69
   3  -3  -1  211.52    2.85
   3   3   2   47.89    1.94
  -3   3  -2   48.99    2.22
  -3  -3   2   46.70    2.05
   3   3   2   47.77    2.08
   3  -3  -2   50.12    2.14
   3   3   3 2803.45   33.81
   3   3   3 2748.67   33.99
  -3  -3   3 2799.20   34.03
  -3   3  -3 2692.40   34.45
   3   3   4  433.09    7.76
   3   3   4  448.48    7.87
  -3   3  -4  434.00    8.18
  -3  -3   4  441.03    7.82
  -3   3  -5  431.27    7.89
   3   3   5  420.41    7.83
   3   3   5  425.69    7.79
  -3  -3   5  430.76    7.85
  -3   3  -6   16.61    1.40
   3   3   6   18.05    1.44
   3   3   6   17.14    1.37
  -3  -3   6   16.99    1.36
   3   3   6   15.75    1.25
  -3   3  -7   80.21    3.16
  -3  -3   7   78.01    2.99
  -3   3  -7   76.24    3.11
   3   3   7   73.39    3.02
   3  -3  -7   76.02    2.65
  -3   3  -8   92.26    3.48
  -3  -3   8   85.74    3.29
  -3   3  -8   88.04    3.48
   3  -3  -8   87.49    3.00
  -3   3  -9  291.89    6.91
  -3  -3   9  308.57    6.99
  -3   3  -9  312.21    7.37
   3  -3  -9  311.15    6.52
  -3   3 -10    2.42    0.72
  -3  -3  10    0.79    0.63
  -3   3 -10    2.25    1.08
  -3   3 -10    0.63    0.63
   3  -3 -10    0.74    0.55
  -3  -3  11 1579.38   22.95
  -3   3 -11 1539.27   22.74
  -3   3 -11 1669.63   23.19
   3   3  11 1482.72   23.18
  -3   3 -11 1643.31   23.80
   3  -3 -11 1578.94   22.34
  -3  -3  12   93.56    3.93
  -3   3 -12   93.88    3.85
  -3   3 -12   92.05    3.82
   3   3  12   95.21    4.15
  -3   3 -12   99.43    4.31
   3  -3 -12   91.51    3.67
  -3   3 -13  376.37    8.68
   3  -3 -13  392.91    8.74
  -3   3 -13  392.88    8.86
   3  -3 -14  673.43   12.71
  -3   3 -14  655.32   12.73
   3  -3 -15  408.73    9.51
  -3   3 -15  398.50    9.58
   3  -3 -16  339.74    8.82
  -3   3 -16  342.91    9.01
   3  -3 -17    3.26    1.22
  -3   3 -17    2.79    1.05
   3  -3 -18  162.14    6.24
  -3   3 -18  166.84    6.44
  -3   3 -19  135.37    6.10
   3  -3 -19  125.90    5.64
  -3   3 -19  127.42    5.74
  -3   3 -20   21.60    2.75
   3  -3 -20   22.91    2.61
  -3   3 -20   23.34    2.67
  -3   3 -21  134.95    6.46
   3  -3 -21  141.46    6.30
  -3   3 -21  128.37    6.07
  -3   3 -22   79.81    5.04
   3  -3 -22   81.52    4.88
  -3   3 -22   78.56    4.83
   3  -3 -23  179.98    7.48
  -3   3 -23  185.23    7.89
  -3   3 -23  167.57    7.18
  -3   3 -24    1.72    1.28
   3  -3 -24    0.53    1.26
  -3   3 -24    0.34    1.10
  -3   3 -25  159.24    7.39
   3  -3 -25  163.41    7.27
  -3   3 -26  275.59    9.85
   3  -3 -26  269.24    9.46
  -3   3 -27   46.64    4.02
   3  -3 -27   45.29    3.83
  -3   3 -28   22.40    2.88
   3  -3 -28   25.74    2.84
  -3   3 -29  100.68    5.57
   3  -3 -29  101.97    5.43
   3   3  29   99.85    5.59
  -3   3 -30  101.61    5.40
   3  -3 -30  105.70    5.34
   3   3  30  112.34    5.77
   3  -3 -31   21.92    2.45
  -3   3 -31   22.20    2.50
   3   3  31   24.09    2.76
  -3  -4 -31   40.21    3.26
   3   4 -31   39.43    3.23
   3  -4  31   39.86    3.29
  -3  -4 -30  165.37    6.68
   3   4 -30  159.48    6.66
   3  -4  30  171.27    7.01
  -3  -4 -29  179.30    7.23
   3   4 -29  182.05    7.43
   3  -4  29  184.47    7.49
   3   4 -28   13.01    2.31
  -3  -4 -28   15.88    2.32
   3   4 -28   10.64    2.54
   3  -4  28   12.22    2.23
   3   4 -27   66.74    4.69
  -3  -4 -27   59.37    4.34
   3   4 -27   69.50    5.38
   3   4 -26  280.78    9.90
  -3  -4 -26  283.86    9.73
   3   4 -26  293.71   11.27
   3   4 -25  130.61    6.64
  -3  -4 -25  136.35    6.61
   3   4 -25  134.63    7.59
  -3  -4 -24   18.59    2.54
   3   4 -24   22.12    2.93
   3   4 -24   15.81    2.76
   3   4 -23   31.72    3.34
  -3  -4 -23   34.01    3.33
   3   4 -23   37.80    4.04
   3   4 -22  251.41    9.11
  -3  -4 -22  249.30    8.82
   3   4 -22  254.83   10.22
   3   4 -21  603.94   14.73
  -3  -4 -21  624.25   14.57
   3   4 -21  602.01   16.15
   3   4 -21  596.62   15.80
   3   4 -20  393.85   11.27
  -3  -4 -20  410.15   11.13
   3   4 -20  397.49   12.32
  -3  -4 -19  171.22    6.72
   3   4 -19  168.66    7.63
  -3  -4 -18  824.76   16.31
   3   4 -18  793.57   17.81
  -3  -4 -17 1094.03   19.40
   3   4 -17 1096.19   21.33
  -3  -4 -16   25.00    2.28
   3   4 -16   21.90    2.60
  -3  -4 -15  998.70   17.38
   3   4 -15  993.92   19.30
   3   4 -14  968.20   14.92
  -3  -4 -14  969.27   16.67
   3   4 -14  973.00   18.33
   3   4 -14  965.49   18.54
   3  -4  13  321.87    8.61
  -3   4  13  334.43    7.11
   3   4 -13  339.55    7.03
  -3  -4 -13  335.28    8.14
   3   4 -13  332.44    9.20
   3   4 -13  353.09    9.58
   3  -4  12   34.39    2.55
  -3   4  12   36.92    1.96
  -3  -4 -12   40.70    2.49
   3   4 -12   37.76    1.99
  -3   4  12   39.93    2.02
  -3  -4 -12   32.85    1.84
   3   4 -12   33.99    2.72
   3   4 -12   34.00    2.71
   3  -4  11  677.52   12.77
  -3   4  11  658.17    9.81
  -3   4  11  673.03   10.38
   3   4 -11  676.89   10.59
  -3  -4 -11  663.86   12.71
  -3   4  11  662.15   10.47
  -3  -4 -11  687.18   11.87
  -3  -4 -11  651.67   10.56
   3   4 -11  650.69   12.93
   3   4 -11  654.65   13.18
  -3   4  10 1054.15   14.47
   3  -4  10 1016.97   17.18
  -3  -4 -10 1002.03   13.41
  -3   4  10 1060.23   14.49
  -3  -4 -10 1047.35   17.19
  -3   4  10 1053.21   14.83
  -3  -4 -10 1090.59   16.23
  -3  -4 -10 1051.36   15.24
   3   4 -10 1037.44   17.53
   3   4 -10 1075.42   17.92
  -3   4   9  308.53    5.87
   3  -4   9  293.96    7.48
  -3  -4  -9  292.34    5.23
  -3   4   9  319.86    5.55
  -3  -4  -9  310.83    7.48
  -3   4   9  308.27    5.92
  -3  -4  -9  310.06    6.78
  -3  -4  -9  302.38    6.35
   3   4  -9  309.92    7.78
   3   4  -9  288.20    7.63
   3  -4   8  763.62   13.30
  -3  -4  -8  745.18   10.68
  -3   4   8  762.89   11.28
  -3   4   8  751.66   10.25
   3   4  -8  751.15   13.11
  -3   4   8  756.79   11.12
  -3  -4  -8  740.83   13.00
  -3  -4  -8  745.36   12.03
  -3  -4  -8  762.40   11.89
   3   4  -8  749.54   13.58
   3   4  -8  727.84   13.34
   3  -4   7  156.48    4.92
  -3  -4  -7  150.98    3.60
  -3   4   7  158.06    2.94
   3   4  -7  168.59    4.93
  -3   4   7  151.63    3.85
  -3   4   7  159.04    3.74
  -3  -4  -7  154.47    4.70
  -3  -4  -7  161.06    4.27
  -3  -4  -7  151.86    4.18
   3   4  -7  155.90    5.43
   3  -4   7  142.38    4.09
   3   4  -7  150.77    4.90
  -3   4   6    6.58    0.78
  -3  -4  -6    6.71    0.75
   3  -4   6    9.27    1.19
   3   4  -6    9.41    1.16
  -3   4   6    7.40    0.45
  -3  -4  -6    6.15    0.89
  -3  -4  -6    7.42    1.05
  -3   4   6    9.42    0.83
   3   4  -6    4.73    1.62
  -3  -4  -6    9.70    1.04
   3  -4   6    6.33    0.87
   3   4  -6    6.68    1.11
  -3  -4  -5  105.06    3.04
   3   4  -5  115.90    3.79
  -3   4   5  118.09    3.33
   3  -4   5  108.40    3.87
  -3   4   5  109.62    2.98
  -3  -4  -5  103.49    3.54
  -3  -4  -5  108.98    3.48
   3  -4   5  107.08    3.46
  -3   4   4  219.50    4.89
   3  -4   4  218.61    5.60
   3   4  -4  223.90    5.39
  -3  -4  -4  215.23    5.24
  -3   4   4  214.16    4.55
   3   4  -4  222.33    4.66
  -3  -4  -4  202.30    4.99
   3  -4   4  210.21    5.01
  -3   4   3 2874.30   35.77
   3   4  -3 2965.34   36.34
   3   4  -3 2956.77   35.25
   3  -4   3 2969.12   37.24
  -3  -4  -3 2944.45   36.39
  -3   4   2   50.27    2.18
   3   4  -2   49.01    2.25
   3   4  -2   46.38    1.96
  -3   4   1  388.39    7.16
   3  -4   1  375.24    4.87
   3  -4   1  372.17    7.41
   3   4  -1  379.37    7.15
   3  -4   1  359.58    4.91
   3  -4   1  385.07    7.56
   3   4  -1  369.87    6.65
  -3   4   0  114.60    3.51
   3   4   0  112.93    3.44
   3  -4   0  112.87    3.55
  -3  -4   0  120.91    3.60
   3   4   0  117.55    3.28
  -3   4  -1  372.79    7.26
   3  -4  -1  379.23    7.28
   3   4   1  381.05    7.14
  -3  -4   1  371.85    7.22
   3   4   1  369.33    6.87
  -3   4  -2   78.54    2.94
   3   4   2   74.94    2.77
   3  -4  -2   76.52    2.78
  -3  -4   2   71.99    2.76
   3   4   2   75.45    2.70
  -3   4  -3 2866.24   35.84
   3   4   3 2867.51   35.44
  -3  -4   3 2785.03   35.34
   3  -4  -3 2835.85   35.15
  -3  -4   3 2888.67   35.47
   3   4   3 2842.54   35.33
  -3   4  -4  238.90    5.67
   3   4   4  243.95    5.48
  -3  -4   4  224.23    5.33
  -3  -4   4  221.41    5.22
   3   4   4  217.32    5.30
  -3   4  -5  103.26    3.62
   3   4   5  103.55    3.44
  -3  -4   5   99.71    3.41
   3   4   5   99.92    3.46
  -3  -4   5  105.92    3.36
   3   4   6    9.55    1.10
  -3  -4   6    8.41    1.06
   3  -4  -6    8.02    0.93
   3   4   6    8.67    1.12
  -3  -4   6    8.75    1.01
   3   4   7  147.00    4.36
  -3  -4   7  142.75    4.36
  -3   4  -7  150.01    4.62
   3   4   7  136.16    4.46
   3  -4  -7  138.80    3.92
  -3  -4   7  146.59    4.03
   3   4   7  136.08    3.96
  -3   4  -8  745.12   12.98
   3   4   8  745.90   12.59
  -3  -4   8  748.80   12.80
  -3  -4   8  775.69   11.93
  -3   4  -8  788.23   13.32
   3  -4  -8  750.64   12.04
  -3   4  -9  275.97    6.90
   3   4   9  284.98    6.69
  -3  -4   9  279.36    6.83
  -3  -4   9  259.18    5.75
  -3   4  -9  268.07    6.99
   3  -4  -9  270.54    6.21
  -3  -4  10 1038.46   16.79
  -3   4 -10 1023.41   16.75
  -3  -4  10 1021.70   14.96
  -3   4 -10 1079.89   17.39
   3  -4 -10 1037.06   15.95
  -3  -4  11  656.72   12.10
  -3   4 -11  642.32   12.03
  -3   4 -11  664.52   12.64
   3   4  11  650.64   12.44
   3  -4 -11  670.99   11.54
  -3   4 -12   35.59    2.49
   3  -4 -12   34.78    2.35
  -3   4 -12   36.73    2.84
   3  -4 -13  325.73    8.05
  -3   4 -13  350.16    8.70
   3  -4 -14  985.08   16.80
  -3   4 -14  976.56   17.18
   3  -4 -15  942.58   16.68
  -3   4 -15  937.19   17.09
   3  -4 -16   24.25    2.26
  -3   4 -16   20.13    2.22
   3  -4 -17 1080.27   18.92
  -3   4 -17 1026.48   19.13
   3  -4 -18  790.65   15.80
  -3   4 -18  785.37   16.25
   3  -4 -19  195.51    7.12
  -3   4 -19  183.61    7.21
  -3   4 -20  398.66   11.43
   3  -4 -20  385.85   10.73
  -3   4 -20  375.34   10.91
  -3   4 -21  611.19   14.99
   3  -4 -21  619.70   14.40
  -3   4 -21  585.65   14.42
  -3   4 -22  234.74    8.90
   3  -4 -22  235.11    8.51
  -3   4 -22  236.91    8.67
  -3   4 -23   41.21    3.81
   3  -4 -23   42.25    3.67
  -3   4 -23   31.75    3.27
  -3   4 -24   26.04    3.18
   3  -4 -24   24.82    2.94
  -3   4 -24   22.19    2.80
  -3   4 -25  146.91    7.12
   3  -4 -25  150.66    6.91
  -3   4 -26  290.78   10.19
   3  -4 -26  301.77    9.99
  -3   4 -27   65.62    4.69
   3  -4 -27   65.40    4.53
  -3   4 -28   15.96    2.56
   3  -4 -28   16.78    2.40
   3   4  28   13.91    2.44
   3  -4 -29  180.24    7.20
  -3   4 -29  181.11    7.44
   3   4  29  184.76    7.56
   3  -4 -30  170.10    6.68
  -3   4 -30  154.01    6.56
   3   4  30  170.16    7.00
   3  -4 -31   44.30    3.35
  -3   4 -31   37.94    3.20
   3   4  31   45.67    3.49
   3   5 -30   30.10    2.97
   3  -5  30   27.95    2.84
  -3  -5 -29  193.92    7.46
   3   5 -29  178.95    7.32
   3   5 -29  185.90    8.26
   3  -5  29  184.01    7.27
  -3  -5 -28   17.88    2.51
   3   5 -28   18.15    2.57
   3   5 -28   11.79    2.43
   3  -5  28   13.24    2.25
  -3  -5 -27   50.45    4.00
   3   5 -27   49.44    4.05
   3   5 -27   52.33    4.64
   3  -5  27   44.75    3.78
  -3  -5 -26   23.01    2.87
   3   5 -26   26.53    3.05
   3   5 -26   26.65    3.50
   3   5 -25  124.87    6.48
  -3  -5 -25  123.90    6.30
   3   5 -25  112.77    6.97
   3   5 -24   66.85    4.77
  -3  -5 -24   68.28    4.66
   3   5 -24   69.98    5.45
   3   5 -23   83.28    5.29
  -3  -5 -23   85.66    5.14
   3   5 -23   94.47    6.29
   3   5 -22   26.66    3.03
  -3  -5 -22   24.50    2.79
   3   5 -22   26.40    3.40
   3   5 -22   25.44    3.26
   3   5 -21  232.05    8.71
  -3  -5 -21  243.32    8.57
   3   5 -21  226.09    9.52
   3   5 -21  242.04    9.58
  -3  -5 -20   37.68    3.24
   3   5 -20   39.66    3.87
  -3  -5 -19  289.78    9.06
   3   5 -19  309.08   10.58
  -3  -5 -18   60.77    3.88
   3   5 -18   60.07    4.44
  -3  -5 -17   88.20    4.55
   3   5 -17   86.38    5.19
  -3  -5 -16   96.73    4.62
   3   5 -16   89.80    5.17
  -3  -5 -15   65.17    3.68
   3   5 -15   68.58    4.36
   3   5 -15   72.75    4.53
   3   5 -14   10.94    1.27
   3   5 -14    8.41    1.70
   3   5 -14   12.57    1.93
   3   5 -13  176.40    5.07
  -3  -5 -13  170.22    4.69
   3   5 -13  186.27    6.75
   3   5 -13  181.70    6.81
   3  -5  12   74.77    3.57
   3   5 -12   73.73    3.05
  -3   5  12   69.23    2.93
  -3  -5 -12   68.73    3.40
  -3  -5 -12   65.50    2.81
   3   5 -12   72.35    4.03
   3   5 -12   68.73    3.99
   3  -5  11 2118.73   30.54
  -3   5  11 2099.34   26.42
   3  -5  11 2047.48   28.94
  -3   5  11 2152.19   27.87
  -3  -5 -11 2172.01   29.26
   3   5 -11 2144.82   31.01
  -3  -5 -11 2085.41   27.77
   3   5 -11 2104.07   31.12
  -3   5  10   91.89    2.66
   3  -5  10   90.50    4.13
  -3   5  10   87.28    2.50
   3  -5  10   94.80    3.64
  -3  -5 -10   90.40    4.04
  -3   5  10   89.69    3.16
  -3  -5 -10   98.65    3.78
  -3  -5 -10   87.47    3.31
   3   5 -10   92.08    4.34
   3   5 -10   86.30    4.17
  -3   5   9  358.20    6.39
  -3  -5  -9  324.03    5.47
   3  -5   9  349.81    8.56
  -3   5   9  343.89    5.56
   3  -5   9  346.27    7.37
   3   5  -9  359.26    8.59
  -3  -5  -9  370.79    7.79
  -3   5   9  347.94    6.95
  -3  -5  -9  354.12    8.39
   3   5  -9  354.29    9.26
  -3  -5  -9  351.02    7.36
   3   5  -9  341.61    8.67
   3  -5   8  588.06   11.50
  -3  -5  -8  542.96    8.45
  -3   5   8  601.69    9.29
  -3   5   8  571.39    7.64
   3   5  -8  593.38   11.42
   3  -5   8  561.28    9.87
  -3  -5  -8  582.06   11.20
  -3  -5  -8  618.90   10.58
  -3   5   8  573.03    9.62
  -3  -5  -8  582.24   10.23
   3  -5   8  547.14    9.86
   3   5  -8  573.11   11.54
   3  -5   7  220.20    6.17
  -3   5   7  227.02    4.79
  -3   5   7  195.87    2.74
  -3  -5  -7  225.16    4.45
  -3   5   7  192.25    2.74
   3   5  -7  254.21    6.35
   3  -5   7  219.57    4.94
  -3  -5  -7  221.62    5.98
  -3  -5  -7  233.99    5.57
  -3   5   7  224.07    4.97
  -3  -5  -7  228.41    5.47
   3   5  -7  217.82    6.17
   3  -5   7  220.12    5.14
  -3   5   6  495.89    8.44
   3  -5   6  517.08   10.18
  -3  -5  -6  484.20    8.10
   3   5  -6  507.12    9.86
   3  -5   6  491.17    8.25
  -3   5   6  499.12    8.61
  -3  -5  -6  507.47    9.06
  -3  -5  -6  496.45    9.82
  -3  -5  -6  485.40    9.15
   3  -5   6  480.77    9.02
   3   5  -6  500.98   10.16
   3  -5   6  479.88    8.54
  -3   5   5  160.16    4.14
   3   5  -5  162.68    4.88
   3  -5   5  158.89    3.71
  -3  -5  -5  165.17    4.93
  -3  -5  -5  156.54    4.29
  -3   5   5  164.12    4.22
  -3  -5  -5  165.71    4.65
   3  -5   5  166.53    4.52
  -3   5   4  174.42    4.38
   3  -5   4  168.43    3.55
  -3  -5  -4  169.67    4.39
  -3   5   4  170.97    4.36
   3   5  -4  166.45    4.34
  -3  -5  -4  165.63    4.64
   3  -5   4  165.73    4.47
  -3   5   3  294.08    6.15
   3  -5   3  288.02    6.84
   3   5  -3  301.55    6.67
   3  -5   3  298.66    4.85
   3  -5   3  303.67    7.23
   3   5  -3  299.90    6.19
  -3  -5  -3  308.14    6.19
  -3  -5  -3  302.03    6.59
   3  -5   3  298.76    6.25
   3  -5   2 3454.86   43.01
  -3  -5  -2 3432.36   41.39
   3   5  -2 3341.22   41.48
   3   5  -2 3424.26   42.14
   3  -5   2 3378.48   38.81
  -3   5   2 3416.22   41.68
   3  -5   2 3372.02   41.41
  -3   5   1  367.46    7.22
   3  -5   1  358.40    7.56
  -3  -5  -1  347.16    7.14
   3   5  -1  376.50    7.44
   3  -5   1  367.36    7.79
   3   5  -1  372.76    7.18
  -3   5   0   35.20    1.97
   3   5   0   37.13    2.02
  -3  -5   0   35.44    1.97
   3  -5   0   34.55    2.01
  -3  -5   0   34.65    2.02
   3   5   0   37.37    1.96
   3  -5   0   34.76    2.11
  -3   5  -1  348.07    7.16
   3  -5  -1  331.10    7.02
   3   5   1  344.65    7.02
  -3  -5   1  338.16    6.82
   3  -5  -1  338.97    7.20
  -3  -5   1  352.88    7.22
   3   5   1  349.32    7.07
   3  -5  -1  333.56    6.45
   3  -5  -2 3405.97   41.91
  -3  -5   2 3440.37   41.33
   3  -5  -2 3397.03   41.45
  -3   5  -2 3373.28   42.07
   3   5   2 3368.33   41.70
   3  -5  -2 3407.47   41.75
  -3  -5   2 3385.80   41.91
   3   5   2 3387.34   41.79
   3  -5  -2 3317.41   40.85
  -3  -5   3  299.91    6.02
   3  -5  -3  275.76    6.12
  -3   5  -3  288.53    6.56
   3  -5  -3  278.26    6.17
   3   5   3  275.00    6.22
   3  -5  -3  276.93    6.10
  -3  -5   3  277.14    6.31
   3   5   3  287.61    6.43
   3  -5  -3  279.63    5.80
   3  -5  -4  186.01    4.77
  -3   5  -4  189.76    5.26
   3  -5  -4  181.33    4.62
   3   5   4  189.11    4.97
  -3  -5   4  181.88    4.89
   3   5   4  177.06    5.00
   3  -5  -4  185.43    4.57
  -3   5  -5  165.64    4.95
   3   5   5  158.99    4.61
   3  -5  -5  165.38    4.41
   3   5   5  158.07    4.78
   3  -5  -5  163.02    4.33
  -3  -5   5  160.05    4.59
  -3   5  -6  540.52   10.16
   3  -5  -6  500.41    8.87
   3   5   6  493.19    9.41
   3   5   6  507.09    9.90
   3  -5  -6  521.57    9.24
  -3  -5   6  515.19    9.34
   3   5   6  492.04    8.70
   3  -5  -7  213.45    5.03
   3   5   7  210.93    5.56
   3  -5  -7  226.62    5.52
   3   5   7  204.56    5.85
  -3  -5   7  213.87    5.36
   3   5   7  198.87    5.01
   3  -5  -8  571.76    9.53
   3   5   8  562.68   10.53
   3  -5  -8  569.99   10.14
  -3  -5   8  567.15   10.00
   3   5   8  541.38    9.82
   3  -5  -9  361.98    7.06
   3   5   9  372.52    8.20
  -3   5  -9  383.05    8.68
  -3  -5   9  363.20    7.50
   3  -5  -9  381.75    7.94
  -3   5  -9  377.27    8.76
   3  -5 -10   78.66    2.85
   3   5  10   79.14    3.50
  -3  -5  10   83.33    3.74
  -3   5 -10   81.52    3.80
  -3  -5  10   79.61    3.11
  -3   5 -10   81.16    3.88
   3  -5 -10   93.44    3.66
   3   5  11 2075.58   29.43
  -3   5 -11 2134.01   30.27
   3  -5 -11 2166.37   29.30
  -3  -5  11 2124.76   27.86
   3  -5 -12   72.58    3.45
  -3   5 -12   34.10    4.00
   3  -5 -13  165.92    5.59
  -3   5 -13  166.06    6.73
   3  -5 -14   16.90    1.87
  -3   5 -14   18.96    2.23
   3  -5 -15   87.02    4.26
  -3   5 -15   85.07    4.43
   3  -5 -16   93.59    4.52
  -3   5 -16   94.54    4.80
   3  -5 -17   85.00    4.44
  -3   5 -17   79.23    4.57
   3  -5 -18   62.25    3.91
  -3   5 -18   56.88    3.95
   3  -5 -19  307.15    9.25
  -3   5 -19  292.85    9.52
   3  -5 -20   37.62    3.24
  -3   5 -20   37.23    3.39
  -3   5 -21  202.58    8.22
   3  -5 -21  214.97    7.95
  -3   5 -21  210.01    8.21
  -3   5 -22   29.44    3.21
   3  -5 -22   32.16    3.15
  -3   5 -22   32.44    3.32
  -3   5 -23   68.34    4.87
   3  -5 -23   69.16    4.63
  -3   5 -23   65.92    4.64
  -3   5 -24   64.91    4.72
   3  -5 -24   76.05    4.88
  -3   5 -24   63.33    4.57
  -3   5 -25  118.44    6.37
   3  -5 -25  114.11    5.98
   3  -5 -26   22.67    2.83
  -3   5 -26   24.95    3.09
   3   5  26   27.04    3.03
   3  -5 -27   43.19    3.72
  -3   5 -27   44.41    3.91
   3   5  27   44.01    3.83
   3  -5 -28   16.61    2.41
  -3   5 -28   14.22    2.41
   3   5  28   18.00    2.56
   3  -5 -29  184.23    7.20
  -3   5 -29  183.27    7.38
   3   5  29  189.82    7.46
   3  -5 -30   31.22    3.00
  -3   5 -30   30.29    3.04
   3   5  30   35.54    3.21
  -3  -6 -30    9.54    1.84
   3   6 -30   10.92    2.00
   3  -6  30   10.10    1.83
  -3  -6 -29  412.64   11.08
   3   6 -29  402.40   11.14
   3   6 -29  427.62   12.64
   3  -6  29  390.16   10.79
   3  -6  29  404.56   10.72
   3   6 -28   70.31    4.59
  -3  -6 -28   71.22    4.62
   3   6 -28   66.91    5.01
   3  -6  28   63.79    4.21
   3   6 -27   99.21    5.63
  -3  -6 -27   93.69    5.41
   3   6 -27   98.14    6.24
   3  -6  27   89.63    5.10
  -3  -6 -26   86.29    5.23
   3   6 -26   79.06    5.15
   3   6 -26   83.31    5.85
   3  -6  26   83.14    4.94
  -3  -6 -25  124.07    6.29
   3   6 -25  120.20    6.40
   3   6 -25  118.91    7.09
   3  -6  25  117.29    5.91
   3   6 -24    2.32    1.36
  -3  -6 -24    2.51    1.30
   3   6 -24    0.24    1.41
  -3  -6 -23   29.36    3.19
   3   6 -23   32.09    3.31
   3   6 -23   38.42    4.09
   3   6 -23   37.35    3.83
  -3  -6 -22   62.74    4.37
   3   6 -22   57.64    4.47
   3   6 -22   63.02    5.16
   3   6 -22   68.37    5.10
  -3  -6 -21  861.07   18.20
   3   6 -21  877.11   20.03
  -3  -6 -20   97.23    5.29
   3   6 -20  112.02    6.37
  -3  -6 -19   73.02    4.48
   3   6 -19   78.05    5.25
  -3  -6 -18  135.60    5.96
   3   6 -18  125.90    6.56
  -3  -6 -17  489.15   11.88
   3   6 -17  473.12   13.18
  -3  -6 -16   51.49    3.44
   3   6 -16   56.31    4.19
  -3  -6 -15  559.85   12.43
   3   6 -15  565.87   13.92
   3   6 -15  583.77   14.17
  -3  -6 -14   19.48    2.03
   3   6 -14   16.85    2.31
   3   6 -14   18.30    2.41
   3   6 -13 1487.85   22.27
  -3  -6 -13 1509.60   21.66
   3   6 -13 1537.38   25.50
   3   6 -13 1524.13   25.64
  -3  -6 -12  638.14   12.42
   3   6 -12  608.68   13.58
  -3  -6 -12  611.99   11.04
   3   6 -12  628.34   13.83
  -3  -6 -11  713.86   13.10
  -3   6  11  675.80   11.98
  -3  -6 -11  691.28   12.04
   3   6 -11  716.11   14.90
   3   6 -11  696.40   14.46
   3  -6  10    0.39    0.55
  -3   6  10    0.67    0.52
  -3  -6 -10    1.47    0.82
  -3  -6 -10    1.93    0.77
   3   6 -10    1.47    1.62
   3   6 -10    1.10    0.84
   3  -6  10    1.81    0.68
   3  -6   9 2512.33   35.17
  -3  -6  -9 2277.24   29.37
   3  -6   9 2544.33   32.67
   3   6  -9 2629.68   35.30
  -3   6   9 2718.03   30.91
  -3  -6  -9 2570.26   35.13
  -3   6   9 2621.45   32.88
  -3  -6  -9 2874.49   34.56
  -3  -6  -9 2683.10   33.41
   3  -6   9 2585.97   32.74
   3   6  -9 2676.73   35.77
  -3  -6  -8  457.37    6.83
   3  -6   8  502.17    8.45
   3   6  -8  510.85   10.31
   3  -6   8  472.41   10.20
  -3   6   8  506.33    7.72
  -3  -6  -8  515.92    9.50
  -3  -6  -8  519.41   10.39
  -3   6   8  506.04    8.84
  -3  -6  -8  499.27    9.16
   3  -6   8  492.10    8.56
   3   6  -8  481.29   10.40
  -3   6   7  928.22   13.43
   3  -6   7  962.00   16.22
  -3  -6  -7  897.55   12.89
   3  -6   7  901.93   13.57
   3   6  -7  952.44   15.84
  -3  -6  -7  943.39   14.85
  -3   6   7  908.31   14.34
  -3  -6  -7  921.13   14.82
   3   6  -7  912.92   16.18
   3  -6   7  906.76   13.84
   3  -6   7  909.32   14.57
  -3   6   6  902.41   13.28
   3  -6   6  898.46   12.89
  -3  -6  -6  845.65   12.85
   3   6  -6  922.68   15.30
  -3   6   6  887.11   14.02
  -3  -6  -6  895.26   14.29
  -3  -6  -6  883.31   14.51
   3   6  -6  929.72   16.01
   3  -6   6  888.81   14.04
   3  -6   6  896.82   13.28
   3  -6   5 1228.51   16.08
  -3   6   5 1210.32   17.06
  -3  -6  -5 1217.72   17.88
   3   6  -5 1216.78   17.85
  -3   6   5 1165.54   17.59
  -3  -6  -5 1222.24   18.24
   3  -6   5 1169.90   17.45
  -3   6   4    9.90    1.06
   3  -6   4   10.67    1.38
   3  -6   4   10.03    0.77
   3   6  -4   11.03    1.31
  -3  -6  -4    9.73    1.22
  -3   6   4   10.14    1.17
   3   6  -4   15.19    1.38
  -3  -6  -4    9.07    1.24
   3  -6   4   11.09    1.18
   3  -6   3 1526.95   21.92
  -3   6   3 1464.30   20.32
   3  -6   3 1468.22   17.96
   3   6  -3 1509.12   21.34
   3   6  -3 1514.39   20.84
  -3  -6  -3 1482.30   20.66
   3  -6   3 1469.15   22.22
  -3  -6  -3 1465.05   21.17
   3  -6   3 1454.74   20.17
   3  -6   2   61.98    3.19
   3   6  -2   67.64    2.89
  -3  -6  -2   66.83    2.82
  -3   6   2   64.82    2.74
   3  -6   2   70.65    3.19
   3  -6   2   63.21    1.37
   3   6  -2   67.07    2.96
   3  -6   2   67.23    2.64
   3  -6   1 2381.36   29.78
  -3   6   1 2288.35   30.22
   3  -6   1 2323.39   31.05
  -3  -6  -1 2350.23   30.47
   3   6  -1 2352.69   30.66
   3  -6   1 2341.24   31.52
   3   6  -1 2308.62   30.45
  -3  -6  -1 2340.55   30.22
   3  -6   0  300.40    6.25
  -3   6   0  291.05    6.61
   3  -6   0  298.69    7.17
  -3  -6   0  297.19    6.66
   3  -6   0  286.53    6.81
   3   6   0  304.38    6.76
  -3  -6   0  285.54    6.63
  -3  -6   0  289.33    6.81
   3   6   0  301.53    6.80
  -3  -6   1 2354.57   30.61
  -3   6  -1 2361.97   30.81
   3  -6  -1 2361.15   29.99
   3  -6  -1 2364.56   31.35
  -3  -6   1 2363.21   30.73
   3  -6  -1 2247.47   30.66
   3   6   1 2352.00   30.65
  -3  -6   1 2277.17   30.97
   3   6   1 2485.31   31.19
   3  -6  -1 2331.50   30.13
  -3   6  -2   73.57    3.15
  -3  -6   2   81.63    3.17
   3  -6  -2   83.87    3.04
  -3  -6   2   74.87    3.09
   3  -6  -2   72.68    3.02
   3   6   2   78.07    3.14
   3  -6  -2   74.69    3.25
  -3  -6   2   73.51    3.20
   3   6   2   74.89    3.20
   3  -6  -2   71.99    2.88
  -3   6  -3 1484.11   21.59
  -3  -6   3 1503.39   20.92
   3  -6  -3 1481.83   21.45
  -3  -6   3 1490.02   21.25
   3   6   3 1516.17   21.20
   3  -6  -3 1503.09   20.90
  -3  -6   3 1512.35   21.56
   3   6   3 1505.28   21.62
   3  -6  -3 1482.38   20.73
  -3   6  -4    7.96    1.17
   3  -6  -4    8.22    1.22
  -3  -6   4    8.19    1.14
  -3  -6   4    9.73    1.20
   3  -6  -4    7.44    0.99
  -3  -6   4    9.28    1.22
   3   6   4    9.20    1.24
   3  -6  -4    9.05    1.15
  -3   6  -5 1235.35   18.59
  -3  -6   5 1186.79   17.97
   3   6   5 1195.38   17.79
   3  -6  -5 1183.71   17.02
   3  -6  -5 1192.33   17.65
  -3  -6   5 1138.97   17.08
   3   6   5 1163.34   18.39
   3  -6  -5 1201.08   17.47
  -3  -6   5 1160.39   17.79
  -3   6  -6  878.49   15.02
  -3  -6   6  881.15   14.63
  -3  -6   6  874.06   13.83
   3   6   6  887.07   14.41
   3  -6  -6  894.09   14.11
   3   6   6  874.28   15.06
   3  -6  -6  881.71   14.05
  -3  -6   6  889.09   14.42
   3   6   6  886.64   13.21
   3   6   7  951.28   15.21
   3  -6  -7  932.89   14.60
  -3  -6   7  942.40   15.46
  -3  -6   7  915.17   14.46
  -3   6  -7  961.59   15.97
   3  -6  -7  923.17   14.80
   3   6   7  918.74   15.87
  -3  -6   7  951.29   14.99
   3   6   7  898.41   13.86
   3  -6  -8  492.89    9.23
   3   6   8  469.56    9.69
  -3  -6   8  484.26   10.10
  -3  -6   8  510.52    9.37
   3  -6  -8  499.57    9.75
  -3  -6   8  489.35    9.52
   3   6   8  461.67    8.85
  -3  -6   9 2552.05   34.91
   3  -6  -9 2578.45   33.25
   3   6   9 2577.12   34.46
  -3  -6   9 2602.00   33.75
   3   6   9 2521.22   33.24
   3   6  10    0.74    0.62
   3  -6 -10    1.50    0.64
   3  -6 -10    1.80    0.84
  -3  -6  10    1.97    0.77
   3   6  10    2.12    0.75
   3  -6 -11  664.59   11.39
   3  -6 -11  686.47   12.81
  -3  -6  11  678.13   11.77
   3   6  11  649.47   11.87
   3  -6 -12  575.22   10.34
   3  -6 -12  603.81   12.03
   3  -6 -13 1570.65   22.10
  -3   6 -13  938.27   24.17
   3  -6 -14   19.68    2.11
  -3   6 -14   22.79    2.78
   3  -6 -15  550.84   12.33
  -3   6 -15  589.36   13.68
   3  -6 -16   52.96    3.55
  -3   6 -16   55.13    3.84
   3  -6 -17  447.00   11.21
  -3   6 -17  426.94   11.61
   3  -6 -18  127.98    5.78
  -3   6 -18  125.19    6.08
   3  -6 -19   80.07    4.66
  -3   6 -19   74.12    4.74
   3  -6 -20   93.51    5.13
  -3   6 -20   85.40    5.21
   3  -6 -21  878.25   18.29
  -3   6 -21  873.23   18.99
   3  -6 -22   56.02    4.19
  -3   6 -22   61.95    4.59
  -3   6 -22   69.32    4.77
   3  -6 -23   42.33    3.67
  -3   6 -23   43.71    3.85
  -3   6 -23   40.26    3.77
   3  -6 -24    1.77    1.34
  -3   6 -24    1.97    1.34
  -3   6 -24    1.68    1.29
   3   6  24    2.07    1.28
   3  -6 -25  111.34    5.90
  -3   6 -25  117.56    6.34
  -3   6 -25  114.70    6.06
   3   6  25  121.44    6.10
   3  -6 -26   83.34    5.10
  -3   6 -26   85.04    5.37
   3   6  26   81.09    4.98
   3  -6 -27   90.66    5.25
  -3   6 -27   98.39    5.66
   3   6  27  103.90    5.58
   3  -6 -28   69.54    4.55
  -3   6 -28   69.12    4.60
   3   6  28   77.16    4.67
   3  -6 -29  393.78   10.78
  -3   6 -29  392.16   11.05
   3   6  29  420.76   11.08
   3  -6 -30    8.72    1.76
  -3   6 -30    9.19    1.87
   3   7 -30    1.02    1.19
  -3  -7 -29  151.52    6.18
   3   7 -29  144.19    6.24
   3   7 -29  154.94    7.14
  -3  -7 -28   45.98    3.59
   3   7 -28   47.35    3.78
   3   7 -28   52.35    4.43
   3  -7  28   47.44    3.60
  -3  -7 -27  101.95    5.45
   3   7 -27  107.47    5.77
   3   7 -27  108.45    6.43
   3  -7  27  100.94    5.12
   3  -7  27   94.25    5.16
  -3  -7 -26  314.06   10.08
   3   7 -26  316.62   10.44
   3   7 -26  310.77   11.42
   3  -7  26  290.74    9.21
  -3  -7 -25   58.46    4.06
  -3  -7 -25   68.08    4.67
   3   7 -25   61.58    4.55
   3   7 -25   64.49    5.22
   3  -7  25   58.32    4.10
  -3  -7 -24   56.72    4.35
   3   7 -24   48.43    4.08
   3   7 -24   51.47    4.72
   3  -7  24   49.77    3.80
   3   7 -23   14.24    2.39
  -3  -7 -23   17.52    2.47
   3   7 -23   18.29    2.94
   3  -7  23   15.59    2.26
   3   7 -23   16.33    2.72
  -3  -7 -22   90.42    5.33
   3  -7  22   86.41    4.91
   3   7 -22   91.17    5.83
  -3  -7 -21   23.57    2.83
   3   7 -21   25.67    3.26
   3  -7  21   25.28    2.59
  -3  -7 -20    4.04    1.39
   3   7 -20    6.54    1.78
  -3  -7 -19  141.45    6.42
   3   7 -19  138.13    7.11
  -3  -7 -18   98.78    5.25
   3   7 -18  105.38    6.09
  -3  -7 -17  552.93   13.17
   3   7 -17  545.31   14.58
  -3  -7 -16  163.91    6.47
   3   7 -16  150.72    7.09
   3   7 -16  158.63    7.23
  -3  -7 -15  149.47    6.06
   3   7 -15  140.63    6.69
   3   7 -15  151.36    6.91
  -3  -7 -14   44.76    3.19
   3   7 -14   45.85    3.70
   3   7 -14   41.04    3.49
   3  -7  14   39.20    2.71
  -3  -7 -13   17.94    2.08
   3   7 -13   18.77    2.48
  -3  -7 -13   17.60    1.71
   3  -7  13   16.32    1.76
   3   7 -13   17.62    2.36
  -3  -7 -12  113.43    4.89
   3   7 -12  114.18    5.73
  -3  -7 -12  102.21    4.09
   3   7 -12  105.49    5.33
   3  -7  12  106.86    4.16
   3  -7  11  358.79    8.28
  -3  -7 -11  392.67    9.39
   3   7 -11  398.77   11.57
  -3  -7 -11  384.07    8.61
   3  -7  11  382.59    8.37
   3   7 -11  377.52   10.38
   3  -7  10    7.95    1.13
  -3   7  10    8.00    1.19
  -3  -7 -10   10.56    1.48
  -3  -7 -10   10.18    1.42
   3  -7  10   11.01    1.44
   3   7 -10   11.01    1.78
   3  -7  10   10.52    1.19
   3  -7   9  163.88    4.71
  -3   7   9  174.48    5.33
  -3  -7  -9  176.59    5.62
  -3  -7  -9  177.23    5.48
   3   7  -9  183.36    6.53
   3  -7   9  174.43    4.85
   3  -7   9  184.81    5.42
  -3  -7  -8   13.96    0.94
   3  -7   8   17.18    1.41
  -3  -7  -8   14.57    0.92
  -3  -7  -8   18.84    1.84
  -3   7   8   17.49    1.67
  -3  -7  -8   17.46    1.76
   3  -7   8   16.41    1.59
   3   7  -8   16.34    2.02
   3  -7   8   16.86    1.44
  -3   7   7  250.84    5.49
  -3  -7  -7  251.08    5.15
   3  -7   7  249.61    5.50
   3   7  -7  247.36    7.14
  -3  -7  -7  263.54    6.80
  -3   7   7  255.53    6.57
  -3  -7  -7  245.79    6.69
   3   7  -7  266.54    7.82
   3  -7   7  252.67    6.23
   3  -7   7  244.33    5.58
  -3   7   6   61.41    2.55
   3  -7   6   56.37    3.28
   3  -7   6   62.41    2.31
   3   7  -6   59.44    3.24
  -3   7   6   64.77    3.07
   3  -7   6   66.70    3.79
  -3  -7  -6   64.24    3.11
  -3  -7  -6   64.44    3.21
   3  -7   6   60.42    2.76
   3  -7   6   62.17    2.44
  -3   7   5  688.98   11.29
   3  -7   5  656.47   13.04
   3  -7   5  672.06    9.99
   3   7  -5  687.31   12.79
   3   7  -5  720.86   12.52
  -3  -7  -5  706.89   12.34
  -3   7   5  675.24   12.12
  -3  -7  -5  690.11   12.53
   3  -7   5  675.58   11.47
  -3   7   4   63.54    2.73
   3  -7   4   57.64    3.20
   3  -7   4   61.93    1.90
   3   7  -4   60.99    3.11
  -3   7   4   59.63    2.91
   3   7  -4   63.07    3.04
  -3  -7  -4   67.09    3.07
  -3  -7  -4   61.37    3.11
   3  -7   4   63.03    2.68
  -3   7   3  417.21    8.17
   3  -7   3  402.56    9.15
   3  -7   3  393.42    5.76
   3   7  -3  423.83    8.92
   3   7  -3  415.33    8.69
   3  -7   3  403.31    9.53
  -3   7   3  388.75    8.41
  -3  -7  -3  405.31    8.52
  -3  -7  -3  405.69    8.86
   3  -7   3  399.86    7.73
  -3   7   2   51.57    2.49
   3  -7   2   38.63    2.02
   3  -7   2   27.21    0.66
   3  -7   2   44.61    2.66
   3   7  -2   41.43    2.43
  -3  -7  -2   41.25    2.50
   3  -7   2   38.92    2.70
   3   7  -2   55.20    2.79
  -3  -7  -2   41.02    2.39
  -3   7   1  641.77   11.42
   3  -7   1  657.98   10.89
   3  -7   1  686.67   12.42
   3   7  -1  666.32   11.87
   3  -7   1  666.30   12.76
  -3  -7  -1  659.40   12.01
   3   7  -1  656.16   11.94
  -3   7   0  140.41    4.53
   3  -7   0  140.58    4.06
  -3  -7   0  141.41    4.71
   3  -7   0  143.11    4.80
  -3  -7   0  151.80    4.70
   3   7   0  143.85    4.61
   3  -7   0  145.90    5.11
  -3  -7   0  147.59    4.93
   3   7   0  149.47    4.85
  -3   7  -1  637.49   11.66
   3   7   1  641.33   11.62
  -3  -7   1  681.11   12.00
   3  -7  -1  655.31   10.84
   3  -7  -1  648.65   12.36
  -3  -7   1  666.68   11.75
   3  -7  -1  659.70   11.86
  -3  -7   1  645.81   12.04
   3   7   1  643.68   12.08
  -3   7  -2   42.01    2.49
  -3  -7   2   39.85    2.40
   3  -7  -2   43.47    2.44
  -3  -7   2   38.85    2.34
   3   7   2   40.36    2.36
   3  -7  -2   41.23    2.62
  -3  -7   2   38.69    2.51
   3   7   2   40.84    2.54
   3  -7  -2   41.87    2.40
  -3   7  -3  408.55    9.00
   3   7   3  410.01    8.65
  -3  -7   3  406.77    8.74
   3  -7  -3  424.52    9.15
   3  -7  -3  427.62    8.61
  -3  -7   3  413.20    8.73
  -3  -7   3  439.47    9.21
   3   7   3  417.04    9.18
   3  -7  -3  420.34    8.63
   3  -7  -4   63.71    3.16
   3   7   4   63.91    3.00
  -3  -7   4   65.30    3.12
   3  -7  -4   65.00    2.87
  -3  -7   4   57.76    2.90
  -3   7  -4   59.59    3.12
  -3  -7   4   65.45    3.21
   3   7   4   60.78    3.21
   3  -7  -4   62.69    2.97
  -3  -7   5  669.23   11.99
   3   7   5  679.80   12.18
  -3  -7   5  695.81   12.49
   3  -7  -5  672.37   11.43
   3  -7  -5  685.69   12.38
  -3   7  -5  669.63   12.77
  -3  -7   5  718.67   12.65
   3   7   5  654.44   12.82
   3  -7  -5  676.72   12.07
  -3  -7   6   64.42    3.21
  -3  -7   6   61.85    2.96
   3  -7  -6   62.69    3.12
   3   7   6   59.80    3.00
  -3   7  -6   61.78    3.34
  -3  -7   6   63.02    3.15
   3   7   6   59.21    3.30
   3  -7  -6   61.76    3.03
  -3  -7   7  248.04    6.84
   3  -7  -7  250.21    6.54
   3   7   7  248.74    6.64
  -3  -7   7  249.69    6.44
  -3  -7   7  263.36    6.79
   3   7   7  239.16    7.17
   3  -7  -7  251.25    6.61
   3  -7  -8   18.64    1.76
   3   7   8   19.54    1.80
  -3  -7   8   17.14    1.66
  -3  -7   8   17.66    1.76
   3  -7  -8   16.84    1.72
   3  -7  -9  172.27    5.27
  -3  -7   9  171.81    5.35
   3  -7  -9  184.67    5.72
  -3  -7   9  181.55    5.55
   3  -7 -10   11.21    1.47
   3  -7 -10    6.55    1.17
  -3  -7  10    8.56    1.33
   3   7  10    7.79    1.10
   3  -7 -11  355.10    8.05
   3  -7 -11  364.39    8.99
   3   7  11  339.50    7.85
   3  -7 -12  111.45    4.15
   3  -7 -12  121.46    5.03
  -3  -7  12  116.23    4.31
   3   7  12  104.24    4.12
   3  -7 -13    8.46    1.25
   3  -7 -13   11.96    1.77
   3   7  13   10.35    1.46
   3  -7 -14   47.46    3.28
  -3   7 -14   45.22    4.71
   3   7  14   46.49    2.90
   3  -7 -15  152.07    6.09
  -3   7 -15  152.49    7.08
   3   7  15  132.56    5.14
   3  -7 -16  164.06    6.47
  -3   7 -16  165.06    7.11
   3   7  16  153.54    5.74
   3  -7 -17  542.99   12.93
  -3   7 -17  508.04   13.25
   3   7  17  516.47   11.76
   3  -7 -18   98.91    5.22
  -3   7 -18   91.28    5.36
   3   7  18   96.93    4.74
   3  -7 -19  145.02    6.50
  -3   7 -19  139.19    6.74
   3   7  19  147.61    6.06
   3  -7 -20    5.33    1.54
  -3   7 -20    3.58    1.58
   3   7  20    4.54    1.33
   3  -7 -21   18.66    2.51
  -3   7 -21   14.42    2.53
   3   7  21   19.50    2.33
   3  -7 -22   90.58    5.26
  -3   7 -22   78.60    5.23
   3   7  22   83.02    4.85
   3  -7 -23   22.84    2.77
  -3   7 -23   18.41    2.65
  -3   7 -23   22.04    2.87
   3   7  23   19.90    2.52
   3  -7 -24   53.21    4.13
  -3   7 -24   44.39    3.99
  -3   7 -24   46.17    4.04
   3   7  24   56.50    4.06
   3  -7 -25   64.33    4.52
  -3   7 -25   57.38    4.48
  -3   7 -25   50.18    4.13
   3   7  25   54.01    4.07
   3  -7 -26  326.00   10.24
  -3   7 -26  309.87   10.43
   3   7  26  325.23    9.94
   3  -7 -27   94.17    5.19
  -3   7 -27   95.18    5.44
   3   7  27   97.36    5.17
   3  -7 -28   46.27    3.56
  -3   7 -28   49.98    3.87
   3  -7 -29  138.54    5.89
  -3   7 -29  149.03    6.31
   3   8 -29  209.78    8.13
  -3  -8 -28   41.89    3.37
   3   8 -28   42.19    3.51
   3   8 -28   45.24    3.96
  -3  -8 -27   45.81    3.51
   3   8 -27   52.14    3.91
   3   8 -27   47.57    4.31
  -3  -8 -26   42.74    3.56
   3   8 -26   42.44    3.66
   3   8 -26   40.55    4.14
  -3  -8 -25   91.75    4.99
  -3  -8 -25  107.79    5.66
   3   8 -25  102.02    5.81
   3   8 -25  117.08    6.89
   3  -8  25  101.21    5.33
  -3  -8 -24   29.01    3.02
  -3  -8 -24   31.70    3.17
   3   8 -24   32.32    3.38
   3   8 -24   29.48    3.71
   3  -8  24   25.18    2.84
   3  -8  24   24.85    2.69
   3   8 -24   24.66    3.11
  -3  -8 -23   34.76    3.36
  -3  -8 -23   34.05    3.25
   3  -8  23   32.30    3.04
   3   8 -23   31.29    3.54
  -3  -8 -22  121.91    6.22
  -3  -8 -22  112.55    5.86
   3   8 -22  118.60    6.69
   3  -8  22  112.90    5.42
  -3  -8 -21  316.95   10.28
   3   8 -21  320.27   11.20
   3  -8  21  308.05    9.27
  -3  -8 -20   21.92    2.68
   3   8 -20   21.08    3.00
   3  -8  20   22.23    2.45
  -3  -8 -19  146.61    6.65
   3   8 -19  138.44    7.16
  -3  -8 -18   16.74    2.36
   3  -8  18   17.48    2.04
   3   8 -18   14.91    2.71
  -3  -8 -17  681.23   15.32
   3   8 -17  639.22   16.65
   3  -8  17  669.30   13.77
   3   8 -17  677.86   16.77
  -3  -8 -16  390.56   10.85
   3   8 -16  403.17   12.45
   3  -8  16  402.29    9.81
   3   8 -16  400.16   12.21
  -3  -8 -15  643.67   14.19
   3   8 -15  599.58   15.33
   3   8 -15  650.15   15.78
   3  -8  15  604.65   12.43
  -3  -8 -14    9.46    1.77
  -3  -8 -14    9.03    1.42
   3   8 -14    8.87    2.20
   3  -8  14    9.94    1.48
   3   8 -14    9.92    2.03
  -3  -8 -13  744.40   15.11
   3   8 -13  788.37   17.50
  -3  -8 -13  727.56   13.66
   3  -8  13  731.54   14.15
   3   8 -13  730.00   16.54
   3  -8  13  734.87   13.38
  -3  -8 -12   45.41    3.17
   3   8 -12   52.13    4.43
  -3  -8 -12   42.38    2.81
   3  -8  12   47.32    2.96
   3  -8  12   42.51    2.59
   3   8 -12   45.17    3.64
  -3  -8 -11  496.93   11.29
  -3  -8 -11  494.88   10.70
   3   8 -11  494.98   14.89
   3   8 -11  512.67   12.75
   3  -8  11  502.51   10.58
   3  -8  11  486.28    9.67
  -3  -8 -10  137.42    5.31
  -3  -8 -10  129.93    4.97
   3  -8  10  132.98    4.74
   3   8 -10  129.74    5.90
  -3  -8  -9 1228.28   20.13
  -3   8   9 1241.00   19.87
  -3  -8  -9 1274.74   20.08
   3   8  -9 1216.40   21.79
   3  -8   9 1261.44   19.02
   3  -8   8  331.51    6.98
  -3  -8  -8  352.17    8.70
  -3   8   8  340.32    8.45
  -3  -8  -8  363.49    8.74
   3   8  -8  359.40    9.88
   3  -8   8  341.79    7.72
  -3  -8  -7  986.55   14.33
   3  -8   7 1062.49   15.22
  -3  -8  -7 1134.57   18.05
   3   8  -7 1064.61   17.80
  -3   8   7 1058.61   17.60
  -3  -8  -7 1102.25   18.03
   3   8  -7 1124.74   19.85
   3  -8   7 1075.74   16.39
   3  -8   6   23.88    1.42
  -3  -8  -6   23.27    1.46
   3  -8   6   29.22    2.69
   3   8  -6   25.73    2.21
  -3  -8  -6   24.56    2.10
  -3  -8  -6   23.10    2.15
   3  -8   6   25.60    1.82
  -3  -8  -5  912.85   16.14
   3  -8   5  861.98   12.32
  -3  -8  -5  891.45   13.57
  -3   8   5  922.66   14.31
  -3   8   5  891.81   15.42
  -3  -8  -5  926.73   15.59
   3   8  -5  914.48   15.77
  -3  -8  -5  935.84   16.02
   3  -8   5  921.29   14.08
   3  -8   4  184.25    6.21
   3  -8   4  173.19    3.48
   3   8  -4  197.15    6.05
  -3  -8  -4  184.01    6.00
  -3  -8  -4  184.16    4.83
  -3   8   4  185.99    5.15
  -3   8   4  175.65    5.55
   3   8  -4  179.23    5.77
  -3  -8  -4  188.22    5.76
  -3  -8  -4  198.01    6.11
   3  -8   4  187.19    4.86
   3  -8   3  913.95   13.48
   3  -8   3  792.46   10.51
   3  -8   3  915.34   15.95
   3   8  -3  922.20   15.32
  -3   8   3  909.96   14.32
  -3  -8  -3  917.62   15.56
  -3  -8  -3  945.00   15.73
  -3  -8  -3  929.62   15.25
  -3   8   3  823.11   14.52
   3   8  -3  891.44   15.23
  -3  -8  -2   19.13    1.87
   3  -8   2   18.47    1.46
   3   8  -2   20.40    1.84
   3  -8   2   17.11    1.84
  -3   8   2   15.37    1.53
   3  -8   2   19.43    2.13
   3   8  -2   16.75    1.77
  -3  -8  -2   22.43    1.95
  -3  -8  -1  118.41    4.56
   3  -8   1  114.72    3.60
   3  -8   1  110.27    4.83
   3  -8   1  122.33    4.71
   3   8  -1  107.48    4.20
  -3   8   1  112.99    4.16
   3   8  -1  121.02    4.62
  -3  -8   0   44.31    2.78
   3  -8   0   39.55    2.07
   3  -8   0   41.38    2.66
   3   8   0   40.63    2.51
  -3  -8   0   40.33    2.48
   3  -8   0   40.86    2.90
  -3   8   0   39.50    2.46
  -3  -8   0   40.90    2.74
   3   8   0   39.94    2.67
   3  -8  -1  113.00    4.74
  -3  -8   1  102.65    4.05
  -3  -8   1  108.99    4.35
   3  -8  -1  103.98    4.18
   3   8   1  103.48    4.07
  -3   8  -1  102.55    4.11
  -3  -8   1  113.04    4.50
   3   8   1  110.29    4.51
  -3  -8   2   14.93    1.57
  -3  -8   2   14.80    1.71
   3  -8  -2   14.37    1.56
   3   8   2   14.03    1.53
   3  -8  -2   15.89    1.83
  -3   8  -2   15.22    1.67
  -3  -8   2   16.10    1.80
   3   8   2   14.98    1.70
   3  -8  -2   16.77    1.68
  -3  -8   3  935.27   15.65
   3  -8  -3  911.45   15.20
   3   8   3  887.47   15.24
  -3  -8   3  943.09   15.89
   3  -8  -3  916.24   16.20
  -3   8  -3  896.54   15.80
  -3  -8   3  952.18   16.19
   3   8   3  949.09   16.43
   3  -8  -3  925.24   15.57
   3  -8  -4  179.17    5.90
   3   8   4  186.29    5.61
  -3  -8   4  176.57    5.63
   3  -8  -4  176.96    5.26
  -3   8  -4  177.56    5.86
  -3  -8   4  178.35    5.66
  -3  -8   4  185.57    5.97
   3  -8  -4  178.40    5.58
  -3  -8   5  935.79   15.79
   3   8   5  945.51   15.67
   3  -8  -5  874.90   14.52
   3  -8  -5  923.89   16.06
  -3  -8   5  928.02   16.11
   3  -8  -5  933.40   15.71
   3   8   6   23.95    2.06
   3  -8  -6   24.16    2.12
  -3  -8   6   23.66    2.06
  -3  -8   6   28.53    2.33
   3  -8  -6   26.48    2.14
  -3  -8   7 1097.45   17.99
   3  -8  -7 1117.98   18.24
  -3  -8   7 1113.24   18.35
   3  -8  -7 1091.75   18.05
   3  -8  -8  325.33    8.16
  -3  -8   8  320.24    8.17
  -3  -8   8  347.05    8.46
   3  -8  -8  317.26    8.17
  -3  -8   9 1252.08   19.88
   3  -8  -9 1213.77   19.51
  -3  -8   9 1229.25   19.72
   3  -8  -9 1202.18   19.95
   3  -8 -10  133.49    4.92
  -3  -8  10  130.91    4.97
  -3  -8  10  126.27    4.92
   3  -8 -10  131.26    5.16
   3  -8 -11  493.38   10.51
  -3  -8  11  485.08   10.51
   3  -8 -11  503.71   11.27
   3  -8 -12   40.44    2.71
  -3  -8  12   37.33    2.66
   3  -8 -12   41.37    3.00
   3  -8 -13  757.76   13.85
   3  -8 -13  752.25   15.19
   3  -8 -14    7.78    1.69
  -3   8 -14   11.43    4.02
   3  -8 -15  649.74   14.36
  -3   8 -15  629.48   16.96
   3  -8 -16  388.90   10.82
  -3   8 -16  403.52   12.19
   3  -8 -17  687.92   15.40
  -3   8 -17  671.67   16.14
   3  -8 -18   15.70    2.24
  -3   8 -18   11.90    2.34
   3  -8 -19  122.30    6.12
  -3   8 -19  134.74    6.74
   3  -8 -20   16.73    2.45
  -3   8 -20   13.96    2.53
   3  -8 -21  311.83   10.16
  -3   8 -21  307.20   10.63
   3  -8 -22  121.57    6.16
  -3   8 -22  118.88    6.46
   3  -8 -23   24.19    2.83
  -3   8 -23   17.80    2.76
   3  -8 -24   37.10    3.39
  -3   8 -24   28.03    3.23
  -3   8 -24   28.13    3.20
   3  -8 -25  108.66    5.66
  -3   8 -25  100.77    5.77
  -3   8 -25  101.57    5.74
   3  -8 -26   39.27    3.44
  -3   8 -26   38.45    3.55
   3  -8 -27   45.24    3.49
  -3   8 -27   52.44    3.97
   3  -8 -28   40.03    3.30
  -3   8 -28   39.97    3.44
  -3  -9 -28   68.08    3.95
   3   9 -28   65.63    4.08
   3   9 -28   69.50    4.71
  -3  -9 -27   30.09    2.92
   3   9 -27   32.28    3.11
   3   9 -27   33.58    3.55
  -3  -9 -26   99.64    5.19
   3   9 -26   97.24    5.39
   3   9 -26   97.43    5.99
  -3  -9 -25  222.99    8.16
   3   9 -25  226.03    8.60
   3   9 -25  220.91    9.42
  -3  -9 -24   41.03    3.52
   3   9 -24   34.30    3.41
  -3  -9 -24   35.16    3.23
   3   9 -24   35.20    3.60
  -3  -9 -23   51.41    3.97
  -3  -9 -23   49.48    3.87
   3   9 -23   43.65    4.02
  -3  -9 -22   14.14    2.29
  -3  -9 -22   17.58    2.43
   3  -9  22   13.12    2.03
   3   9 -22   13.47    2.51
  -3  -9 -21   65.11    4.51
  -3  -9 -21   66.87    4.60
   3   9 -21   75.71    5.31
   3  -9  21   62.31    4.12
  -3  -9 -20   10.20    2.17
  -3  -9 -20    9.86    2.06
   3  -9  20    7.43    1.65
   3   9 -20    8.54    2.14
  -3  -9 -19  140.21    6.53
  -3  -9 -19  136.91    6.52
   3  -9  19  130.13    5.79
   3   9 -19  132.98    7.07
  -3  -9 -18  466.74   12.72
  -3  -9 -18  470.27   12.58
   3   9 -18  467.39   14.32
   3  -9  18  466.76   11.57
   3   9 -18  485.68   14.08
  -3  -9 -17  290.25    9.71
  -3  -9 -17  290.75    9.49
   3   9 -17  318.41   11.27
   3  -9  17  296.64    8.72
   3   9 -17  303.93   10.84
  -3  -9 -16   30.88    3.16
  -3  -9 -16   32.23    3.09
   3   9 -16   29.59    3.49
   3  -9  16   34.06    2.81
   3   9 -16   31.84    3.47
  -3  -9 -15  501.63   12.60
   3   9 -15  512.32   14.47
   3   9 -15  506.17   14.00
   3  -9  15  494.86   11.38
  -3  -9 -14   71.61    4.36
  -3  -9 -14   73.86    3.84
   3   9 -14   72.09    4.92
   3  -9  14   70.74    3.82
  -3  -9 -13   38.23    3.15
   3   9 -13   45.82    4.39
  -3  -9 -13   39.41    2.90
   3   9 -13   43.87    3.78
   3  -9  13   40.64    2.85
  -3  -9 -12  341.72    9.67
  -3  -9 -12  344.70    9.10
   3   9 -12  359.36   10.97
   3  -9  12  363.78    8.76
   3  -9  11    2.00    0.90
  -3  -9 -11    2.90    1.21
  -3  -9 -11    0.93    0.97
   3   9 -11    2.02    1.31
  -3  -9 -10   47.17    3.33
  -3  -9 -10   50.28    3.27
   3  -9  10   48.30    2.79
   3   9 -10   46.68    3.72
  -3  -9  -9  591.22   12.71
  -3  -9  -9  588.73   12.53
   3   9  -9  577.07   13.91
  -3  -9  -8   37.67    3.08
  -3  -9  -8   37.19    2.86
  -3  -9  -8   36.09    2.83
   3   9  -8   46.12    3.59
  -3  -9  -7  656.34   14.12
  -3  -9  -7  674.63   13.69
   3   9  -7  706.84   15.41
   3  -9   7  661.83   15.11
  -3  -9  -7  668.07   13.52
  -3  -9  -6   63.72    3.79
  -3  -9  -6   65.78    3.73
  -3  -9  -6   67.66    3.66
   3  -9   6   65.71    4.22
  -3  -9  -5  478.73   11.16
  -3  -9  -5  461.88    8.73
  -3  -9  -5  499.33   11.13
  -3  -9  -5  488.19   10.80
  -3  -9  -4   63.64    2.86
  -3  -9  -4   66.88    3.75
  -3  -9  -4   70.16    3.82
  -3  -9  -4   73.36    3.76
  -3  -9  -3  931.78   16.72
  -3  -9  -3  896.56   14.64
  -3  -9  -3  922.31   16.63
  -3  -9  -3  894.46   16.14
  -3  -9  -2  375.65    9.39
  -3  -9  -2  363.54    8.11
   3  -9   2  376.65   10.12
  -3  -9  -1   94.72    4.40
   3  -9   1   97.06    4.79
  -3  -9  -1  101.10    3.98
  -3  -9   0    1.02    0.66
   3  -9   0   -0.22    0.67
  -3  -9   0    2.62    1.13
  -3  -9   0    1.01    0.86
   3  -9   0   -0.13    0.91
   3  -9  -1   86.15    4.43
  -3  -9   1   89.29    4.25
   3  -9  -1   82.10    3.92
  -3  -9   1   90.24    3.94
  -3  -9   1   88.46    4.33
   3  -9  -2  364.04    8.80
  -3  -9   2  391.02    9.53
   3  -9  -2  383.77    9.87
  -3  -9   2  392.31    9.64
   3  -9  -3  923.54   16.96
   3  -9  -3  880.51   15.49
  -3  -9   3  930.84   16.55
  -3  -9   3  918.09   16.66
   3  -9  -3  916.82   16.18
   3  -9  -4   65.27    3.78
  -3  -9   4   67.58    3.66
   3  -9  -4   60.88    3.13
  -3  -9   4   73.71    3.89
   3  -9  -4   63.53    3.47
   3  -9  -5  478.23   11.04
  -3  -9   5  493.97   10.92
   3  -9  -5  469.10    9.58
  -3  -9   5  477.38   10.97
   3  -9  -5  485.98   10.75
  -3  -9   6   66.44    3.67
   3  -9  -6   71.07    3.86
  -3  -9   6   70.71    3.85
   3  -9  -6   71.92    3.73
  -3  -9   7  687.49   13.52
   3  -9  -7  655.19   13.37
  -3  -9   7  665.62   13.45
   3  -9  -7  637.09   13.07
   3  -9  -8   40.70    2.92
  -3  -9   8   41.54    2.96
  -3  -9   8   40.07    2.94
   3  -9  -8   38.05    2.84
  -3  -9   9  568.05   12.33
   3  -9  -9  584.05   12.33
  -3  -9   9  565.68   12.21
   3  -9  -9  569.36   12.35
   3  -9 -10   45.10    3.07
  -3  -9  10   44.68    3.09
  -3  -9  10   40.30    2.99
   3  -9 -10   42.51    3.09
  -3  -9  11    4.16    1.31
   3  -9 -11    2.31    1.06
   3  -9 -11    5.42    1.42
   3  -9 -12  330.69    8.76
  -3  -9  12  340.66    8.88
   3  -9 -12  339.42    9.49
   3  -9 -13   36.83    2.84
  -3  -9  13   35.51    2.79
   3  -9 -13   38.45    3.14
   3  -9 -14   77.52    3.95
   3  -9 -14   80.68    4.56
   3  -9 -15  518.23   12.77
  -3   9 -15  495.76   16.18
   3  -9 -16   30.33    3.03
  -3   9 -16   36.30    4.15
   3  -9 -17  313.97    9.81
  -3   9 -17  293.03   10.45
   3  -9 -18  476.65   12.67
  -3   9 -18  471.24   13.45
   3  -9 -19  126.45    6.16
  -3   9 -19  132.03    6.83
   3  -9 -20    9.79    2.04
  -3   9 -20   14.14    2.50
   3  -9 -21   61.39    4.32
  -3   9 -21   56.31    4.60
   3  -9 -22   15.82    2.28
  -3   9 -22   10.18    2.27
   3  -9 -23   44.56    3.67
  -3   9 -23   35.07    3.68
   3  -9 -24   39.17    3.41
  -3   9 -24   38.92    3.61
  -3   9 -24   34.69    3.51
   3  -9 -25  221.23    8.02
  -3   9 -25  214.98    8.41
  -3   9 -25  199.16    7.96
   3  -9 -26  106.60    5.38
  -3   9 -26  110.28    5.76
   3  -9 -27   24.98    2.63
  -3   9 -27   24.31    2.80
   3  -9 -28   61.59    3.77
  -3   9 -28   73.75    4.31
   3  10 -27  131.80    5.81
  -3 -10 -27  132.33    5.58
   3  10 -27  145.10    6.77
   3  10 -26   72.61    4.52
  -3 -10 -26   69.90    4.24
   3  10 -26   84.23    5.38
   3  10 -25   83.94    5.00
  -3 -10 -25   85.03    4.78
  -3 -10 -24    0.89    1.13
   3  10 -24    4.45    1.49
  -3 -10 -24    1.76    1.22
   3  10 -24    1.39    1.26
  -3 -10 -23   39.91    3.54
  -3 -10 -23   38.06    3.42
   3  10 -23   41.50    3.87
  -3 -10 -22   45.53    3.71
  -3 -10 -22   41.22    3.62
   3  10 -22   41.95    3.94
  -3 -10 -21   70.33    4.73
  -3 -10 -21   72.82    4.76
   3  10 -21   71.99    5.16
  -3 -10 -20   11.21    2.13
  -3 -10 -20   10.84    2.22
   3  10 -20   12.90    2.49
  -3 -10 -19  177.69    7.59
  -3 -10 -19  175.57    7.49
   3  10 -19  179.15    8.74
   3  10 -19  171.79    8.14
  -3 -10 -18   25.01    3.02
  -3 -10 -18   24.44    2.75
   3  10 -18   26.58    3.53
   3  10 -18   24.75    3.25
  -3 -10 -17 1004.69   20.74
  -3 -10 -17 1018.38   20.48
   3  10 -17 1032.46   22.86
   3  10 -17 1047.49   22.35
  -3 -10 -16  313.23   10.15
  -3 -10 -16  287.26    9.59
   3  10 -16  306.42   11.32
   3  10 -16  291.88   10.69
  -3 -10 -15  420.50   12.03
  -3 -10 -15  409.29   11.58
   3  10 -15  435.17   13.47
   3  10 -15  426.37   12.94
  -3 -10 -14  269.27    9.34
  -3 -10 -14  265.33    8.92
   3  10 -14  298.27   10.83
  -3 -10 -14  265.51    7.96
   3  10 -14  268.98    9.96
  -3 -10 -13    7.60    1.82
  -3 -10 -13    8.45    1.70
  -3 -10 -13    8.79    1.71
   3  10 -13    7.99    1.98
  -3 -10 -12   73.85    4.71
  -3 -10 -12   73.50    4.45
  -3 -10 -12   75.13    4.22
   3  10 -12   75.44    5.07
  -3 -10 -11  421.21   11.03
   3  10 -11  380.44   16.01
  -3 -10 -11  412.09   10.50
   3  10 -11  396.97   11.88
  -3 -10 -10  733.09   14.81
  -3 -10 -10  744.38   14.62
   3  10 -10  757.82   16.51
  -3 -10  -9   90.41    4.69
  -3 -10  -9   96.47    4.83
   3  10  -9   93.60    5.41
  -3 -10  -8   13.68    2.14
  -3 -10  -8   16.55    2.14
  -3 -10  -8   16.19    2.20
   3  10  -8   14.60    2.26
  -3 -10  -7  336.51    9.80
  -3 -10  -7  346.78    9.58
   3  10  -7  361.48   10.86
   3 -10   7  345.80   10.76
  -3 -10  -7  337.26    9.35
  -3 -10  -6  216.63    7.60
  -3 -10  -6  238.30    7.67
   3 -10   6  221.49    8.39
  -3 -10  -6  211.49    7.16
  -3 -10  -5  536.97   12.66
  -3 -10  -5  557.66   12.58
  -3 -10  -5  539.01   12.22
  -3 -10  -4  289.84    8.64
  -3 -10  -4  282.67    8.46
  -3 -10  -4  277.64    8.20
  -3 -10  -3  492.89   11.88
  -3 -10  -3  505.44   11.84
  -3 -10  -2  727.58   13.12
  -3 -10  -2  705.50   14.73
   3 -10   2  710.52   15.78
  -3 -10  -1   15.46    2.07
   3 -10   1   14.63    2.25
  -3 -10   0    4.55    1.39
  -3 -10   0    3.64    1.22
   3 -10   0    3.28    1.38
   3 -10  -1   25.53    2.65
  -3 -10   1   23.75    2.46
  -3 -10   1   23.44    2.44
  -3 -10   2  746.43   14.93
  -3 -10   2  745.71   14.95
  -3 -10   3  531.99   12.12
   3 -10  -3  519.64   12.36
  -3 -10   3  514.79   11.98
   3 -10  -4  275.27    8.52
  -3 -10   4  271.81    8.28
  -3 -10   4  267.64    8.29
   3 -10  -4  272.90    8.06
  -3 -10   5  566.45   12.65
   3 -10  -5  557.10   12.85
  -3 -10   5  548.23   12.58
   3 -10  -5  536.27   12.18
   3 -10  -6  211.25    7.28
  -3 -10   6  203.48    7.02
  -3 -10   6  197.21    6.99
   3 -10  -6  197.90    6.81
  -3 -10   7  334.95    9.42
   3 -10  -7  361.80    9.79
  -3 -10   7  353.34    9.60
   3 -10  -7  347.19    9.37
  -3 -10   8   15.34    2.09
  -3 -10   8   13.29    2.01
   3 -10  -8    9.68    1.81
   3 -10  -8   10.56    1.75
  -3 -10   9  105.13    5.05
  -3 -10   9  100.52    4.88
   3 -10  -9   98.76    4.90
   3 -10 -10  731.05   15.07
  -3 -10  10  739.21   15.07
   3 -10 -10  734.67   15.31
  -3 -10  10  747.14   15.36
   3 -10 -11  411.14   10.55
  -3 -10  11  421.56   10.56
  -3 -10  11  413.78   10.81
   3 -10 -11  411.54   10.89
   3 -10 -12   66.70    3.97
  -3 -10  12   69.13    4.01
   3 -10 -12   71.25    4.36
   3 -10 -13   14.81    2.08
  -3 -10  13   12.68    1.94
   3 -10 -13   16.94    2.26
   3 -10 -14  246.61    7.49
   3 -10 -14  247.14    8.32
   3 -10 -15  412.90   11.50
  -3  10 -15  395.87   15.52
   3 -10 -16  296.11    9.74
  -3  10 -16  323.41   12.10
   3 -10 -17 1001.74   20.12
  -3  10 -17  998.07   21.82
   3 -10 -18   21.97    2.69
  -3  10 -18   29.49    3.57
   3 -10 -19  172.41    7.41
  -3  10 -19  172.99    7.98
   3 -10 -20    9.92    2.06
  -3  10 -20    9.21    2.28
   3 -10 -21   73.13    4.75
  -3  10 -21   63.38    4.90
   3 -10 -22   50.10    3.87
  -3  10 -22   44.35    4.07
   3 -10 -23   42.54    3.57
  -3  10 -23   35.88    3.65
  -3  10 -24    4.35    1.43
   3 -10 -24    1.89    1.23
  -3  10 -24    0.71    1.08
  -3  10 -25   86.26    5.11
   3 -10 -25   84.90    4.80
  -3  10 -26   71.11    4.53
   3 -10 -26   71.60    4.25
  -3  10 -27  130.49    5.81
   3 -10 -27  131.62    5.50
   3  11 -25   24.51    2.76
  -3 -11 -25   27.42    2.79
   3  11 -24   26.89    2.98
  -3 -11 -24   25.04    2.72
  -3 -11 -23   60.39    4.14
  -3 -11 -23   57.99    4.05
   3  11 -23   63.47    4.47
  -3 -11 -22    4.54    1.54
  -3 -11 -22    4.09    1.64
   3  11 -22    4.09    1.57
  -3 -11 -21  141.26    6.54
  -3 -11 -21  143.13    6.60
   3  11 -21  127.96    6.69
  -3 -11 -20   26.36    3.10
  -3 -11 -20   26.58    2.97
   3  11 -20   24.59    3.59
   3  11 -20   29.52    3.47
  -3 -11 -19  101.78    5.70
  -3 -11 -19   98.23    5.49
   3  11 -19  101.79    6.53
   3  11 -19   88.52    5.83
  -3 -11 -18  129.05    6.50
  -3 -11 -18  133.22    6.47
   3  11 -18  141.99    7.74
   3  11 -18  126.90    6.95
  -3 -11 -17  422.54   12.34
  -3 -11 -17  404.98   11.87
   3  11 -17  442.16   13.91
   3  11 -17  429.81   13.27
  -3 -11 -16   46.02    3.97
  -3 -11 -16   47.93    3.89
   3  11 -16   57.01    4.82
   3  11 -16   51.25    4.45
  -3 -11 -15  257.40    9.33
  -3 -11 -15  252.92    9.03
   3  11 -15  265.73   10.57
   3  11 -15  247.43    9.85
  -3 -11 -14   18.11    2.67
  -3 -11 -14   16.87    2.36
  -3 -11 -14   13.51    2.00
   3  11 -14   10.91    2.47
  -3 -11 -13    4.89    1.71
  -3 -11 -13    5.95    1.62
  -3 -11 -13    5.10    1.47
   3  11 -13    3.91    1.64
  -3 -11 -12    7.50    1.90
  -3 -11 -12    6.30    1.77
  -3 -11 -12    6.82    1.70
   3  11 -12    5.85    1.90
  -3 -11 -11  190.28    7.42
  -3 -11 -11  192.64    7.18
   3  11 -11  190.94    8.28
  -3 -11 -10   74.93    4.54
  -3 -11 -10   77.02    4.55
   3  11 -10   70.29    4.91
  -3 -11  -9  375.08   10.66
  -3 -11  -9  411.25   11.00
   3  11  -9  393.02   11.93
  -3 -11  -8   47.58    3.79
  -3 -11  -8   44.16    3.41
  -3 -11  -8   42.21    3.46
   3  11  -8   47.29    3.98
  -3 -11  -7  227.21    8.25
   3  11  -7  243.30    9.12
  -3 -11  -7  225.21    8.02
   3 -11   7  230.89    9.14
  -3 -11  -7  234.35    8.02
  -3 -11  -6  340.07   10.22
  -3 -11  -6  329.44    9.80
   3 -11   6  342.93   11.13
  -3 -11  -6  329.13    9.65
  -3 -11  -5  255.57    8.65
  -3 -11  -5  253.85    8.49
  -3 -11  -4   40.00    3.38
  -3 -11  -4   38.68    3.39
  -3 -11  -3  333.95    9.85
  -3 -11  -3  344.10    9.99
  -3 -11  -2   65.85    4.18
   3 -11   2   61.18    4.41
  -3 -11  -1  107.37    5.36
   3 -11   1  110.87    5.81
  -3 -11   0    1.91    1.20
  -3 -11   0    1.64    1.13
   3 -11   0    1.01    1.31
   3 -11  -1  119.27    5.93
  -3 -11   1  114.95    5.55
  -3 -11   1  113.79    5.51
  -3 -11   2   59.98    4.02
   3 -11  -2   59.20    4.19
  -3 -11   2   58.27    3.94
  -3 -11   3  335.62    9.88
   3 -11  -3  316.71    9.93
  -3 -11   4   43.74    3.49
   3 -11  -4   44.41    3.56
  -3 -11   4   41.89    3.46
   3 -11  -5  253.75    8.69
  -3 -11   5  281.72    8.90
  -3 -11   5  271.27    8.79
  -3 -11   6  320.33    9.66
   3 -11  -6  334.34   10.03
  -3 -11   6  328.03    9.75
   3 -11  -6  321.82    9.44
   3 -11  -7  233.83    8.21
  -3 -11   7  237.61    8.18
  -3 -11   7  235.92    8.10
   3 -11  -7  236.36    7.97
   3 -11  -8   49.23    3.70
  -3 -11   8   48.57    3.63
  -3 -11   8   49.85    3.71
   3 -11  -8   38.60    3.23
   3 -11  -9  393.33   10.85
  -3 -11   9  377.86   10.43
  -3 -11   9  388.26   10.76
   3 -11  -9  380.36   10.54
   3 -11 -10   80.06    4.64
  -3 -11  10   72.08    4.37
  -3 -11  10   85.70    4.84
   3 -11 -10   81.01    4.71
   3 -11 -11  204.15    7.46
  -3 -11  11  210.27    7.67
   3 -11 -11  186.33    7.31
  -3 -11  11  194.73    7.20
   3 -11 -12    7.54    1.71
   3 -11 -12    8.94    1.87
  -3 -11  12    9.71    1.89
   3 -11 -13    7.24    1.69
   3 -11 -13    9.51    1.86
  -3 -11  13    5.52    1.52
   3 -11 -14   13.45    2.07
   3 -11 -14   17.14    2.35
   3 -11 -15  253.45    8.96
  -3  11 -15  245.57   12.74
   3 -11 -16   47.07    3.85
  -3  11 -16   48.84    5.39
   3 -11 -17  438.95   12.36
  -3  11 -17  458.14   13.97
   3 -11 -18  131.94    6.44
  -3  11 -18  147.66    7.43
   3 -11 -19  108.64    5.74
  -3  11 -19   90.90    5.84
   3 -11 -20   36.82    3.38
  -3  11 -20   33.61    3.65
   3 -11 -21  138.51    6.42
  -3  11 -21  129.13    6.77
   3 -11 -22    3.40    1.50
  -3  11 -22    2.86    1.67
   3 -11 -23   73.49    4.52
  -3  11 -23   58.80    4.53
  -3  11 -24   28.95    3.12
   3 -11 -24   26.22    2.67
  -3  11 -24   24.44    2.88
  -3  11 -25   21.44    2.65
   3 -11 -25   20.45    2.46
   3 -11 -26   40.20    3.02
   3  12 -24   45.78    3.58
  -3 -12 -24   36.18    3.09
  -3 -12 -23    6.60    1.64
  -3 -12 -23    5.69    1.49
  -3 -12 -22  179.16    7.03
  -3 -12 -22  173.52    6.93
   3  12 -22  172.24    8.08
   3  12 -22  172.31    7.26
  -3 -12 -21  142.85    6.49
  -3 -12 -21  145.79    6.46
   3  12 -21  155.44    7.73
   3  12 -21  144.57    6.91
  -3 -12 -20    7.56    1.96
  -3 -12 -20    9.76    1.96
   3  12 -20    6.62    2.31
   3  12 -20    7.72    1.89
  -3 -12 -19  120.16    6.17
  -3 -12 -19  116.83    5.93
   3  12 -19  112.80    6.82
  -3 -12 -18  661.00   15.98
  -3 -12 -18  678.73   15.84
   3  12 -18  698.02   17.99
   3  12 -18  647.19   16.76
  -3 -12 -17  197.63    8.19
  -3 -12 -17  188.23    7.76
   3  12 -17  214.17    9.42
   3  12 -17  196.19    8.71
  -3 -12 -16   40.44    3.79
  -3 -12 -16   44.91    3.79
   3  12 -16   52.70    4.79
   3  12 -16   41.08    4.10
  -3 -12 -15  149.73    7.14
  -3 -12 -15  134.97    6.57
   3  12 -15  149.82    7.90
   3  12 -15  142.36    7.40
  -3 -12 -14  516.48   14.18
  -3 -12 -14  531.59   13.80
  -3 -12 -14  522.78   12.49
   3  12 -14  502.12   14.65
  -3 -12 -13   58.18    4.53
  -3 -12 -13   62.94    4.41
  -3 -12 -13   54.88    3.90
   3  12 -13   70.51    6.07
   3  12 -13   52.29    4.55
  -3 -12 -12  245.55    9.23
  -3 -12 -12  232.66    8.69
  -3 -12 -12  248.49    8.48
   3  12 -12  229.37    9.46
  -3 -12 -11   11.64    2.12
   3  12 -11   10.96    2.28
  -3 -12 -10  294.33    9.69
  -3 -12 -10  299.99    9.58
   3  12 -10  302.50   10.75
  -3 -12  -9    8.67    2.00
  -3 -12  -9    6.89    1.89
   3  12  -9    8.18    2.11
  -3 -12  -8   30.58    3.30
  -3 -12  -8   32.33    3.08
  -3 -12  -8   34.26    3.37
   3  12  -8   31.74    3.52
  -3 -12  -7  727.36   16.87
  -3 -12  -7  759.48   16.63
   3  12  -7  753.32   17.97
  -3 -12  -6  786.08   17.36
  -3 -12  -6  769.80   16.92
   3 -12   6  765.07   18.53
  -3 -12  -5  377.61   11.26
  -3 -12  -5  366.92   10.91
  -3 -12  -4  301.09    9.91
  -3 -12  -4  311.56    9.90
  -3 -12  -3   52.05    3.99
  -3 -12  -3   45.61    3.71
  -3 -12  -2  738.77   16.52
   3 -12   2  743.76   17.58
  -3 -12  -1   38.69    3.47
   3 -12   1   38.91    3.71
  -3 -12   0    4.48    1.65
  -3 -12   0    6.57    1.71
   3 -12   0    4.53    1.83
  -3 -12   1   47.35    3.83
   3 -12  -1   46.96    3.96
  -3 -12   1   51.57    4.02
  -3 -12   2  765.45   16.83
   3 -12  -2  751.13   17.24
  -3 -12   2  735.00   16.52
  -3 -12   3   50.27    4.01
   3 -12  -3   51.66    4.11
  -3 -12   3   53.00    4.06
   3 -12  -4  285.79    9.78
  -3 -12   4  299.60    9.78
  -3 -12   4  308.83    9.83
  -3 -12   5  370.17   10.99
   3 -12  -5  355.39   11.02
  -3 -12   5  384.13   11.08
  -3 -12   6  736.67   16.66
   3 -12  -6  744.84   16.86
  -3 -12   6  754.42   16.58
  -3 -12   7  778.69   17.02
   3 -12  -7  758.74   17.06
  -3 -12   7  757.77   16.62
  -3 -12   8   31.70    3.21
   3 -12  -8   30.45    3.16
  -3 -12   8   31.80    3.12
   3 -12  -8   30.33    3.05
  -3 -12   9    7.83    1.87
   3 -12  -9    6.66    1.83
   3 -12  -9    6.82    1.85
  -3 -12   9    6.09    1.68
   3 -12 -10  299.05    9.67
  -3 -12  10  306.21    9.50
  -3 -12  10  280.22    9.41
   3 -12 -10  276.24    9.31
  -3 -12  11    7.45    1.77
   3 -12 -11    9.25    2.04
   3 -12 -11    7.29    1.80
  -3 -12  11    9.03    1.91
   3 -12 -12  224.62    8.20
  -3 -12  12  227.47    8.02
   3 -12 -12  236.38    8.63
   3 -12 -13   60.91    4.18
  -3 -12  13   60.24    4.01
   3 -12 -13   64.55    4.47
   3 -12 -14  491.09   11.91
   3 -12 -14  512.47   12.96
  -3  12 -15  168.06   10.59
   3 -12 -15  142.12    6.73
  -3  12 -16   48.90    5.55
   3 -12 -16   46.35    3.85
  -3  12 -17  204.81    9.08
   3 -12 -17  198.95    7.97
  -3  12 -18  639.31   16.64
   3 -12 -18  630.88   15.21
  -3  12 -19  111.97    6.40
   3 -12 -19  112.71    5.83
  -3  12 -20    4.56    1.84
   3 -12 -20    9.37    1.87
  -3  12 -21  131.30    6.67
   3 -12 -21  135.37    6.17
  -3  12 -22  175.97    7.51
   3 -12 -22  169.49    6.79
  -3  12 -23    4.47    1.67
   3 -12 -23    4.12    1.38
  -3  12 -24   42.62    3.54
   3 -12 -24   43.72    3.28
   3  13 -23   55.46    4.19
  -3 -13 -23   53.64    3.55
  -3 -13 -22   30.07    2.87
  -3 -13 -22   30.82    2.93
   3  13 -22   29.76    3.37
  -3 -13 -21  145.85    6.30
  -3 -13 -21  140.48    6.16
   3  13 -21  154.97    7.43
   3  13 -21  132.62    6.24
  -3 -13 -20   34.25    3.30
  -3 -13 -20   38.56    3.29
   3  13 -20   31.17    3.64
   3  13 -20   36.49    3.50
  -3 -13 -19  350.99   10.69
  -3 -13 -19  346.05   10.41
   3  13 -19  359.01   11.96
   3  13 -19  351.99   11.24
  -3 -13 -18   85.48    5.24
  -3 -13 -18   83.98    5.06
   3  13 -18   90.44    6.02
   3  13 -18   91.98    5.73
  -3 -13 -17  207.22    8.34
  -3 -13 -17  203.02    8.02
   3  13 -17  222.50    9.43
   3  13 -17  205.99    8.76
  -3 -13 -16    8.11    1.75
  -3 -13 -16    7.21    2.02
   3  13 -16    5.02    2.25
   3  13 -16    4.26    1.68
  -3 -13 -15  216.17    8.71
  -3 -13 -15  216.49    8.43
   3  13 -15  230.11    9.82
   3  13 -15  218.12    9.21
  -3 -13 -14   36.42    3.65
  -3 -13 -14   32.86    3.36
  -3 -13 -14   32.91    3.10
   3  13 -14   33.81    3.70
  -3 -13 -13   15.03    2.48
  -3 -13 -13   15.51    2.64
  -3 -13 -13   13.35    2.25
   3  13 -13   13.40    2.69
  -3 -13 -12    5.61    1.72
  -3 -13 -12    3.20    1.71
  -3 -13 -12    1.29    1.20
   3  13 -12    1.32    1.39
  -3 -13 -11  219.49    8.48
  -3 -13 -11  214.76    8.18
   3  13 -11  202.43    9.00
  -3 -13 -10  236.36    8.78
   3  13 -10  225.61   15.75
  -3 -13 -10  245.14    8.83
   3  13 -10  221.87    9.42
  -3 -13  -9  104.26    5.81
   3  13  -9  104.64    6.34
  -3 -13  -8   21.25    2.96
  -3 -13  -8   17.27    2.65
   3  13  -8   17.97    2.90
  -3 -13  -7  321.90   10.82
  -3 -13  -7  322.64   10.51
   3  13  -7  321.41   11.31
  -3 -13  -6    0.19    1.33
   3 -13   6    1.82    1.51
  -3 -13  -6    0.18    1.36
   3  13  -6    2.63    1.83
  -3 -13  -5    1.26    1.38
  -3 -13  -5    0.38    1.32
  -3 -13  -4    4.49    1.54
  -3 -13  -4    2.83    1.62
  -3 -13  -3  435.27   12.61
  -3 -13  -3  430.35   12.39
  -3 -13  -2  176.74    7.71
   3 -13   2  180.17    8.27
  -3 -13  -1  345.95   11.01
   3 -13   1  338.49   11.53
  -3 -13   0    4.69    1.85
  -3 -13   0    2.05    1.39
   3 -13   0    4.56    1.83
  -3 -13   1  346.77   11.10
  -3 -13   1  345.34   10.89
   3 -13  -1  352.41   11.62
  -3 -13   2  180.80    7.79
  -3 -13   2  179.15    7.73
   3 -13  -2  175.20    7.98
   3 -13  -3  436.60   13.07
  -3 -13   3  450.70   12.89
  -3 -13   3  466.55   12.90
  -3 -13   4    5.26    1.83
  -3 -13   4    2.86    1.59
   3 -13  -4    2.77    1.60
  -3 -13   5    4.15    1.67
   3 -13  -5    3.92    1.71
  -3 -13   5    2.67    1.60
  -3 -13   6    0.36    1.35
  -3 -13   6    0.95    1.44
   3 -13  -6    1.55    1.29
   3 -13  -7  318.70   10.64
  -3 -13   7  299.78   10.27
  -3 -13   7  310.73   10.21
  -3 -13   8   15.32    2.48
   3 -13  -8   13.80    2.39
  -3 -13   8   14.65    2.51
   3 -13  -9   98.99    5.71
  -3 -13   9   92.96    5.35
  -3 -13   9   91.61    5.44
   3 -13 -10  254.71    9.17
  -3 -13  10  231.73    8.52
  -3 -13  10  248.92    8.99
   3 -13 -10  218.00    8.47
   3 -13 -11  206.62    8.14
  -3 -13  11  208.50    7.91
  -3 -13  11  210.34    8.16
   3 -13 -11  205.19    8.17
  -3 -13  12    0.95    1.18
   3 -13 -12    3.40    1.35
   3 -13 -12    2.06    1.45
   3 -13 -13   20.19    2.63
  -3 -13  13   18.68    2.43
   3 -13 -13   16.93    2.57
   3 -13 -14   33.31    3.20
   3 -13 -14   33.61    3.41
   3 -13 -15  214.77    8.43
  -3  13 -15  267.83   12.59
   3 -13 -16    7.94    1.78
  -3  13 -16   15.04    4.23
   3 -13 -17  205.15    8.06
  -3  13 -17  227.11    9.39
   3 -13 -18   86.21    5.09
  -3  13 -18   85.54    5.61
   3 -13 -19  364.67   10.63
  -3  13 -19  337.48   11.15
   3 -13 -20   37.23    3.28
  -3  13 -20   36.14    3.64
   3 -13 -21  139.30    6.07
  -3  13 -21  132.09    6.45
   3 -13 -22   20.62    2.51
  -3  13 -22   28.36    3.07
   3 -13 -23   46.89    3.30
   3  14 -21    0.36    1.63
  -3 -14 -20    3.64    1.32
  -3 -14 -20    3.82    1.51
   3  14 -20    1.90    1.64
  -3 -14 -19   19.35    2.56
  -3 -14 -19   23.22    2.60
   3  14 -19   22.50    3.13
   3  14 -19   19.66    2.59
  -3 -14 -18  117.19    5.93
  -3 -14 -18  124.69    5.88
   3  14 -18  112.14    6.44
   3  14 -18  121.21    6.26
  -3 -14 -17   57.29    4.30
  -3 -14 -17   62.77    4.23
   3  14 -17   56.03    4.65
   3  14 -17   56.89    4.47
  -3 -14 -16   13.81    2.48
  -3 -14 -16   19.56    2.74
   3  14 -16   16.57    2.98
   3  14 -16   14.10    2.56
  -3 -14 -15   10.67    2.33
   3  14 -15   12.42    2.81
   3  14 -15   10.83    2.40
  -3 -14 -14  549.45   14.75
   3  14 -14  589.56   15.93
   3  14 -14  555.99   15.39
  -3 -14 -13   13.42    2.53
  -3 -14 -13   16.53    2.42
   3  14 -13   15.64    2.74
  -3 -14 -12   47.65    4.23
  -3 -14 -12   40.45    3.59
   3  14 -12   39.80    4.06
  -3 -14 -11   49.23    3.98
   3  14 -11   51.12    4.58
  -3 -14 -10  609.79   14.96
   3  14 -10  567.84   20.66
   3  14 -10  596.61   16.24
  -3 -14  -9   44.01    3.89
   3  14  -9   46.25    4.32
  -3 -14  -8   31.16    3.53
  -3 -14  -8   23.58    3.05
   3  14  -8   29.19    3.58
  -3 -14  -7  200.34    8.68
  -3 -14  -7  194.61    8.20
   3  14  -7  186.74    8.65
  -3 -14  -6  653.73   16.75
  -3 -14  -6  691.31   16.54
   3  14  -6  654.35   17.25
  -3 -14  -5   43.79    4.13
   3  14  -5   50.25    4.60
  -3 -14  -5   48.75    4.18
   3 -14   5   41.21    4.41
  -3 -14  -4   13.62    2.52
  -3 -14  -4   12.38    2.52
  -3 -14  -3   10.96    2.28
  -3 -14  -3   11.94    2.52
  -3 -14  -2  329.75   11.15
   3 -14   2  333.11   11.84
  -3 -14  -1    4.23    1.80
   3 -14   1    4.94    1.98
  -3 -14   0    1.36    1.64
  -3 -14   0    2.02    1.42
   3 -14   0    1.11    1.68
  -3 -14   1    3.31    1.68
  -3 -14   1    3.45    1.58
   3 -14  -1    5.27    2.05
  -3 -14   2  344.54   11.47
  -3 -14   2  352.72   11.34
   3 -14  -2  329.25   11.52
  -3 -14   3    8.16    2.12
  -3 -14   3    7.39    2.10
   3 -14  -3    9.89    2.44
  -3 -14   4   15.85    2.71
  -3 -14   4   12.72    2.47
   3 -14  -4   11.48    2.50
  -3 -14   5   47.24    4.16
   3 -14  -5   44.50    4.15
  -3 -14   5   42.80    3.98
   3 -14  -6  666.53   16.74
  -3 -14   6  634.09   16.22
  -3 -14   6  645.50   16.02
   3 -14  -7  193.48    8.41
  -3 -14   7  205.43    8.33
  -3 -14   7  183.31    8.10
   3 -14  -8   25.58    3.19
  -3 -14   8   24.86    3.08
  -3 -14   8   21.30    2.92
   3 -14  -9   42.61    3.91
  -3 -14   9   48.90    4.00
  -3 -14   9   38.96    3.70
   3 -14 -10  571.37   14.87
  -3 -14  10  586.03   14.88
   3 -14 -11   42.68    3.82
  -3 -14  11   40.13    3.60
   3 -14 -12   49.03    4.03
  -3 -14  12   49.15    3.88
   3 -14 -13   16.92    2.49
  -3  14 -13  150.56   16.03
  -3  14 -14  497.88   19.05
   3 -14 -15   13.35    2.24
  -3  14 -15   30.46    5.04
   3 -14 -16   16.38    2.45
  -3  14 -16   37.56    4.26
   3 -14 -17   68.98    4.43
  -3  14 -17   72.95    5.24
   3 -14 -18  106.98    5.46
  -3  14 -18  107.47    6.09
   3 -14 -19   22.38    2.55
  -3  14 -19   16.63    2.65
   3 -14 -20    2.37    1.22
  -3  14 -20    1.01    1.40
   3 -14 -21    2.59    1.25
  -3 -15 -19    4.06    1.40
   3  15 -19    4.86    1.75
  -3 -15 -18   26.05    2.84
   3  15 -18   23.62    3.05
   3  15 -18   24.13    2.75
  -3 -15 -17  208.58    7.90
   3  15 -17  225.52    8.77
   3  15 -17  218.08    8.23
  -3 -15 -16   32.82    3.32
   3  15 -16   32.62    3.58
   3  15 -16   31.16    3.38
   3  15 -15   64.10    4.86
   3  15 -15   57.63    4.50
  -3 -15 -14   59.13    4.47
   3  15 -14   54.20    4.60
   3  15 -14   52.58    4.42
  -3 -15 -13   75.58    5.17
   3  15 -13   78.18    5.35
  -3 -15 -12   33.56    3.60
  -3 -15 -12   32.08    3.22
   3  15 -12   27.93    3.38
  -3 -15 -11   30.36    3.25
   3  15 -11   26.13    3.38
  -3 -15 -10   30.99    3.31
   3  15 -10   37.39    3.88
  -3 -15  -9  240.50    9.66
  -3 -15  -9  253.39    9.27
   3  15  -9  248.61   10.01
  -3 -15  -8   21.32    3.07
   3  15  -8   21.87    3.24
  -3 -15  -7  261.90   10.11
  -3 -15  -7  268.80    9.73
   3  15  -7  266.50   10.46
  -3 -15  -6   59.38    4.76
  -3 -15  -6   59.28    4.65
   3  15  -6   67.84    5.29
  -3 -15  -5  286.90   10.58
  -3 -15  -5  269.18    9.99
   3  15  -5  283.30   10.92
  -3 -15  -4   12.92    2.57
  -3 -15  -4   15.06    2.65
   3  15  -4   13.26    2.79
  -3 -15  -3   87.09    5.73
  -3 -15  -3   90.06    5.69
  -3 -15  -2   63.47    4.95
   3 -15   2   50.98    4.71
  -3 -15  -1  245.20    9.71
   3 -15   1  231.01    9.81
  -3 -15   0   13.72    2.50
  -3 -15   0   12.88    2.54
   3 -15   0   10.87    2.56
  -3 -15   1  223.22    9.25
  -3 -15   1  228.49    9.17
   3 -15  -1  226.80    9.67
  -3 -15   2   53.27    4.56
  -3 -15   2   54.97    4.52
   3 -15  -2   49.49    4.60
  -3 -15   3   96.40    6.04
  -3 -15   3   96.27    5.95
   3 -15  -3  100.03    6.31
  -3 -15   4   17.38    2.82
  -3 -15   4   16.79    2.83
   3 -15  -4   15.87    2.88
  -3 -15   5  273.25   10.20
  -3 -15   5  250.53    9.63
   3 -15  -5  269.13   10.28
  -3 -15   6   59.77    4.67
  -3 -15   6   65.56    4.93
   3 -15  -6   66.06    5.03
  -3 -15   7  275.75    9.85
  -3 -15   7  273.28   10.03
   3 -15  -7  267.73   10.10
  -3 -15   8   19.64    2.84
   3 -15  -8   20.05    2.94
  -3 -15   8   15.22    2.59
  -3 -15   9  225.69    8.62
   3 -15  -9  234.92    9.16
  -3 -15   9  246.81    9.23
  -3 -15  10   31.88    3.30
   3 -15 -10   38.23    3.71
  -3 -15  11   31.52    3.24
   3 -15 -11   30.70    3.27
  -3 -15  12   22.95    2.72
   3 -15 -12   22.25    2.82
  -3  15 -13  140.30   12.15
  -3  15 -14   86.06    7.63
  -3  15 -15   78.29    5.96
  -3  15 -16   33.11    3.69
  -3  15 -17  232.57    8.71
  -3  15 -18   31.68    3.30
  -3 -16 -17   72.68    4.36
   3  16 -17   74.77    4.71
  -3 -16 -16   10.06    1.98
   3  16 -16    7.92    2.05
  -3 -16 -15    4.21    1.58
   3  16 -15    2.34    1.73
   3  16 -15    2.64    1.33
  -3 -16 -14  324.00   10.22
   3  16 -14  317.83   10.36
   3  16 -14  307.72   10.16
  -3 -16 -13   83.74    5.18
   3  16 -13   85.20    5.42
   3  16 -13   87.22    5.38
  -3 -16 -12   72.95    4.95
   3  16 -12   69.46    4.90
  -3 -16 -11  161.79    6.80
   3  16 -11  172.48    7.85
  -3 -16 -10  354.44   10.70
   3  16 -10  347.19   11.62
  -3 -16  -9  109.81    6.40
  -3 -16  -9  118.80    6.12
   3  16  -9  130.97    6.99
  -3 -16  -8   11.36    2.21
   3  16  -8   11.49    2.46
  -3 -16  -7   12.42    2.31
   3  16  -7   13.21    2.61
  -3 -16  -6  622.81   16.20
  -3 -16  -6  614.28   15.49
   3  16  -6  604.12   16.26
  -3 -16  -5   22.02    3.11
  -3 -16  -5   20.97    2.89
   3  16  -5   21.60    3.19
  -3 -16  -4   27.98    3.49
  -3 -16  -4   32.48    3.56
   3  16  -4   30.90    3.80
  -3 -16  -3   30.91    3.62
  -3 -16  -3   33.59    3.64
   3  16  -3   37.55    4.17
  -3 -16  -2  399.86   12.62
   3 -16   2  384.73   12.93
  -3 -16  -1   39.11    3.97
   3 -16   1   33.70    3.90
  -3 -16   0    2.40    1.45
  -3 -16   0    2.13    1.74
   3 -16   0    2.99    1.69
  -3 -16   1   40.12    4.01
  -3 -16   1   43.09    4.02
   3 -16  -1   35.88    4.01
  -3 -16   2  374.56   12.25
  -3 -16   2  406.04   12.48
   3 -16  -2  381.09   12.73
  -3 -16   3   35.49    3.73
  -3 -16   3   31.79    3.56
   3 -16  -3   30.06    3.67
  -3 -16   4   36.92    3.91
  -3 -16   4   35.59    3.71
   3 -16  -4   29.95    3.63
  -3 -16   5   19.90    2.90
  -3 -16   5   21.86    3.07
   3 -16  -5   16.30    2.80
   3 -16  -6  608.46   16.05
  -3 -16   6  608.20   15.82
  -3 -16   7   14.65    2.48
   3 -16  -7   13.56    2.52
  -3 -16   7   14.75    2.63
  -3 -16   8    8.99    2.10
   3 -16  -8    7.22    1.99
  -3 -16   8   10.96    2.25
  -3 -16   9  128.94    6.23
   3 -16  -9  124.04    6.44
  -3 -16  10  343.54   10.29
   3 -16 -10  331.12   10.55
  -3 -16  11  144.12    6.29
   3 -16 -11  151.55    6.78
  -3  16 -12  158.99   12.56
  -3  16 -13  133.13    8.81
  -3  16 -14  351.86   11.95
  -3  16 -15   11.97    2.61
  -3  16 -16   12.47    2.33
  -3 -17 -14   11.66    2.07
  -3 -17 -13  159.59    6.77
   3  17 -13  162.84    6.90
  -3 -17 -12    4.35    1.63
   3  17 -12    3.86    1.70
   3  17 -12    4.96    1.62
   3  17 -11    6.87    2.12
   3  17 -11    4.52    1.57
  -3 -17 -10    5.94    1.63
   3  17 -10    6.91    1.88
  -3 -17  -9  153.29    7.16
  -3 -17  -9  146.37    6.45
   3  17  -9  154.62    7.23
  -3 -17  -8   14.78    2.60
  -3 -17  -8   13.53    2.33
   3  17  -8   11.38    2.27
  -3 -17  -7  101.98    5.97
  -3 -17  -7   90.56    5.31
   3  17  -7   86.35    5.55
  -3 -17  -6   13.11    2.38
   3  17  -6   16.80    2.66
  -3 -17  -5  189.85    8.30
  -3 -17  -5  194.78    8.01
   3  17  -5  192.87    8.43
  -3 -17  -4   41.58    3.94
  -3 -17  -4   42.84    3.90
   3  17  -4   40.23    3.96
  -3 -17  -3   77.31    5.27
  -3 -17  -3   75.65    5.03
   3  17  -3   79.57    5.52
  -3 -17  -2    8.76    2.23
   3  17  -2   12.45    2.75
  -3 -17  -1  204.57    8.66
   3  17  -1  221.84    9.42
  -3 -17   0    2.08    1.62
  -3 -17   0    1.42    1.52
   3 -17   0    1.73    1.79
  -3 -17   1  213.36    8.76
   3 -17  -1  189.53    8.57
  -3 -17   1  204.06    8.44
  -3 -17   2   14.43    2.57
   3 -17  -2   10.00    2.40
  -3 -17   2   12.66    2.51
  -3 -17   3   83.18    5.43
   3 -17  -3   83.30    5.54
  -3 -17   3   84.63    5.38
  -3 -17   4   40.55    3.84
   3 -17  -4   39.05    3.92
  -3 -17   4   45.32    3.96
  -3 -17   5  190.65    8.07
   3 -17  -5  199.84    8.43
  -3 -17   5  191.75    7.93
  -3 -17   6   12.99    2.38
   3 -17  -6   11.63    2.42
  -3 -17   6   13.26    2.35
   3 -17  -7  100.99    5.77
  -3 -17   7   92.55    5.41
  -3 -17   7  111.12    5.80
   3 -17  -8    9.42    2.07
  -3 -17   8   11.96    2.17
   3 -17  -9  151.87    6.79
  -3 -17   9  156.42    6.53
  -3  17 -11  127.04   10.91
  -3  17 -12   47.77    5.68
  -3  17 -13  178.47    8.03
  -3 -18  -9   71.94    4.64
   3  18  -9   72.17    4.56
  -3 -18  -8    0.85    1.27
   3  18  -8    1.31    1.24
  -3 -18  -7   60.85    4.42
   3  18  -7   59.25    4.32
  -3 -18  -6  165.66    7.26
  -3 -18  -6  157.12    6.64
   3  18  -6  158.38    7.06
  -3 -18  -5   96.09    5.60
  -3 -18  -5   92.47    5.15
   3  18  -5   82.57    5.20
  -3 -18  -4    3.65    1.68
  -3 -18  -4    4.96    1.77
  -3 -18  -3   50.39    4.14
   3  18  -3   50.99    4.26
  -3 -18  -2  137.44    6.70
   3  18  -2  148.61    7.04
  -3 -18  -1  217.61    8.51
   3  18  -1  234.44    8.99
  -3 -18   0   42.54    3.82
  -3 -18   0   47.95    3.88
   3  18   0   39.84    3.91
  -3 -18   1  213.87    8.38
  -3 -18   1  228.52    8.46
   3  18   1  239.87    9.22
  -3 -18   2  137.32    6.60
  -3 -18   2  137.65    6.48
  -3 -18   3   41.66    3.71
  -3 -18   3   39.06    3.57
  -3 -18   4    3.57    1.58
  -3 -18   4    2.75    1.53
  -3 -18   5   83.64    5.00
   3 -18  -5   88.18    5.23
  -3 -18   5   94.01    5.16
   3 -18  -6  152.44    6.74
  -3 -18   6  144.80    6.41
  -3 -18   6  152.24    6.45
   3 -18  -7   58.61    4.19
  -3  18  -9  221.89   15.19
  -3  18 -10  116.94    8.71
   3  19   0   47.93    3.82
   3  19   1  194.22    7.52
   3  19   2   13.53    2.40
  -4   0   0  200.87    3.63
   4   0   0  201.94    4.24
  -4   0   0  207.44    5.25
   4   0   0  199.20    4.83
   4   0   0  201.63    4.84
  -4   0  -1   85.29    2.29
  -4   0   1   83.60    1.86
  -4   0   1   84.81    2.51
   4   0  -1   84.24    2.97
   4   0   1   87.40    2.60
   4   0  -1   84.51    2.51
  -4   0   1   87.85    3.24
   4   0   1   86.38    3.00
   4   0   1   88.45    3.02
   4   0  -1   82.80    2.94
  -4   0   2 1470.69   17.87
  -4   0  -2 1606.40   19.67
   4   0  -2 1505.42   20.89
  -4   0   2 1590.26   19.86
   4   0   2 1646.09   20.15
   4   0  -2 1615.76   19.92
  -4   0   2 1630.30   21.67
   4   0   2 1558.74   20.99
   4   0   2 1562.55   21.01
   4   0  -2 1559.11   20.97
  -4   0  -3  269.43    5.26
   4   0  -3  272.04    6.04
   4   0   3  267.51    5.38
  -4   0   3  274.21    5.24
  -4   0  -3  276.58    6.14
   4   0  -3  278.34    5.27
  -4   0   3  273.87    6.25
   4   0  -3  266.60    6.01
   4   0   3  277.60    6.05
   4   0   3  261.23    5.89
  -4   0  -4 3628.43   43.66
   4   0  -4 3670.93   44.89
   4   0   4 3689.86   43.67
  -4   0  -4 3515.51   44.60
  -4   0   4 3653.30   43.28
   4   0  -4 3660.15   43.45
   4   0   4 3662.18   44.65
   4   0  -4 3629.45   44.88
   4   0   4 3718.14   44.77
  -4   0  -5    1.55    0.53
   4   0   5    1.39    0.50
   4   0   5    1.55    0.67
  -4   0  -5    2.17    0.64
   4   0  -5    3.15    0.60
   4   0  -5    1.67    0.62
   4   0   5    2.11    0.73
  -4   0  -6 1238.82   17.79
  -4   0   6 1201.37   16.70
   4   0  -6 1252.11   17.10
  -4   0  -6 1227.96   17.50
   4   0  -6 1199.18   17.52
   4   0  -6 1208.79   18.11
   4   0   6 1229.24   17.93
  -4   0  -7    2.12    0.69
   4   0   7    1.01    0.55
  -4   0   7    0.42    0.43
   4   0  -7    0.35    0.50
  -4   0  -7    0.26    0.41
   4   0  -7    0.76    0.62
   4   0   7    0.07    0.54
   4   0  -7    0.62    0.73
  -4   0  -8  962.27   14.97
  -4   0   8  990.34   14.40
   4   0   8  967.33   15.02
  -4   0  -8  980.78   15.26
   4   0  -8 1004.87   15.59
   4   0  -8  959.62   15.87
   4   0   8  949.50   15.32
  -4   0  -9   23.34    1.71
  -4   0   9   22.98    1.59
   4   0   9   24.62    1.77
  -4   0  -9   20.31    1.42
   4   0  -9   22.90    1.49
  -4   0  -9   21.67    1.78
   4   0  -9   21.85    1.86
   4   0  -9   20.58    1.91
  -4   0 -10  356.18    7.51
  -4   0  10  356.80    7.44
   4   0  10  350.39    7.68
   4   0 -10  361.90    8.47
  -4   0 -10  351.17    7.13
   4   0 -10  356.45    7.14
  -4   0 -10  362.19    8.18
  -4   0 -11   54.09    2.64
  -4   0  11   60.01    2.80
   4   0  11   57.47    2.81
   4   0 -11   58.55    3.26
  -4   0 -11   57.04    2.66
   4   0 -11   58.74    2.66
  -4   0 -11   62.34    3.19
  -4   0 -12 3505.46   44.47
  -4   0  12 3504.56   44.75
   4   0  12 3628.48   44.90
  -4   0 -12 3617.10   44.70
   4   0 -12 3531.98   44.48
  -4   0 -12 3546.93   46.25
   4   0 -12 3581.08   46.94
  -4   0 -13  164.23    4.92
  -4   0  13  167.91    5.26
   4   0  13  157.69    5.11
  -4   0 -13  162.40    5.12
   4   0 -13  168.41    5.18
   4   0 -13  172.72    6.20
   4   0 -13  169.71    6.34
  -4   0  14  108.66    4.38
   4   0  14  106.37    4.18
  -4   0 -14  103.39    3.87
  -4   0 -14  105.07    4.22
   4   0 -14  109.08    4.25
   4   0 -14  111.39    5.13
   4   0 -14  111.55    5.25
  -4   0 -15   89.62    3.61
  -4   0 -15   88.77    4.04
   4   0 -15   90.91    4.05
   4   0 -15   98.25    4.97
   4   0 -15   82.34    4.70
  -4   0 -16  617.45   12.61
   4   0 -16  616.28   12.53
   4   0 -16  600.00   14.18
  -4   0 -17   78.90    4.08
   4   0 -17   81.97    4.17
   4   0 -17   77.72    4.78
  -4   0 -18  260.96    8.02
   4   0 -18  261.73    8.03
  -4   0 -19  245.57    8.03
   4   0 -19  240.65    7.95
  -4   0 -20 1147.21   21.14
   4   0 -20 1174.56   21.24
  -4   0 -21  186.37    7.31
   4   0 -21  184.93    7.25
  -4   0 -22 2082.79   32.99
   4   0 -22 2040.76   32.77
  -4   0 -23  173.60    7.33
   4   0 -23  185.18    7.50
  -4   0 -24   53.43    4.09
   4   0 -24   50.31    3.97
   4   0 -25    2.79    1.34
  -4   0 -25    1.94    1.30
   4   0 -26   33.86    3.32
  -4   0 -26   40.31    3.59
   4   0  26   43.87    4.01
   4   0 -27    4.20    1.54
  -4   0 -27    3.42    1.49
   4   0  27    5.39    1.74
   4   0 -28   44.12    3.56
  -4   0 -28   43.63    3.59
   4   0  28   46.10    4.02
   4   0 -29   96.25    5.09
  -4   0 -29   92.46    5.06
   4   0  29   98.09    5.68
   4   0 -30   52.68    3.73
  -4   0 -30   49.22    3.65
   4   0  30   58.88    4.24
   4   0 -31   13.27    2.00
  -4   0 -31   12.76    2.02
   4   0  31   16.45    2.38
   4   1 -31   26.62    2.58
  -4  -1 -31   24.55    2.55
   4   1 -30   44.14    3.46
  -4  -1 -30   46.45    3.51
   4   1 -29  102.96    5.25
  -4  -1 -29   96.78    5.14
   4   1 -28   59.68    4.14
  -4  -1 -28   52.39    3.90
   4   1 -27   30.43    3.18
  -4  -1 -27   31.21    3.20
   4   1 -26   64.55    4.46
  -4  -1 -26   55.85    4.20
   4   1 -25   67.89    4.56
  -4  -1 -25   61.65    4.39
   4   1 -24  307.11   10.01
  -4  -1 -24  295.01    9.78
   4   1 -23  131.53    6.33
  -4  -1 -23  124.92    6.15
   4   1 -22  242.40    8.62
  -4  -1 -22  242.89    8.56
   4   1 -21   69.87    4.44
  -4  -1 -21   73.95    4.50
   4   1 -20  173.11    6.83
  -4  -1 -20  156.62    6.52
   4   1 -19   15.60    2.06
  -4  -1 -19   15.03    2.00
   4   1 -18   20.90    2.26
  -4  -1 -18   22.22    2.29
   4   1 -18   29.04    3.10
   4   1 -18   21.24    2.72
   4   1 -17  104.72    4.81
  -4  -1 -17  107.15    4.79
   4   1 -17  108.80    5.69
   4   1 -17  108.00    5.75
   4   1 -16  108.57    4.68
  -4  -1 -16  108.44    4.65
   4   1 -16  108.20    5.52
   4   1 -16  104.11    5.45
   4   1 -15 1062.54   17.88
  -4  -1 -15 1038.55   17.62
   4   1 -15 1085.43   19.99
   4   1 -15 1065.85   20.15
   4  -1  14  572.29   11.54
  -4   1  14  571.63   11.24
  -4  -1 -14  566.97   10.18
   4   1 -14  578.74   11.38
  -4  -1 -14  539.80   11.04
   4   1 -14  578.13   12.96
   4   1 -14  569.97   13.16
  -4  -1 -13  196.52    5.07
   4  -1  13  205.21    6.00
  -4   1  13  206.86    5.64
   4   1 -13  212.12    5.81
  -4  -1 -13  202.40    5.67
   4   1 -13  210.01    6.86
   4   1 -13  202.70    6.93
  -4  -1 -12   18.24    1.46
   4  -1  12   14.19    1.55
  -4   1  12   18.32    1.59
  -4  -1 -12   14.08    1.61
   4   1 -12   15.11    1.47
  -4  -1 -12   15.85    1.47
   4   1 -12    9.82    0.41
  -4  -1 -12   15.82    1.44
   4   1 -12   17.08    1.92
   4   1 -12   16.34    1.97
  -4  -1 -11  540.51    9.62
  -4   1  11  537.15    9.73
   4  -1  11  535.22   10.51
  -4  -1 -11  516.78    9.25
   4   1 -11  531.86   11.21
  -4  -1 -11  554.13   10.99
   4   1 -11  513.39    9.71
  -4  -1 -11  544.14    9.81
  -4  -1 -10    7.52    1.01
   4  -1  10    7.50    1.14
  -4   1  10    6.35    0.91
   4   1 -10    6.25    1.21
  -4  -1 -10    7.45    1.16
   4   1 -10    6.74    0.95
  -4  -1 -10    6.14    0.91
  -4  -1  -9   44.98    2.26
  -4   1   9   40.17    1.99
   4  -1   9   47.42    2.59
  -4  -1  -9   39.95    2.39
  -4  -1  -9   44.45    2.10
   4   1  -9   42.75    2.54
  -4   1   8   19.17    1.34
   4  -1   8   22.22    1.73
   4   1  -8   19.36    1.59
  -4  -1  -8   19.09    1.51
  -4  -1  -8   19.40    1.59
   4   1  -8   20.83    1.71
   4   1  -8   19.92    1.81
  -4  -1  -7 1859.95   24.34
  -4   1   7 1836.88   23.21
   4  -1   7 1738.49   24.78
  -4   1   7 1766.90   24.42
   4   1  -7 1865.43   24.42
  -4  -1  -7 1790.08   24.46
   4   1  -7 1832.04   24.67
   4   1  -7 1793.76   25.35
  -4   1   6  446.15    7.33
   4  -1   6  421.66    8.55
  -4   1   6  412.31    8.25
   4   1  -6  453.54    8.24
  -4  -1  -6  440.21    8.27
  -4  -1  -6  435.75    8.18
   4   1  -6  440.97    8.26
   4   1  -6  440.12    8.80
  -4  -1  -5  652.78   10.47
  -4  -1  -5  639.15   10.76
  -4   1   5  648.13    9.56
   4  -1   5  676.65   11.25
  -4   1   5  615.23   10.78
   4   1  -5  661.45   10.47
   4  -1   5  626.34   11.00
   4   1  -5  637.96   11.06
  -4  -1  -4 1039.63   14.70
   4   1  -4 1026.55   15.54
  -4   1   4 1047.08   13.90
  -4  -1  -4 1060.06   15.44
  -4   1   4 1043.36   15.62
   4   1  -4 1063.42   14.85
   4  -1   4 1058.20   15.73
   4   1  -4  997.16   15.53
   4   1  -4 1033.30   15.38
   4  -1   4 1047.91   15.64
  -4  -1  -3  846.03   12.23
  -4   1   3  885.26   13.64
   4  -1   3  878.43   12.19
   4   1  -3  845.15   13.16
  -4   1   3  848.06   11.68
  -4  -1  -3  842.92   13.25
   4   1  -3  867.27   12.58
   4  -1   3  876.29   13.56
   4  -1   3  879.51   13.42
   4   1  -3  833.07   13.22
   4   1  -2  169.84    2.81
  -4  -1  -2  174.64    3.84
  -4   1   2  170.46    2.74
   4   1  -2  169.51    4.43
   4  -1   2  176.64    3.83
  -4   1   2  176.59    3.60
  -4   1   2  177.91    4.80
   4   1  -2  176.71    4.13
  -4  -1  -2  174.22    4.71
   4  -1   2  176.42    4.64
   4   1  -2  172.87    4.51
   4   1  -1   10.43    0.64
  -4   1   1   11.55    0.68
  -4  -1  -1   11.52    0.85
   4  -1   1   12.97    0.92
  -4   1   1   12.11    1.26
   4   1  -1   10.26    0.94
   4  -1   1   14.24    1.24
   4   1  -1   10.33    1.08
  -4  -1   0  237.67    4.19
   4   1   0  224.72    4.08
  -4   1   0  234.49    4.12
   4  -1   0  228.15    4.35
   4   1   0  226.41    4.87
   4   1   0  221.35    5.19
   4  -1   0  232.47    5.39
   4   1   1   16.42    1.00
  -4   1  -1   16.30    0.98
  -4  -1   1   15.18    0.81
   4  -1  -1   15.24    1.29
  -4  -1   1   15.09    1.13
  -4   1  -1   14.89    1.33
   4   1   1   15.53    1.15
   4  -1  -1   15.63    0.97
   4   1   1   15.42    1.28
   4   1   2  169.60    3.76
  -4   1  -2  164.12    3.71
   4  -1  -2  163.46    4.46
  -4  -1   2  159.75    3.96
   4   1   2  166.02    4.11
   4  -1  -2  179.11    3.63
   4   1   2  167.08    4.35
   4   1   2  165.33    4.38
   4   1   3  882.04   12.64
  -4   1  -3  899.78   12.69
   4  -1  -3  853.25   13.68
  -4  -1   3  884.38   12.86
   4   1   3  904.37   13.05
   4  -1  -3  892.14   12.13
   4   1   3  906.70   13.54
   4   1   3  875.95   13.48
   4   1   4 1037.68   14.67
  -4   1  -4 1060.86   14.69
   4  -1  -4  997.43   15.54
  -4   1  -4 1021.60   15.53
  -4  -1   4 1007.00   14.54
   4  -1  -4 1051.15   13.95
   4   1   4 1064.46   14.87
   4   1   4 1009.45   15.20
   4   1   4 1023.18   15.28
   4   1   5  638.02   10.49
  -4   1  -5  645.74   10.50
  -4   1  -5  639.40   11.04
   4  -1  -5  649.29   11.31
   4   1   5  640.38   10.50
  -4  -1   5  639.88   10.24
   4  -1  -5  666.44    9.80
   4   1   5  661.76   11.02
   4   1   5  630.41   10.79
   4  -1  -5  648.27   10.99
  -4   1  -6  413.54    8.33
  -4  -1   6  426.63    7.77
   4  -1  -6  428.92    7.37
   4   1   6  428.03    8.07
  -4   1  -6  430.07    8.07
   4  -1  -6  420.01    8.16
   4  -1  -6  408.90    8.39
   4   1   6  417.47    8.29
  -4   1  -7 1812.11   24.91
  -4  -1   7 1849.59   24.12
   4   1   7 1792.34   24.64
  -4   1  -7 1841.38   24.70
   4  -1  -7 1861.38   25.08
   4   1   7 1794.37   24.83
   4  -1  -7 1806.22   25.33
  -4   1  -8   20.77    1.64
  -4  -1   8   21.90    1.57
   4   1   8   20.29    1.66
  -4   1  -8   20.51    1.66
   4  -1  -8   22.66    1.82
   4  -1  -8   19.95    1.79
   4   1   8   21.56    1.70
  -4   1  -9   44.99    2.44
  -4  -1   9   46.46    2.38
   4   1   9   46.16    2.57
   4  -1  -9   45.53    2.11
  -4   1  -9   46.94    2.60
   4  -1  -9   46.50    2.70
   4   1   9   45.03    2.52
   4  -1  -9   44.27    2.73
  -4   1 -10    7.20    1.09
  -4  -1  10    8.19    1.11
   4   1  10    7.72    1.19
  -4   1 -10    6.87    0.97
  -4   1 -10    6.86    1.14
   4  -1 -10    7.88    1.01
   4  -1 -10    8.36    1.29
   4  -1 -10    8.97    1.42
  -4   1 -11  525.65   10.06
  -4  -1  11  516.38   10.03
   4  -1 -11  511.33   10.94
   4   1  11  487.15   10.43
  -4   1 -11  506.50    9.56
   4  -1 -11  522.59    9.53
  -4   1 -11  523.08   10.84
  -4   1 -12   13.31    1.44
  -4  -1  12   11.24    1.37
   4  -1 -12   12.24    1.66
  -4   1 -12   13.57    1.41
   4  -1 -12   12.90    1.33
  -4   1 -12   12.60    1.64
  -4   1 -13  195.07    5.65
  -4  -1  13  193.77    5.88
   4  -1 -13  198.80    6.74
  -4   1 -13  193.18    5.70
   4  -1 -13  192.17    5.59
  -4   1 -14  577.83   11.20
   4  -1 -14  603.19   13.21
  -4   1 -14  583.61   11.59
   4  -1 -14  587.77   11.48
  -4   1 -15 1033.62   16.95
  -4   1 -15 1015.06   17.55
   4  -1 -15 1047.40   17.44
   4  -1 -15 1056.75   19.54
  -4   1 -16  100.78    4.51
   4  -1 -16  103.29    4.52
   4  -1 -16  100.80    5.25
  -4   1 -17  109.97    4.93
   4  -1 -17  111.01    4.86
  -4   1 -18   23.80    2.41
   4  -1 -18   22.58    2.32
  -4   1 -19   21.09    2.36
   4  -1 -19   19.34    2.23
  -4   1 -20  145.92    6.30
   4  -1 -20  151.51    6.30
  -4   1 -21   62.21    4.19
   4  -1 -21   71.33    4.42
  -4   1 -22  245.12    8.68
   4  -1 -22  243.55    8.59
  -4   1 -23  132.50    6.39
   4  -1 -23  133.93    6.33
  -4   1 -24  307.76   10.08
   4  -1 -24  295.01    9.78
  -4   1 -25   61.71    4.42
   4  -1 -25   65.15    4.47
  -4   1 -26   60.63    4.42
   4  -1 -26   61.58    4.34
   4   1  26   65.93    4.79
  -4   1 -27   26.05    2.96
   4  -1 -27   25.83    2.93
   4   1  27   25.23    3.03
  -4   1 -28   54.87    4.00
   4  -1 -28   57.67    4.04
   4   1  28   54.91    4.41
  -4   1 -29   91.72    5.03
   4  -1 -29   90.34    4.93
   4   1  29  105.16    5.82
  -4   1 -30   49.23    3.67
   4  -1 -30   49.57    3.58
  -4   1 -31   21.92    2.45
   4  -1 -31   22.16    2.41
   4   1  31   27.02    2.85
   4  -2  31   48.77    3.73
   4   2 -30   19.63    2.47
  -4  -2 -30   25.26    2.69
   4  -2  30   25.25    2.79
   4   2 -29   67.95    4.28
  -4  -2 -29   68.75    4.32
   4  -2  29   79.54    5.02
   4   2 -28  430.63   11.67
  -4  -2 -28  417.47   11.47
   4  -2  28  423.81   12.49
   4   2 -27   64.43    4.44
  -4  -2 -27   70.42    4.61
   4  -2  27   69.95    4.93
   4   2 -26  161.28    7.07
  -4  -2 -26  160.44    7.03
   4  -2  26  157.21    7.45
   4   2 -25  174.01    7.39
  -4  -2 -25  172.01    7.30
   4   2 -25  167.51    8.44
   4   2 -24  204.29    8.04
  -4  -2 -24  201.56    7.93
   4   2 -23  446.38   12.26
  -4  -2 -23  412.51   11.69
   4   2 -22  545.35   13.64
  -4  -2 -22  524.87   13.25
   4   2 -21  194.41    7.57
  -4  -2 -21  197.95    7.54
   4   2 -20  352.07   10.14
  -4  -2 -20  308.66    9.40
   4   2 -19  116.94    5.53
  -4  -2 -19  126.63    5.60
   4   2 -19  116.24    6.31
   4   2 -19  127.53    6.66
   4   2 -18  180.88    6.73
  -4  -2 -18  184.40    6.65
   4   2 -18  194.12    8.00
   4   2 -18  195.91    8.13
   4   2 -17  471.11   11.19
  -4  -2 -17  451.26   10.84
   4   2 -17  489.37   12.88
   4   2 -17  466.01   12.75
   4   2 -16   63.27    3.64
  -4  -2 -16   63.74    3.55
   4   2 -16   68.77    4.39
   4   2 -16   69.76    4.54
   4   2 -15   34.92    2.62
  -4  -2 -15   37.75    2.63
   4   2 -15   38.10    3.22
   4   2 -15   36.83    3.23
   4  -2  14  534.24   11.38
  -4   2  14  527.61   10.38
   4   2 -14  537.04   11.01
  -4  -2 -14  537.71   10.82
   4   2 -14  543.80   12.54
   4   2 -14  512.03   12.48
  -4  -2 -13  606.48   10.32
   4  -2  13  627.58   12.45
  -4   2  13  651.98   11.45
   4   2 -13  582.90    8.47
  -4  -2 -13  646.19   11.84
   4   2 -13  663.06   13.71
   4   2 -13  660.08   13.98
  -4  -2 -12 3735.48   44.70
   4  -2  12 3729.82   47.39
  -4   2  12 3809.71   45.59
  -4  -2 -12 3707.80   46.03
  -4  -2 -12 3718.69   44.53
   4   2 -12 3819.55   48.69
   4   2 -12 3763.08   49.17
  -4  -2 -11  147.81    4.09
   4  -2  11  140.93    4.96
  -4   2  11  142.31    4.14
   4   2 -11  132.15    2.50
  -4  -2 -11  134.26    4.93
  -4  -2 -11  148.32    4.49
  -4  -2 -11  144.55    4.07
   4   2 -11  147.90    5.36
   4   2 -11  134.69    5.35
  -4  -2 -10  522.48    9.04
   4  -2  10  527.34   10.45
  -4   2  10  534.61    8.91
  -4   2  10  547.44   10.04
  -4  -2 -10  525.43   10.38
  -4  -2 -10  520.93    9.25
   4   2 -10  513.85   10.63
  -4  -2 -10  517.76    9.01
  -4  -2  -9   21.11    1.51
   4  -2   9   20.09    1.77
  -4   2   9   18.68    1.30
  -4   2   9   17.22    1.51
   4   2  -9   20.34    1.73
  -4  -2  -9   20.97    1.76
  -4  -2  -9   18.81    1.43
   4   2  -9   16.40    0.58
   4   2  -9   17.05    0.58
  -4  -2  -9   18.53    1.61
   4   2  -9   16.91    1.70
   4  -2   9   20.58    1.74
  -4  -2  -8 1131.04   14.82
   4  -2   8 1066.56   16.00
  -4   2   8 1090.12   13.65
  -4   2   8 1064.53   15.11
   4   2  -8 1132.93   15.83
  -4  -2  -8 1044.49   15.42
   4   2  -8  892.47   10.91
  -4  -2  -8 1102.64   14.13
   4   2  -8  832.42   10.89
   4   2  -8 1065.49   15.66
  -4  -2  -8 1088.58   14.91
   4  -2   8 1062.85   15.60
   4   2  -8 1047.02   16.38
  -4  -2  -7  223.36    5.18
   4  -2   7  231.81    5.96
  -4   2   7  218.44    5.34
  -4   2   7  229.47    4.38
   4   2  -7  233.89    5.63
   4   2  -7  174.23    2.55
   4   2  -7  182.65    2.56
  -4  -2  -7  234.18    5.62
   4   2  -7  218.16    5.48
   4   2  -7  219.92    5.98
   4  -2   7  210.07    5.45
  -4   2   6  525.04    7.61
   4  -2   6  532.71    9.82
  -4   2   6  503.31    9.12
  -4  -2  -6  535.28    9.04
   4   2  -6  511.61    9.18
   4   2  -6  463.64    5.90
   4   2  -6  457.93    5.89
  -4  -2  -6  545.07    9.24
   4   2  -6  513.40    9.03
   4  -2   6  503.72    9.32
   4   2  -6  505.16    9.70
  -4  -2  -5  597.64    9.94
   4   2  -5  575.92    7.24
  -4   2   5  603.10    8.49
  -4  -2  -5  563.42    9.87
  -4   2   5  601.68   10.31
   4  -2   5  590.61   10.69
   4   2  -5  584.26   10.04
   4  -2   5  585.64   10.22
   4   2  -5  584.52   10.55
  -4   2   4 2573.75   28.94
  -4  -2  -4 2655.51   31.90
   4   2  -4 2581.65   29.21
  -4   2   4 2501.88   28.95
   4   2  -4 2512.04   32.35
  -4   2   4 2569.83   30.10
  -4   2   4 2593.32   32.71
  -4  -2  -4 2436.96   32.18
   4  -2   4 2648.34   33.22
   4   2  -4 2470.81   32.03
   4   2  -4 2555.72   32.72
   4   2  -4 2460.79   32.60
   4  -2   4 2508.98   32.36
   4   2  -3  450.93    6.26
  -4  -2  -3  452.69    7.77
  -4   2   3  445.02    6.10
   4   2  -3  463.52    8.32
   4  -2   3  451.23    7.19
  -4   2   3  460.51    8.66
  -4  -2  -3  444.77    8.40
   4   2  -3  445.60    8.06
   4  -2   3  424.19    8.62
  -4   2   3  460.85    6.65
   4   2  -3  443.57    8.35
   4  -2   3  454.74    8.35
   4   2  -3  445.00    8.40
  -4   2   2 1098.85   13.87
  -4  -2  -2 1112.72   15.23
   4   2  -2 1113.31   13.99
   4  -2   2 1136.59   14.59
  -4   2   2 1154.09   16.66
   4   2  -2 1090.89   15.72
   4  -2   2 1133.39   16.63
  -4  -2  -2 1126.61   16.41
   4   2  -2 1110.03   16.08
   4  -2   2 1114.77   16.05
  -4   2   1  240.47    4.25
  -4  -2  -1  248.60    4.83
   4   2  -1  240.45    4.32
  -4   2   1  247.70    5.86
   4   2  -1  255.02    5.38
   4  -2   1  250.01    4.42
  -4  -2  -1  242.88    5.84
   4  -2   1  233.40    5.40
   4   2  -1  241.55    5.48
  -4   2   0  360.84    5.93
  -4  -2   0  365.28    6.14
   4   2   0  379.32    6.08
  -4  -2   0  368.59    6.91
   4  -2   0  358.83    5.68
   4   2   0  358.18    6.86
  -4   2   0  362.61    7.51
   4  -2   0  363.96    7.06
   4   2   0  358.78    7.02
  -4   2  -1  254.25    4.77
   4   2   1  232.36    4.67
  -4   2  -1  246.21    5.88
   4   2   1  236.73    5.29
  -4  -2   1  244.43    5.31
   4  -2  -1  242.52    4.19
   4  -2  -1  246.24    5.50
   4   2   1  243.57    5.47
  -4   2  -2 1152.40   15.42
   4   2   2 1146.61   15.43
  -4   2  -2 1135.83   16.82
  -4  -2   2 1139.16   15.97
   4  -2  -2 1138.83   14.34
   4   2   2 1122.11   16.03
   4   2   2 1140.54   16.25
   4  -2  -2 1081.30   16.23
  -4   2  -3  406.85    7.31
   4   2   3  403.53    7.28
  -4  -2   3  418.91    7.61
   4  -2  -3  419.91    6.32
   4   2   3  412.08    7.83
   4   2   3  412.85    7.67
   4  -2  -3  406.72    7.90
   4   2   4 2591.90   32.25
  -4  -2   4 2563.02   32.33
   4  -2  -4 2602.37   30.68
   4   2   4 2518.78   32.68
   4  -2  -4 2552.36   33.00
   4   2   4 2483.50   32.42
  -4   2  -5  574.66    9.71
   4   2   5  560.90    9.69
  -4   2  -5  558.70   10.21
  -4  -2   5  552.16    9.59
   4  -2  -5  563.70    8.40
   4   2   5  548.75    9.71
   4   2   5  566.20    9.89
   4   2   6  522.35    9.54
  -4   2  -6  527.77    9.58
  -4   2  -6  552.20   10.15
  -4  -2   6  541.27    9.49
   4   2   6  516.17    9.62
   4   2   7  210.17    5.54
  -4   2  -7  208.70    5.64
  -4  -2   7  215.35    5.39
   4   2   7  207.35    5.51
  -4   2  -8 1121.89   16.91
  -4  -2   8 1101.02   16.40
   4   2   8 1086.88   16.82
  -4   2  -8 1088.82   16.89
   4  -2  -8 1067.91   15.16
  -4  -2   8 1052.24   15.79
   4   2   8 1074.52   16.62
  -4  -2   9   23.05    1.73
  -4   2  -9   26.10    1.93
   4   2   9   23.00    1.87
  -4   2  -9   23.13    1.88
   4  -2  -9   22.68    1.53
  -4  -2   9   22.17    1.57
   4   2   9   22.70    1.83
  -4   2 -10  518.84   10.24
  -4  -2  10  516.42   10.04
  -4  -2  10  522.46    9.02
   4   2  10  495.54   10.42
  -4   2 -10  540.59   10.83
   4  -2 -10  517.63    9.35
   4   2  11  131.14    4.93
  -4   2 -11  149.46    5.26
   4  -2 -11  143.16    4.42
  -4   2 -11  143.89    4.84
  -4  -2  11  143.88    4.82
   4  -2 -12 3775.67   46.71
  -4   2 -12 3728.76   47.53
  -4  -2  12 3694.32   47.56
   4  -2 -13  654.41   12.02
  -4   2 -13  640.03   12.27
   4  -2 -14  507.96   10.46
  -4   2 -14  492.58   10.55
  -4   2 -15   41.31    2.82
   4  -2 -15   40.37    2.70
  -4   2 -16   62.20    3.67
   4  -2 -16   72.49    3.76
  -4   2 -17  474.50   11.26
   4  -2 -17  451.06   10.73
  -4   2 -18  170.52    6.56
   4  -2 -18  181.82    6.52
  -4   2 -19  115.56    5.52
   4  -2 -19  115.50    5.29
  -4   2 -20  328.43    9.92
   4  -2 -20  338.27    9.74
  -4   2 -21  187.94    7.48
   4  -2 -21  180.35    7.15
  -4   2 -22  534.94   13.66
   4  -2 -22  548.88   13.46
  -4   2 -23  439.49   12.33
   4  -2 -23  454.34   12.25
  -4   2 -24  197.15    7.99
   4  -2 -24  212.97    8.13
  -4   2 -25  176.32    7.51
   4  -2 -25  166.40    7.20
   4   2  25  170.10    7.72
  -4   2 -26  164.54    7.24
   4  -2 -26  157.37    6.90
   4   2  26  160.49    7.52
  -4   2 -27   64.16    4.48
   4  -2 -27   66.98    4.48
   4   2  27   74.27    5.06
  -4   2 -28  413.17   11.59
   4  -2 -28  431.59   11.62
   4   2  28  439.30   12.69
  -4   2 -29   68.73    4.36
   4  -2 -29   68.66    4.29
   4   2  29   67.06    4.61
  -4   2 -30   25.71    2.76
   4  -2 -30   30.12    2.89
   4   2  30   35.13    3.26
   4   2  31   45.40    3.60
   4  -3  31  182.30    6.96
   4  -3  31  181.34    7.11
  -4  -3 -30   43.42    3.33
   4   3 -30   42.91    3.37
   4  -3  30   47.66    3.68
  -4  -3 -29   50.96    3.79
   4   3 -29   49.53    3.71
   4  -3  29   56.33    4.15
   4   3 -28  173.51    7.11
  -4  -3 -28  182.54    7.22
   4  -3  28  193.20    8.00
   4   3 -27   49.09    3.93
  -4  -3 -27   40.77    3.47
   4  -3  27   49.52    4.10
   4   3 -26   44.09    3.78
  -4  -3 -26   48.85    3.88
   4   3 -26   45.30    4.44
   4  -3  26   51.18    4.17
  -4  -3 -25   10.40    1.96
   4   3 -25    6.68    1.90
   4  -3  25   10.42    2.05
   4   3 -24  324.28   10.33
  -4  -3 -24  300.95    9.83
   4   3 -23  836.70   18.15
  -4  -3 -23  859.89   18.03
   4   3 -22  510.22   13.21
  -4  -3 -22  503.48   12.89
   4   3 -21  232.41    8.37
  -4  -3 -21  230.04    8.15
   4   3 -21  245.20    9.85
   4   3 -20  195.58    7.45
  -4  -3 -20  185.05    7.06
   4   3 -20  197.29    8.66
   4   3 -19  181.19    7.05
  -4  -3 -19  191.22    6.98
   4   3 -19  181.13    8.06
   4   3 -19  192.20    8.30
   4   3 -18  134.35    5.82
  -4  -3 -18  132.76    5.60
   4   3 -18  141.10    6.86
   4   3 -18  136.39    6.77
   4   3 -17  491.46   11.73
  -4  -3 -17  498.00   11.45
   4   3 -17  523.40   13.57
   4   3 -17  516.72   13.58
  -4  -3 -16  468.72   10.73
   4   3 -16  477.10   12.50
   4   3 -16  462.80   12.57
  -4  -3 -15  266.39    7.43
   4   3 -15  264.29    8.74
   4   3 -15  264.19    8.92
  -4  -3 -14  314.43    7.95
   4   3 -14  328.51    9.55
   4   3 -14  317.97    9.58
  -4  -3 -13  476.23    8.17
  -4  -3 -13  507.01   10.22
   4   3 -13  488.23    7.64
   4   3 -13  509.30   11.84
   4   3 -13  495.84   12.07
  -4  -3 -12  301.11    6.17
   4  -3  12  332.37    8.57
  -4   3  12  357.84    7.67
  -4   3  12  339.70    6.95
   4   3 -12  322.12    5.57
  -4  -3 -12  349.01    7.80
  -4  -3 -12  317.97    6.77
   4   3 -12  321.97    8.83
   4   3 -12  330.32    9.19
  -4  -3 -11  465.07    8.15
   4  -3  11  479.81   10.44
  -4   3  11  475.84    9.17
  -4   3  11  472.29    8.37
   4   3 -11  448.86    7.02
  -4  -3 -11  447.95   10.17
  -4  -3 -11  484.62    9.30
  -4  -3 -11  461.11    8.65
   4   3 -11  450.28   10.45
   4   3 -11  461.03   10.92
  -4  -3 -10  189.61    4.66
   4  -3  10  209.30    6.26
  -4   3  10  209.28    5.40
  -4   3  10  204.36    4.62
   4   3 -10  210.48    6.22
  -4   3  10  185.06    3.51
   4   3 -10  192.28    3.73
  -4  -3 -10  199.78    6.01
  -4  -3 -10  196.84    5.21
   4   3 -10  214.19    6.38
  -4  -3 -10  198.46    5.13
   4  -3  10  195.00    5.70
  -4  -3  -9  872.11   13.19
   4  -3   9  909.21   15.38
  -4   3   9  888.80   13.90
  -4   3   9  895.46   12.49
   4   3  -9  903.94   15.20
   4   3  -9  837.50   11.54
   4   3  -9  882.86   11.54
  -4   3   9  855.10   11.16
  -4  -3  -9  886.86   14.90
  -4  -3  -9  905.36   13.63
   4   3  -9  896.46   15.18
  -4  -3  -9  877.23   13.67
   4  -3   9  890.66   14.64
  -4  -3  -8  801.67   12.40
  -4   3   8  784.86   12.76
   4  -3   8  803.83   14.06
  -4   3   8  825.59   11.25
   4   3  -8  805.68   13.81
   4   3  -8  805.63   10.52
   4   3  -8  762.94   10.52
  -4   3   8  787.22   10.23
  -4  -3  -8  793.92   13.62
  -4  -3  -8  792.75   12.23
  -4  -3  -8  813.41   12.76
   4   3  -8  796.84   13.70
   4  -3   8  787.22   13.36
  -4  -3  -7  170.54    4.51
  -4   3   7  166.89    4.69
   4  -3   7  174.60    5.41
  -4   3   7  176.92    3.57
   4   3  -7  183.34    5.24
   4   3  -7  173.36    3.33
  -4   3   7  172.55    3.11
  -4  -3  -7  181.53    5.14
  -4  -3  -7  179.96    4.31
  -4  -3  -7  171.34    4.71
   4   3  -7  170.81    5.00
   4  -3   7  173.70    4.99
   4   3  -7  173.51    5.45
   4  -3   6    6.07    1.03
  -4  -3  -6    9.68    1.06
  -4   3   6    8.55    0.65
  -4   3   6    7.18    1.03
   4   3  -6    8.72    1.11
   4  -3   6    7.19    1.13
  -4  -3  -6    8.81    1.12
   4   3  -6    7.60    0.62
  -4   3   6    7.47    0.55
   4   3  -6    6.15    0.98
  -4  -3  -6    9.10    1.22
   4   3  -6    9.86    1.26
   4  -3   6    5.49    0.99
  -4   3   5  857.32   10.89
  -4   3   5  866.23   13.51
   4  -3   5  878.93   14.33
  -4  -3  -5  843.14   13.15
   4   3  -5  895.26   13.75
  -4  -3  -5  858.00   13.46
   4   3  -5  833.53   11.18
  -4   3   5  845.52   11.03
  -4  -3  -5  859.22   13.41
   4   3  -5  829.04   13.04
   4  -3   5  860.66   13.46
   4  -3   5  834.97   13.74
   4   3  -5  845.92   14.06
  -4   3   4 2746.43   34.56
   4  -3   4 2793.56   35.48
  -4  -3  -4 2663.09   34.15
   4   3  -4 2697.32   34.36
  -4   3   4 2646.99   31.84
  -4  -3  -4 2847.00   34.20
   4   3  -4 2750.79   31.94
  -4  -3  -4 2621.21   34.25
   4  -3   4 2684.12   34.20
   4   3  -4 2665.14   34.82
   4  -3   4 2740.14   34.72
  -4   3   3  285.51    6.45
   4  -3   3  284.87    6.70
  -4  -3  -3  293.10    6.38
   4   3  -3  281.48    4.89
  -4  -3  -3  286.95    5.97
  -4  -3  -3  267.23    6.25
   4  -3   3  281.98    6.39
   4  -3   3  283.75    6.16
   4   3  -3  284.57    6.47
   4   3  -3  274.32    6.22
  -4  -3  -2  280.37    5.69
   4   3  -2  269.26    4.85
   4  -3   2  269.06    4.61
  -4   3   2  268.34    6.23
   4  -3   2  267.80    6.14
   4  -3   2  260.61    5.81
   4   3  -2  265.03    5.92
   4   3  -2  263.02    6.08
  -4  -3  -1    8.85    0.91
   4   3  -1    8.89    0.79
  -4   3   1    9.18    1.11
   4  -3   1    9.39    0.66
   4  -3   1    9.03    1.06
   4  -3   1    9.62    1.06
   4   3  -1    8.75    0.96
  -4   3   0  798.33   12.77
  -4  -3   0  800.10   12.29
   4  -3   0  757.19    9.95
   4  -3   0  786.81   12.76
   4   3   0  801.80   11.26
  -4  -3   0  768.08   12.63
   4  -3   0  768.23   12.44
   4   3   0  783.24   12.12
   4  -3   0  773.28   12.06
   4  -3  -1    6.91    1.00
  -4   3  -1    7.39    1.03
  -4  -3   1    6.11    0.91
   4  -3  -1    8.30    0.53
   4  -3  -1    5.73    0.93
   4   3   1    7.43    0.83
  -4  -3   1    6.46    1.07
   4  -3  -1    6.37    0.86
   4   3   1    7.92    0.97
   4  -3  -2  259.72    6.06
  -4   3  -2  265.58    6.24
  -4  -3   2  263.30    5.84
   4  -3  -2  256.78    3.91
  -4   3  -2  257.70    5.35
   4   3   2  257.91    5.42
  -4  -3   2  249.23    5.99
   4  -3  -2  259.40    5.81
   4   3   2  253.94    5.69
   4  -3  -3  284.87    6.54
  -4   3  -3  303.56    6.85
  -4  -3   3  290.65    6.29
   4  -3  -3  278.87    4.30
  -4   3  -3  290.36    6.00
   4   3   3  297.45    6.06
  -4  -3   3  292.52    6.49
   4  -3  -3  289.29    6.38
   4   3   3  290.56    6.24
  -4   3  -4 2612.43   34.69
   4  -3  -4 2678.77   34.86
  -4  -3   4 2731.59   34.10
  -4   3  -4 2849.59   34.04
   4   3   4 2579.12   33.68
  -4  -3   4 2705.17   34.27
   4   3   4 2717.40   34.03
   4   3   4 2642.86   33.58
   4   3   5  821.96   13.24
  -4  -3   5  859.14   13.31
  -4   3  -5  878.29   13.37
   4   3   5  807.12   13.08
  -4  -3   5  836.30   13.21
   4   3   5  834.77   13.17
   4   3   5  806.14   12.82
   4   3   6    9.80    1.14
  -4  -3   6    9.61    1.14
  -4   3  -6   10.18    1.22
   4   3   6    9.22    1.14
  -4  -3   6   10.14    1.20
   4   3   6   11.07    1.23
  -4   3  -7  201.82    5.65
   4   3   7  192.35    5.33
  -4  -3   7  188.91    5.27
  -4   3  -7  207.18    5.59
   4   3   7  190.23    5.36
   4  -3  -7  189.94    4.43
  -4  -3   7  195.45    4.98
   4   3   7  188.33    5.21
  -4  -3   8  810.43   13.40
  -4   3  -8  819.81   13.90
   4   3   8  783.98   13.34
  -4   3  -8  814.42   13.81
   4   3   8  780.16   13.51
   4  -3  -8  773.14   12.03
  -4  -3   8  773.85   12.43
   4   3   8  804.50   13.36
  -4   3  -9  897.97   14.60
  -4  -3   9  874.24   14.16
   4   3   9  896.95   14.32
  -4   3  -9  907.74   14.82
   4   3   9  832.15   14.36
   4  -3  -9  883.58   12.97
  -4  -3   9  861.64   12.99
   4   3   9  856.56   14.02
  -4   3 -10  195.81    5.86
  -4  -3  10  189.91    5.68
   4   3  10  189.74    5.90
  -4   3 -10  197.12    6.06
   4  -3 -10  194.84    5.11
  -4  -3  10  183.47    4.82
  -4   3 -10  191.00    5.47
   4   3  10  191.54    5.63
  -4   3 -11  472.51    9.99
  -4  -3  11  463.63    9.83
  -4  -3  11  435.42    8.31
  -4   3 -11  461.82    9.15
   4   3  11  449.57   10.20
  -4   3 -11  496.11   10.65
   4  -3 -11  462.61    9.11
  -4   3 -12  312.26    7.95
   4  -3 -12  311.74    7.35
  -4   3 -12  311.91    7.24
   4  -3 -13  520.18   10.36
  -4   3 -13  491.58   10.05
   4  -3 -14  320.34    8.00
   4  -3 -15  239.18    6.97
   4  -3 -16  449.34   10.39
  -4   3 -17  478.15   11.60
   4  -3 -17  502.13   11.40
  -4   3 -18  137.15    5.94
   4  -3 -18  127.75    5.48
  -4   3 -19  169.23    6.84
   4  -3 -19  170.96    6.54
  -4   3 -20  193.05    7.51
   4  -3 -20  199.92    7.31
  -4   3 -21  225.61    8.31
   4  -3 -21  224.45    7.98
  -4   3 -22  523.14   13.60
   4  -3 -22  539.17   13.33
  -4   3 -23  838.82   18.22
   4  -3 -23  829.85   17.70
  -4   3 -24  339.78   10.71
   4  -3 -24  318.96   10.14
   4   3  24  338.91   10.96
   4  -3 -25    8.67    1.90
  -4   3 -25    8.11    2.01
   4   3  25   10.28    1.99
  -4   3 -26   48.52    4.01
   4  -3 -26   44.14    3.65
   4   3  26   52.72    4.22
  -4   3 -27   46.76    3.90
   4  -3 -27   44.39    3.61
   4   3  27   50.14    4.07
  -4   3 -28  181.22    7.36
   4  -3 -28  189.01    7.36
   4   3  28  206.79    8.20
   4  -3 -29   53.77    3.81
  -4   3 -29   54.67    3.94
   4   3  29   58.84    4.24
   4  -3 -30   34.49    2.99
  -4   3 -30   36.81    3.13
   4   3  30   43.96    3.52
   4   3  31  187.99    7.05
  -4  -4 -30   16.46    2.13
   4   4 -30   13.33    1.96
   4  -4  30   14.89    2.25
   4  -4  30   17.37    2.30
  -4  -4 -29  115.96    5.49
   4   4 -29  119.36    5.60
   4  -4  29  116.84    5.83
  -4  -4 -28   65.64    4.32
   4   4 -28   72.48    4.54
   4  -4  28   77.51    4.90
  -4  -4 -27  102.47    5.41
   4   4 -27  110.26    5.77
   4   4 -27   98.85    6.34
   4  -4  27  110.75    5.97
   4   4 -26  113.37    5.96
  -4  -4 -26  124.42    6.04
   4  -4  26  113.92    6.14
  -4  -4 -25    5.41    1.52
   4   4 -25    4.76    1.60
   4  -4  25    5.11    1.57
   4   4 -24  138.14    6.69
  -4  -4 -24  150.96    6.74
   4  -4  24  148.98    7.07
   4   4 -23  501.34   13.34
  -4  -4 -23  503.77   12.97
   4  -4  23  493.00   13.42
   4   4 -22 1152.76   22.26
  -4  -4 -22 1139.92   21.69
   4   4 -21  170.00    7.16
  -4  -4 -21  176.06    7.06
   4   4 -21  162.69    8.02
   4   4 -20  552.61   13.63
  -4  -4 -20  553.70   13.30
   4   4 -20  580.42   15.61
   4   4 -20  596.01   15.86
   4   4 -19  252.04    8.46
  -4  -4 -19  238.25    7.98
   4   4 -19  253.55    9.68
   4   4 -19  234.29    9.39
  -4  -4 -18  711.83   14.81
   4   4 -18  703.24   16.90
   4   4 -18  720.00   17.17
  -4  -4 -17  437.25   10.75
   4   4 -17  453.14   12.67
   4   4 -17  448.30   12.74
  -4  -4 -16   11.74    1.67
   4   4 -16    8.99    1.97
   4   4 -16    9.44    1.90
  -4  -4 -15   71.83    3.75
   4   4 -15   73.03    4.53
   4   4 -15   68.77    4.52
  -4  -4 -14  133.96    5.04
   4   4 -14  136.95    5.98
   4   4 -14  141.53    6.26
  -4  -4 -13  378.49    8.78
   4   4 -13  397.58   10.35
  -4  -4 -13  366.97    7.62
   4   4 -13  387.85   10.58
  -4  -4 -12  560.43    8.91
   4   4 -12  588.53    9.30
  -4  -4 -12  625.55   11.55
   4   4 -12  610.15   12.98
  -4  -4 -12  573.82   10.39
   4   4 -12  617.62   13.51
  -4  -4 -11  732.15   11.16
  -4   4  11  751.25   12.24
   4   4 -11  750.80   11.13
  -4  -4 -11  767.42   12.63
   4   4 -11  761.06   14.69
   4   4 -11  763.46   15.19
   4  -4  11  737.90   13.56
  -4  -4 -10  344.51    6.58
   4  -4  10  359.62    9.00
  -4   4  10  360.20    6.23
   4   4 -10  361.42    8.93
  -4   4  10  347.44    7.26
   4   4 -10  350.82    6.27
  -4  -4 -10  359.24    8.78
  -4   4  10  340.62    6.07
  -4  -4 -10  376.60    7.89
  -4  -4 -10  359.02    7.60
   4   4 -10  350.82    8.79
   4   4 -10  363.35    9.33
   4  -4  10  355.69    8.19
  -4  -4  -9   38.29    1.90
   4  -4   9   39.01    2.72
  -4   4   9   40.66    1.56
  -4   4   9   43.76    2.24
   4   4  -9   40.23    2.65
  -4  -4  -9   38.27    2.57
  -4   4   9   38.18    1.60
  -4  -4  -9   44.20    2.34
  -4  -4  -9   37.21    2.23
   4   4  -9   39.44    2.63
   4  -4   9   36.88    2.34
  -4   4   8  246.75    5.85
  -4  -4  -8  236.57    5.41
   4  -4   8  235.56    6.85
  -4   4   8  252.14    4.26
  -4  -4  -8  260.34    5.86
  -4  -4  -8  247.17    6.64
   4   4  -8  239.20    4.88
  -4   4   8  252.03    4.70
  -4  -4  -8  239.08    6.00
   4   4  -8  247.00    6.68
   4  -4   8  239.88    6.20
  -4   4   7  219.02    5.42
  -4   4   7  216.05    3.48
   4  -4   7  208.23    6.22
  -4  -4  -7  201.33    4.98
   4   4  -7  209.99    4.39
  -4  -4  -7  217.71    5.15
  -4   4   7  208.69    4.19
  -4  -4  -7  203.57    5.78
  -4  -4  -7  203.93    5.47
   4   4  -7  209.04    5.81
   4  -4   7  211.09    5.81
   4  -4   7  204.48    5.48
  -4   4   6  110.82    3.72
  -4   4   6  104.96    1.83
   4  -4   6  109.13    4.31
  -4  -4  -6  109.21    3.53
  -4  -4  -6  115.69    3.44
   4   4  -6  112.32    2.96
  -4  -4  -6  113.30    3.99
  -4   4   6  113.83    2.88
  -4  -4  -6  105.04    3.75
   4   4  -6  114.32    4.04
   4  -4   6  114.22    4.06
   4   4  -6  109.45    4.26
   4  -4   6  105.68    3.70
  -4   4   5  375.98    7.66
   4  -4   5  361.09    8.39
  -4  -4  -5  371.50    7.47
   4   4  -5  377.67    6.51
  -4   4   5  378.97    6.43
  -4  -4  -5  388.76    8.01
  -4  -4  -5  368.95    7.74
   4   4  -5  369.74    7.87
   4  -4   5  387.16    7.69
   4  -4   5  382.55    8.06
   4   4  -5  384.17    8.44
  -4   4   4 4306.01   51.87
   4  -4   4 4264.51   52.95
  -4  -4  -4 4323.27   51.67
   4   4  -4 4252.96   49.94
  -4  -4  -4 4246.88   51.93
  -4   4   4 4247.86   50.03
   4   4  -4 4315.70   52.43
  -4  -4  -4 4201.08   51.81
   4   4  -4 4319.69   52.72
   4  -4   4 4218.50   52.02
   4  -4   4 4193.08   51.45
  -4   4   3  233.89    5.71
   4   4  -3  219.24    4.64
  -4  -4  -3  239.11    5.66
  -4  -4  -3  216.89    5.56
   4   4  -3  221.60    5.93
   4   4  -3  224.63    5.50
   4  -4   3  226.35    5.33
   4  -4   3  221.62    5.64
   4   4  -2   14.50    1.10
  -4   4   2   15.86    1.43
   4  -4   2   13.94    0.77
   4  -4   2   14.71    1.37
   4  -4   2   15.30    1.29
   4   4  -2   16.59    1.39
   4   4  -1  833.14   11.91
  -4   4   1  797.71   13.11
   4  -4   1  783.88    9.94
   4   4  -1  818.58   12.98
   4  -4   1  806.70   13.46
   4  -4   1  810.61   12.43
   4  -4   1  801.82   12.92
   4   4  -1  785.66   12.40
  -4   4   0   83.53    3.28
   4  -4   0   82.96    3.18
  -4  -4   0   79.35    3.11
   4   4   0   88.26    3.26
   4  -4   0   72.24    1.35
   4  -4   0   79.57    3.29
   4   4   0   80.53    2.71
  -4  -4   0   79.62    3.16
   4  -4   0   76.09    2.84
   4   4   0   82.18    2.94
   4  -4  -1  809.87   13.14
  -4   4  -1  848.99   13.58
  -4  -4   1  825.92   13.12
   4   4   1  824.73   13.16
   4  -4  -1  828.56   13.43
   4   4   1  808.93   12.32
   4  -4  -1  813.95   12.95
  -4  -4   1  789.46   13.09
   4  -4  -1  826.07   12.70
   4   4   1  806.31   12.56
  -4   4  -2   11.96    1.34
  -4  -4   2   15.58    1.40
   4   4   2   11.09    1.20
   4  -4  -2    9.93    1.16
   4   4   2   10.71    1.08
   4  -4  -2   10.73    1.17
  -4  -4   2   13.46    1.43
   4  -4  -2   11.86    1.20
   4   4   2   10.23    1.13
  -4   4  -3  231.25    6.05
   4   4   3  228.68    5.75
  -4  -4   3  229.43    5.74
   4  -4  -3  238.38    5.97
   4   4   3  234.14    5.49
  -4  -4   3  235.71    5.79
   4  -4  -3  243.33    5.72
   4   4   3  226.30    5.41
   4  -4  -4 4309.11   51.83
   4   4   4 4123.63   51.31
  -4  -4   4 4204.31   51.34
  -4   4  -4 4335.52   52.10
   4   4   4 4163.88   50.94
  -4  -4   4 4269.53   51.27
   4   4   4 4029.81   50.68
   4   4   4 4188.75   50.14
  -4   4  -5  399.70    8.62
   4   4   5  410.02    8.31
  -4  -4   5  385.19    8.14
  -4   4  -5  389.79    8.06
   4   4   5  397.00    8.13
  -4  -4   5  392.28    8.02
   4   4   5  374.45    7.42
   4   4   5  398.91    7.86
   4   4   6  132.04    4.38
  -4  -4   6  135.47    4.41
  -4   4  -6  135.31    4.45
   4  -4  -6  139.13    3.79
   4   4   6  142.11    4.54
  -4  -4   6  135.92    4.25
   4   4   6  128.37    3.93
   4   4   6  134.31    4.19
   4   4   7  193.61    5.48
  -4  -4   7  190.88    5.46
   4  -4  -7  191.17    4.72
  -4   4  -7  196.22    5.64
   4   4   7  175.12    5.34
  -4  -4   7  192.29    5.13
   4   4   7  184.57    5.15
  -4   4  -8  247.13    6.73
   4   4   8  245.42    6.46
  -4  -4   8  264.95    6.70
   4  -4  -8  245.83    5.68
  -4   4  -8  250.39    6.74
   4   4   8  242.13    6.58
  -4  -4   8  237.44    5.91
   4   4   8  247.36    6.26
  -4   4  -9   37.20    2.53
   4   4   9   43.22    2.60
  -4  -4   9   42.77    2.60
  -4   4  -9   39.43    2.63
   4   4   9   42.51    2.69
   4  -4  -9   38.38    2.16
  -4  -4   9   36.09    2.14
   4   4   9   42.99    2.50
  -4   4 -10  343.07    7.88
   4   4  10  341.69    7.64
  -4  -4  10  340.15    7.68
  -4   4 -10  349.87    8.17
   4   4  10  326.57    7.83
   4  -4 -10  335.87    6.74
  -4  -4  10  343.53    6.60
   4   4  10  342.50    7.43
  -4   4 -11  796.62   14.55
   4  -4 -11  772.31   13.23
  -4  -4  11  795.11   12.70
  -4   4 -11  764.23   15.18
   4   4  11  745.55   13.74
   4  -4 -12  610.64   11.52
  -4   4 -12  628.88   12.18
   4  -4 -13  387.39    8.78
  -4   4 -13  361.70    8.70
   4  -4 -14  136.75    5.03
  -4   4 -14  125.79    4.91
   4  -4 -15   81.41    3.96
  -4   4 -15   73.11    3.81
   4  -4 -16   11.15    1.56
  -4   4 -16    8.37    1.49
   4  -4 -17  429.56   10.54
  -4   4 -17  418.45   10.46
   4  -4 -18  712.34   14.74
  -4   4 -19  247.75    8.49
   4  -4 -19  245.24    8.02
  -4   4 -20  537.24   13.53
   4  -4 -20  554.82   13.16
  -4   4 -21  189.63    7.63
   4  -4 -21  177.18    7.08
  -4   4 -22 1151.33   22.33
   4  -4 -22 1158.26   21.66
  -4   4 -23  519.51   13.70
   4  -4 -23  511.70   13.11
   4   4  23  506.39   13.64
  -4   4 -24  141.79    6.76
   4  -4 -24  145.72    6.63
   4   4  24  140.14    6.88
   4  -4 -25    7.26    1.73
  -4   4 -25    7.76    1.85
   4   4  25    5.70    1.68
  -4   4 -26  113.81    5.96
   4  -4 -26  107.53    5.63
   4   4  26  113.43    6.17
   4  -4 -27  101.18    5.36
  -4   4 -27   97.03    5.45
   4   4  27  101.06    5.71
   4  -4 -28   70.05    4.41
  -4   4 -28   68.29    4.45
   4   4  28   74.58    4.82
   4  -4 -29   97.77    5.03
  -4   4 -29  106.23    5.33
   4   4  29  115.70    5.80
   4  -4 -30   17.73    2.19
  -4   4 -30   14.54    2.03
   4   4  30   17.02    2.34
   4  -5  30   69.17    4.33
   4  -5  30   67.25    4.10
  -4  -5 -29   12.09    2.04
   4   5 -29   11.52    2.00
   4  -5  29   13.46    2.19
   4  -5  29   11.51    2.05
  -4  -5 -28   92.21    5.03
   4   5 -28   84.28    4.88
   4   5 -28   88.04    5.68
   4  -5  28   93.31    5.15
   4  -5  28   89.09    5.24
  -4  -5 -27    7.64    1.63
   4   5 -27    7.89    1.75
   4  -5  27    7.72    1.82
  -4  -5 -26   32.13    3.20
   4   5 -26   29.71    3.15
   4  -5  26   32.16    3.25
  -4  -5 -25   45.92    3.76
   4   5 -25   41.64    3.68
   4  -5  25   46.47    3.90
  -4  -5 -24  136.48    6.38
   4   5 -24  120.71    6.29
   4  -5  24  129.41    6.45
   4   5 -23  497.59   13.39
  -4  -5 -23  505.00   13.08
   4  -5  23  522.60   13.74
   4   5 -22  301.29    9.95
  -4  -5 -22  299.54    9.59
   4  -5  22  289.31    9.77
   4   5 -22  292.47   11.09
   4   5 -21  153.32    6.83
  -4  -5 -21  151.47    6.57
   4   5 -21  164.36    8.12
   4   5 -21  155.21    7.91
   4  -5  21  145.84    6.69
   4   5 -20  400.96   11.46
  -4  -5 -20  398.64   11.10
   4   5 -20  444.41   13.43
   4   5 -20  430.88   13.35
   4  -5  20  417.13   11.59
  -4  -5 -19  167.03    6.67
   4   5 -19  156.73    7.66
   4   5 -19  170.85    8.01
  -4  -5 -18  143.94    6.03
   4   5 -18  142.74    7.13
   4   5 -18  159.95    7.57
  -4  -5 -17   66.62    3.94
   4   5 -17   66.37    4.67
   4   5 -17   73.54    5.00
  -4  -5 -16  333.64    9.14
   4   5 -16  338.04   10.57
   4   5 -16  341.64   10.85
  -4  -5 -15  351.69    9.07
   4   5 -15  335.81   10.23
   4   5 -15  329.32   10.42
   4  -5  15  328.27    8.96
  -4  -5 -14   54.41    3.26
   4   5 -14   54.05    3.82
   4   5 -14   61.11    4.21
   4  -5  14   54.30    3.33
  -4  -5 -13    4.50    1.04
   4   5 -13    2.55    1.22
  -4  -5 -13    4.43    0.87
   4   5 -13    2.76    1.22
   4  -5  13    5.28    1.08
   4  -5  12  349.67    8.60
   4   5 -12  360.28    7.15
  -4  -5 -12  379.38    8.78
  -4  -5 -12  375.24    8.04
   4   5 -12  369.14    9.84
   4  -5  12  365.66    8.82
   4   5 -12  364.74   10.20
  -4  -5 -11  315.14    7.60
   4   5 -11  296.09    6.17
  -4  -5 -11  297.22    7.08
   4   5 -11  293.40    8.42
   4  -5  11  303.59    7.66
   4   5 -11  309.52    8.97
  -4  -5 -10   17.97    1.20
   4  -5  10   18.27    1.65
  -4  -5 -10   23.01    1.88
   4   5 -10   18.52    2.02
  -4  -5 -10   21.75    1.84
   4   5 -10   18.61    2.10
   4  -5  10   20.68    1.88
  -4   5   9  179.79    4.82
  -4  -5  -9  172.27    4.26
   4  -5   9  166.56    6.01
  -4  -5  -9  190.43    5.38
   4   5  -9  177.50    4.52
  -4  -5  -9  182.75    5.97
  -4   5   9  177.86    4.31
  -4  -5  -9  180.06    5.31
   4   5  -9  180.06    5.96
   4  -5   9  177.05    5.62
   4  -5   9  180.72    5.37
   4   5  -9  179.02    6.29
  -4   5   8    4.73    0.80
   4  -5   8    5.19    1.15
  -4  -5  -8    4.84    0.76
  -4  -5  -8    4.72    1.08
  -4   5   8    5.92    0.77
  -4  -5  -8    5.48    1.03
   4   5  -8    7.26    0.91
  -4  -5  -8    6.48    1.13
   4  -5   8    5.94    1.03
  -4   5   7   71.49    2.94
   4  -5   7   68.33    3.58
  -4  -5  -7   69.75    2.74
   4   5  -7   74.56    3.54
  -4  -5  -7   74.48    3.01
   4   5  -7   70.44    2.63
  -4  -5  -7   74.82    3.50
  -4   5   7   70.30    2.55
   4   5  -7   73.48    3.66
  -4  -5  -7   71.98    3.21
   4  -5   7   69.60    3.27
   4  -5   7   68.41    3.00
  -4   5   6   17.28    1.45
   4  -5   6   13.63    1.64
  -4  -5  -6   17.35    1.39
   4   5  -6   20.18    1.82
  -4   5   6   16.48    1.22
  -4  -5  -6   15.12    1.32
  -4  -5  -6   16.47    1.64
   4   5  -6   17.44    1.29
  -4  -5  -6   16.20    1.57
   4   5  -6   14.02    1.94
   4  -5   6   13.55    1.36
   4  -5   6   14.63    1.53
  -4   5   5  873.49   13.60
  -4  -5  -5  824.51   13.23
   4   5  -5  913.43   14.60
  -4  -5  -5  903.36   14.45
  -4  -5  -5  824.30   12.85
   4   5  -5  850.76   12.63
  -4   5   5  860.15   12.61
  -4  -5  -5  834.56   13.84
   4  -5   5  847.55   13.27
   4   5  -5  853.54   14.72
   4  -5   5  840.12   13.85
  -4   5   4 1247.31   14.51
   4   5  -4 1283.55   15.43
   4  -5   4 1204.86   11.55
   4   5  -4 1222.85   13.21
  -4  -5  -4 1221.52   13.39
  -4   5   4 1240.16   13.30
  -4  -5  -4 1212.82   14.77
   4   5  -4 1260.59   16.08
   4  -5   4 1239.05   14.79
   4  -5   4 1242.28   13.82
  -4   5   3 1642.36   22.54
   4   5  -3 1632.44   22.94
   4  -5   3 1576.42   19.50
   4   5  -3 1637.75   21.44
  -4  -5  -3 1608.78   21.24
  -4  -5  -3 1631.65   22.75
   4  -5   3 1589.74   21.67
   4  -5   3 1595.16   22.43
   4   5  -2  734.98   11.56
  -4  -5  -2  706.46   11.12
  -4   5   2  781.25   12.65
   4  -5   2  729.28    9.12
   4  -5   2  747.16   13.08
   4   5  -2  766.06   12.72
   4  -5   2  716.27    9.19
   4   5  -2  701.03   11.67
   4  -5   2  752.26   12.37
   4  -5   2  753.96   11.70
   4  -5   1  367.20    8.21
   4   5  -1  377.26    7.30
  -4   5   1  375.90    7.96
   4  -5   1  366.47    8.22
   4   5  -1  371.72    7.95
   4  -5   1  362.61    7.69
   4   5  -1  354.06    7.15
   4  -5   1  371.85    7.20
   4  -5   0  838.62   13.48
  -4   5   0  854.66   13.83
   4   5   0  827.01   13.64
   4  -5   0  838.50   14.00
   4  -5   0  824.83   13.82
   4   5   0  811.86   12.85
  -4  -5   0  797.14   13.60
   4   5   0  814.87   12.68
   4  -5   0  846.80   12.82
  -4   5  -1  354.16    7.86
   4  -5  -1  368.35    7.74
   4   5   1  370.45    7.85
   4  -5  -1  352.60    7.93
   4  -5  -1  348.24    7.77
   4   5   1  358.30    7.29
  -4  -5   1  351.80    7.86
   4  -5  -1  372.05    7.25
   4   5   1  346.58    6.98
   4  -5  -2  754.35   12.70
  -4   5  -2  753.76   13.02
   4   5   2  762.96   12.80
   4  -5  -2  766.10   12.88
  -4  -5   2  771.59   12.10
   4  -5  -2  759.25   12.64
   4   5   2  737.02   12.31
   4  -5  -2  734.08   11.43
  -4  -5   2  741.72   12.88
   4   5   2  743.15   11.87
   4  -5  -2  753.05   12.08
  -4  -5   3 1585.68   21.54
  -4   5  -3 1600.55   23.20
   4  -5  -3 1604.43   22.87
  -4  -5   3 1559.01   22.68
   4  -5  -3 1604.26   22.75
   4   5   3 1632.62   22.51
   4  -5  -3 1617.83   22.39
   4  -5  -3 1594.77   21.29
  -4  -5   3 1603.79   22.82
   4   5   3 1613.59   21.82
   4  -5  -4 1243.05   18.73
  -4  -5   4 1228.60   17.18
  -4   5  -4 1213.67   18.96
  -4  -5   4 1234.94   18.72
   4   5   4 1254.27   18.66
   4  -5  -4 1222.00   17.89
   4  -5  -4 1219.38   17.21
   4   5   4 1291.42   18.61
  -4  -5   4 1227.18   18.53
   4   5   4 1227.16   17.69
  -4   5  -5  877.83   14.77
   4   5   5  860.00   14.27
  -4  -5   5  843.16   14.25
   4  -5  -5  846.61   13.32
   4  -5  -5  868.25   13.06
   4   5   5  867.78   14.26
  -4  -5   5  856.77   14.10
   4   5   5  803.32   12.68
   4   5   5  845.74   13.41
  -4   5  -6   17.36    1.73
   4   5   6   16.51    1.60
  -4  -5   6   15.30    1.57
   4  -5  -6   16.48    1.42
  -4   5  -6   12.79    1.44
   4  -5  -6   17.48    1.41
   4   5   6   15.45    1.58
  -4  -5   6   16.82    1.62
   4   5   6   14.66    1.30
   4   5   6   17.32    1.51
   4  -5  -7   80.61    2.98
   4   5   7   83.26    3.60
  -4  -5   7   89.75    3.76
  -4   5  -7   85.15    3.74
   4  -5  -7   82.75    3.13
   4   5   7   82.38    3.71
  -4  -5   7   80.59    3.40
   4   5   7   76.73    3.20
   4   5   7   82.39    3.10
   4   5   8   15.33    1.61
  -4  -5   8   11.75    1.47
   4  -5  -8   12.18    1.19
  -4   5  -8   11.79    1.51
   4  -5  -8   12.92    1.38
   4   5   8   11.95    1.52
  -4  -5   8   11.56    1.38
   4   5   8   17.29    1.59
  -4   5  -9  184.14    6.05
   4   5   9  197.14    5.94
   4  -5  -9  190.79    5.31
  -4   5  -9  183.63    6.09
   4   5   9  182.24    6.05
  -4  -5   9  181.92    5.25
   4   5   9  192.59    5.55
   4  -5 -10   20.65    1.74
  -4  -5  10   19.56    1.72
   4   5  10   17.03    1.69
   4  -5 -11  305.63    7.41
  -4  -5  11  289.72    6.87
   4   5  11  295.38    7.59
   4  -5 -12  390.94    8.78
  -4  -5  12  351.72    7.76
  -4   5 -12  341.33   10.48
   4   5  12  386.85    9.04
   4  -5 -13    3.51    0.91
  -4   5 -13    5.20    1.42
   4   5  13    3.59    0.96
   4  -5 -14   56.46    3.28
  -4   5 -14   52.50    3.33
   4   5  14   56.06    3.35
   4  -5 -15  320.06    8.58
  -4   5 -15  313.09    8.73
   4   5  15  314.05    8.71
   4  -5 -16  332.91    8.98
  -4   5 -16  311.62    8.95
   4   5  16  329.96    9.13
   4  -5 -17   72.78    4.09
  -4   5 -17   63.36    3.91
   4   5  17   68.92    4.10
   4  -5 -18  145.06    5.99
  -4   5 -18  144.33    6.08
   4   5  18  144.05    6.16
   4  -5 -19  160.49    6.51
  -4   5 -19  155.33    6.46
   4   5  19  156.34    6.56
  -4   5 -20  405.59   11.58
   4  -5 -20  405.64   11.03
   4   5  20  399.62   11.25
  -4   5 -21  156.73    7.03
   4  -5 -21  153.13    6.60
   4   5  21  154.32    6.83
  -4   5 -22  305.62   10.11
   4  -5 -22  294.97    9.48
   4   5  22  287.09    9.73
  -4   5 -23  485.29   13.29
   4  -5 -23  484.42   12.77
   4   5  23  510.18   13.48
   4  -5 -24  141.67    6.51
  -4   5 -24  137.05    6.69
   4   5  24  130.99    6.56
   4  -5 -25   48.20    3.81
  -4   5 -25   46.66    3.93
   4   5  25   49.01    4.00
   4  -5 -26   35.89    3.35
  -4   5 -26   33.25    3.38
   4   5  26   29.96    3.19
   4  -5 -27   10.97    2.04
  -4   5 -27   16.20    2.35
   4   5  27   11.32    2.08
   4  -5 -28   77.81    4.63
  -4   5 -28   78.84    4.73
   4   5  28   77.03    4.79
   4  -5 -29   14.55    2.22
  -4   5 -29   12.50    2.09
   4   5  29   14.05    2.20
  -4  -6 -29  156.61    6.13
   4   6 -29  170.16    6.52
   4   6 -29  173.53    7.56
   4  -6  29  170.69    6.44
   4  -6  29  175.44    6.83
  -4  -6 -28  149.58    6.23
   4   6 -28  150.09    6.43
   4  -6  28  164.31    6.54
   4  -6  28  166.55    6.90
  -4  -6 -27   80.38    4.70
   4   6 -27   72.40    4.63
   4  -6  27   75.28    4.57
   4  -6  27   71.96    4.69
  -4  -6 -26  215.19    8.06
   4   6 -26  202.64    7.95
   4  -6  26  204.57    7.84
   4  -6  26  205.90    8.15
  -4  -6 -25  117.43    5.94
   4   6 -25  114.23    6.03
   4  -6  25  116.82    5.93
  -4  -6 -24  168.40    7.16
   4   6 -24  163.52    7.25
   4  -6  24  164.92    7.17
  -4  -6 -23  479.32   12.73
   4   6 -23  472.62   13.04
   4   6 -23  462.48   14.30
   4  -6  23  498.99   13.11
  -4  -6 -22   53.18    3.99
   4   6 -22   51.84    4.07
   4   6 -22   59.45    5.00
   4  -6  22   56.41    4.14
   4   6 -22   53.48    4.70
  -4  -6 -21  100.84    5.34
   4   6 -21   97.23    5.51
   4   6 -21   96.39    6.22
   4  -6  21   91.52    5.24
   4   6 -21  102.42    6.40
  -4  -6 -20  257.38    8.73
   4   6 -20  277.95   10.56
   4   6 -20  250.73   10.09
   4  -6  20  262.73    8.90
  -4  -6 -19  112.87    5.54
   4   6 -19  101.55    6.25
   4   6 -19  115.22    6.63
   4  -6  19  108.61    5.47
  -4  -6 -18  439.04   11.43
   4   6 -18  447.75   13.31
   4  -6  18  456.20   11.67
   4   6 -18  441.42   13.39
  -4  -6 -17 1293.50   22.41
   4   6 -17 1284.66   24.80
   4  -6  17 1303.31   22.50
   4   6 -17 1306.31   25.33
  -4  -6 -16   64.66    3.88
   4   6 -16   61.01    4.39
   4   6 -16   65.16    4.71
   4  -6  16   62.71    3.83
  -4  -6 -15  100.24    4.73
   4   6 -15   91.82    5.28
   4  -6  15   97.12    4.64
   4   6 -15   93.80    5.52
  -4  -6 -14  338.28    9.03
  -4  -6 -14  322.83    7.61
   4   6 -14  332.90   10.07
   4  -6  14  331.03    8.82
   4   6 -14  354.26   10.75
  -4  -6 -13   69.19    3.74
  -4  -6 -13   66.35    3.24
   4   6 -13   69.72    4.27
   4  -6  13   69.61    3.69
   4   6 -13   73.29    4.61
  -4  -6 -12  525.68   11.22
  -4  -6 -12  498.14   10.21
   4   6 -12  498.05   12.13
   4  -6  12  489.46   10.67
   4   6 -12  512.38   12.76
   4  -6  11  523.81   10.68
  -4  -6 -11  593.67   11.82
  -4  -6 -11  558.70   10.95
   4   6 -11  553.16   12.52
   4  -6  11  533.32   11.56
   4   6 -11  555.09   13.07
   4  -6  11  565.14   11.22
   4   6 -10  959.85   17.61
  -4  -6 -10  961.31   15.88
   4  -6  10  940.48   15.73
   4   6 -10  942.64   18.02
   4  -6  10  977.68   16.62
  -4  -6  -9   79.99    2.68
   4  -6   9   82.89    3.28
   4   6  -9   80.72    3.24
  -4  -6  -9   91.77    3.79
  -4  -6  -9   85.03    3.73
   4   6  -9   92.85    4.47
   4  -6   9   82.83    3.81
   4  -6   9   89.03    3.63
   4   6  -9   87.41    4.51
  -4  -6  -8   72.68    2.73
   4  -6   8   73.31    2.89
  -4   6   8   75.72    3.06
  -4  -6  -8   79.32    3.41
  -4   6   8   81.13    3.08
   4   6  -8   76.84    3.10
  -4  -6  -8   81.87    3.64
   4   6  -8   75.28    4.23
   4  -6   8   75.12    3.53
   4   6  -8   73.95    4.01
   4  -6   8   75.65    3.26
  -4  -6  -7   71.27    2.84
   4  -6   7   71.72    2.68
  -4   6   7   76.18    3.11
   4   6  -7   68.94    2.89
  -4  -6  -7   78.60    3.30
  -4  -6  -7   72.82    3.72
  -4   6   7   78.10    3.02
  -4  -6  -7   67.94    3.37
   4   6  -7   71.54    4.43
   4  -6   7   72.04    3.11
   4  -6   7   77.22    3.47
  -4   6   6  215.11    5.56
  -4  -6  -6  206.72    5.26
   4   6  -6  216.91    6.44
   4  -6   6  210.87    4.60
  -4   6   6  221.79    5.41
  -4  -6  -6  217.37    5.60
   4   6  -6  209.49    5.31
  -4  -6  -6  209.02    6.02
   4  -6   6  218.29    5.95
   4  -6   6  217.83    5.47
  -4   6   5 1057.44   16.36
   4   6  -5 1063.27   17.58
  -4  -6  -5 1070.01   16.21
   4  -6   5 1052.48   14.30
  -4  -6  -5 1083.09   16.23
   4   6  -5 1089.32   16.09
  -4   6   5 1053.57   15.94
  -4  -6  -5 1067.03   17.09
   4  -6   5 1078.44   16.74
   4  -6   5 1060.53   15.86
  -4   6   4  987.93   15.35
   4  -6   4  922.44   16.56
   4   6  -4 1007.36   16.31
   4  -6   4  929.55   12.54
   4   6  -4  975.79   14.87
  -4   6   4  947.96   14.76
  -4  -6  -4 1016.75   15.02
  -4  -6  -4  984.58   15.91
   4  -6   4  945.60   15.28
   4  -6   4  964.54   14.51
  -4   6   3  859.02   13.94
   4  -6   3  818.58   10.36
   4  -6   3  875.84   15.10
   4  -6   3  814.28   10.40
   4   6  -3  864.96   14.51
   4   6  -3  845.27   13.44
  -4  -6  -3  853.54   13.32
  -4  -6  -3  820.44   14.24
   4  -6   3  832.66   13.70
   4  -6   3  859.62   12.95
   4  -6   2  416.67    9.40
   4   6  -2  396.97    8.11
  -4  -6  -2  379.73    7.67
  -4   6   2  398.82    8.44
   4  -6   2  419.57    9.26
   4   6  -2  390.98    8.70
   4  -6   2  411.82    8.37
   4  -6   2  400.06    7.61
   4  -6   1    8.85    1.39
   4   6  -1    8.40    1.11
  -4   6   1    8.14    1.16
   4  -6   1    9.30    1.16
   4  -6   1    8.12    1.24
   4   6  -1    8.79    1.24
   4   6  -1    7.92    0.95
   4  -6   1    8.83    1.01
  -4   6   0   33.21    2.20
   4  -6   0   35.24    2.20
  -4  -6   0   39.88    2.40
   4  -6   0   35.96    2.41
   4   6   0   39.88    2.43
   4  -6   0   34.93    2.44
   4   6   0   33.32    2.11
  -4  -6   0   32.41    2.26
   4   6   0   33.48    1.86
   4  -6   0   34.93    1.93
  -4   6  -1   15.50    1.61
   4  -6  -1   13.43    1.37
  -4  -6   1   14.38    1.51
   4   6   1   14.97    1.53
   4  -6  -1   13.87    1.54
  -4  -6   1   14.58    1.48
   4  -6  -1   16.25    1.68
   4   6   1   16.55    1.52
  -4  -6   1   16.10    1.63
   4   6   1   14.99    1.27
   4  -6  -1   16.72    1.38
  -4   6  -2  408.02    9.02
   4  -6  -2  413.48    8.69
  -4  -6   2  428.28    8.48
   4   6   2  441.28    9.08
   4  -6  -2  420.81    8.96
   4   6   2  403.79    8.60
   4  -6  -2  426.01    9.03
   4  -6  -2  412.63    8.02
  -4  -6   2  420.93    9.02
   4   6   2  407.23    7.76
  -4  -6   3  819.24   13.41
   4  -6  -3  840.84   14.15
  -4   6  -3  847.29   14.60
   4   6   3  847.11   14.32
   4  -6  -3  850.52   14.12
   4  -6  -3  850.45   14.24
   4   6   3  829.43   14.12
   4  -6  -3  840.31   13.24
  -4  -6   3  867.66   14.47
   4   6   3  808.87   12.83
   4  -6  -4  945.29   15.46
  -4   6  -4  948.26   16.14
  -4  -6   4  983.29   14.86
   4   6   4  966.84   15.82
   4  -6  -4  970.55   15.47
   4   6   4  953.66   15.80
   4  -6  -4  958.15   14.71
  -4  -6   4  965.80   15.82
   4   6   4  934.95   14.42
  -4   6  -5 1077.18   17.48
   4   6   5 1035.98   16.80
   4  -6  -5 1023.34   16.21
  -4  -6   5 1015.46   15.47
   4  -6  -5 1043.59   15.74
   4   6   5 1045.74   17.00
  -4  -6   5 1042.47   16.70
   4   6   5  999.35   15.40
  -4   6  -6  257.08    7.15
  -4  -6   6  239.05    5.76
   4   6   6  248.31    6.69
   4  -6  -6  239.31    6.13
   4  -6  -6  254.41    6.14
   4   6   6  245.80    6.86
  -4  -6   6  243.16    6.53
   4   6   6  242.13    5.92
   4  -6  -7   73.96    3.16
   4   6   7   80.69    3.67
   4  -6  -7   72.99    3.13
   4   6   7   75.34    3.75
  -4  -6   7   71.02    3.36
   4   6   7   79.43    3.24
   4  -6  -8   73.87    3.11
   4  -6  -8   70.59    3.14
  -4  -6   8   77.82    3.50
   4   6   8   75.56    3.27
   4  -6  -9   78.37    3.18
   4  -6  -9   79.68    3.49
  -4  -6   9   86.04    3.68
   4   6   9   80.87    3.47
   4  -6 -10  961.70   15.94
  -4  -6  10  951.71   15.72
   4   6  10  937.19   15.73
   4  -6 -11  562.35   11.38
  -4  -6  11  539.06   10.69
   4   6  11  548.62   11.09
   4  -6 -12  494.85    9.62
  -4  -6  12  473.30    8.59
   4   6  12  495.71    9.49
   4  -6 -13   71.50    3.74
   4   6  13   70.55    3.71
   4  -6 -14  316.74    8.58
  -4   6 -14  316.57    9.41
   4   6  14  312.03    8.50
   4  -6 -15  101.60    4.77
  -4   6 -15   96.30    4.87
   4   6  15  103.52    4.79
   4  -6 -16   67.14    3.92
  -4   6 -16   57.40    3.83
   4   6  16   60.03    3.74
   4  -6 -17 1325.64   22.42
   4   6  17 1309.74   22.35
   4  -6 -18  426.18   11.12
  -4   6 -18  403.34   11.15
   4   6  18  425.00   11.13
   4  -6 -19   93.11    4.97
  -4   6 -19   88.84    5.01
   4   6  19   94.24    5.07
  -4   6 -20  235.10    8.49
   4   6  20  251.80    8.63
   4  -6 -21  109.23    5.54
  -4   6 -21   90.62    5.39
   4   6  21   96.44    5.33
   4  -6 -22   49.53    3.78
  -4   6 -22   45.81    3.87
   4   6  22   48.19    3.84
   4  -6 -23  460.73   12.48
  -4   6 -23  473.63   13.10
   4   6  23  469.92   12.75
   4  -6 -24  166.91    7.16
  -4   6 -24  176.24    7.59
   4   6  24  186.23    7.62
   4  -6 -25  121.88    6.04
  -4   6 -25  106.79    5.86
   4   6  25  113.02    5.91
   4  -6 -26  198.85    7.77
  -4   6 -26  202.08    7.99
   4   6  26  214.97    8.14
   4  -6 -27   67.29    4.35
  -4   6 -27   64.16    4.34
   4   6  27   64.24    4.32
   4  -6 -28  168.58    6.63
  -4   6 -28  160.98    6.66
   4   6  28  176.29    6.96
   4  -6 -29  161.70    6.20
  -4   6 -29  165.07    6.46
  -4  -7 -28   71.19    4.17
   4   7 -28   73.97    4.40
   4  -7  28   74.84    4.40
  -4  -7 -27    8.02    1.84
   4   7 -27    9.42    1.86
   4  -7  27    9.07    1.85
  -4  -7 -26   18.97    2.46
   4   7 -26   21.86    2.75
  -4  -7 -26   18.46    2.48
   4  -7  26   20.08    2.61
   4  -7  26   18.54    2.48
  -4  -7 -25   10.11    1.89
   4   7 -25    8.55    1.86
   4  -7  25    5.52    1.66
   4  -7  25    5.73    1.67
  -4  -7 -24  122.09    5.96
   4   7 -24  122.38    6.22
   4  -7  24  125.39    5.97
   4  -7  24  133.87    6.47
  -4  -7 -23  131.98    6.35
   4   7 -23  127.87    6.45
   4   7 -23  131.13    7.38
   4  -7  23  147.84    6.85
   4  -7  23  138.69    6.30
   4   7 -23  136.66    7.38
  -4  -7 -22   48.00    3.82
   4   7 -22   49.17    4.06
   4   7 -22   50.82    4.66
   4  -7  22   43.43    3.80
   4   7 -22   49.14    4.46
   4  -7  22   45.59    3.63
  -4  -7 -21   15.27    2.30
   4   7 -21   10.61    2.29
   4   7 -21    9.32    2.19
   4  -7  21   11.74    2.01
  -4  -7 -20  218.54    8.19
   4   7 -20  205.09    9.19
   4   7 -20  212.72    9.25
   4  -7  20  214.69    7.83
  -4  -7 -19   73.76    4.65
   4   7 -19   70.22    5.36
   4  -7  19   76.10    4.48
   4   7 -19   78.34    5.53
   4   7 -18  254.67    9.93
   4   7 -18  258.77   10.17
   4  -7  18  267.36    8.58
  -4  -7 -17  275.28    8.89
   4   7 -17  252.71    9.70
   4  -7  17  272.73    8.42
   4   7 -17  257.25    9.97
  -4  -7 -16   43.57    3.37
   4   7 -16   43.71    3.90
   4  -7  16   41.83    3.14
   4   7 -16   44.67    4.06
  -4  -7 -15    6.37    1.50
   4   7 -15    3.44    1.48
   4  -7  15    6.47    1.43
   4   7 -15    3.85    1.77
  -4  -7 -14  317.99    7.97
   4   7 -14  331.98   10.39
   4  -7  14  344.51    8.92
   4   7 -14  345.13   10.90
   4  -7  14  327.82    9.27
  -4  -7 -13   77.55    4.14
  -4  -7 -13   78.76    3.70
   4   7 -13   73.01    4.55
   4   7 -13   79.54    4.91
   4  -7  13   78.65    3.86
   4  -7  13   75.72    4.14
  -4  -7 -12  990.82   17.28
  -4  -7 -12  896.95   15.94
   4   7 -12  944.74   18.50
   4   7 -12  951.95   19.20
   4  -7  12  918.14   16.13
   4  -7  12  945.44   17.16
  -4  -7 -11  163.36    5.73
  -4  -7 -11  161.36    5.54
   4   7 -11  176.40    6.82
   4   7 -11  164.31    6.87
   4  -7  11  161.42    5.80
   4  -7  11  155.59    5.28
  -4  -7 -10  173.14    5.80
  -4  -7 -10  186.20    5.95
   4   7 -10  187.36    6.98
   4   7 -10  175.13    6.95
   4  -7  10  177.23    5.95
   4  -7  10  178.47    5.48
   4  -7   9  115.93    3.87
  -4  -7  -9  119.85    4.63
   4   7  -9  112.79    4.21
  -4  -7  -9  130.46    4.90
   4   7  -9  125.03    5.89
   4  -7   9  113.14    4.15
   4  -7   9  118.66    4.69
   4   7  -9  118.25    5.50
   4  -7   8 1213.02   17.66
  -4  -7  -8 1279.85   19.76
   4   7  -8 1253.72   19.10
  -4  -7  -8 1308.26   20.22
   4  -7   8 1291.60   19.86
   4  -7   8 1267.42   18.77
   4   7  -8 1278.96   21.93
  -4  -7  -7  187.23    4.91
   4  -7   7  184.52    4.46
   4   7  -7  198.69    5.61
  -4  -7  -7  193.24    5.74
  -4   7   7  197.41    5.54
  -4  -7  -7  188.41    5.99
   4   7  -7  201.07    6.95
   4  -7   7  199.85    5.83
   4  -7   7  195.19    5.25
  -4   7   6   74.73    3.23
   4  -7   6   70.37    2.39
  -4  -7  -6   72.68    3.04
  -4   7   6   79.83    3.39
  -4  -7  -6   84.80    3.60
   4   7  -6   77.56    3.36
  -4  -7  -6   83.46    3.87
   4  -7   6   78.39    3.46
   4  -7   6   73.98    3.00
  -4   7   5   23.67    1.85
   4  -7   5   22.17    1.14
   4   7  -5   23.79    1.89
  -4  -7  -5   26.81    2.01
  -4   7   5   23.67    1.84
  -4  -7  -5   24.05    2.16
   4  -7   5   25.79    1.95
   4  -7   5   21.60    1.60
   4  -7   4 1040.60   17.96
  -4   7   4 1082.73   16.44
   4   7  -4 1057.75   16.36
  -4   7   4  992.33   15.91
  -4  -7  -4 1051.08   16.24
  -4  -7  -4 1062.76   17.24
   4  -7   4 1062.33   15.09
   4  -7   4 1016.11   16.05
  -4   7   3   52.84    2.81
   4  -7   3   55.80    3.30
   4   7  -3   54.83    3.09
   4   7  -3   58.93    2.94
   4  -7   3   56.79    3.47
  -4   7   3   49.31    2.59
  -4  -7  -3   53.99    2.78
  -4  -7  -3   55.55    3.10
   4  -7   3   58.06    2.81
   4  -7   3   53.74    2.36
   4  -7   2   37.65    2.80
   4   7  -2   33.41    2.26
  -4   7   2   37.47    2.41
   4  -7   2   34.89    2.18
   4  -7   2   31.44    2.44
   4   7  -2   33.42    2.40
   4  -7   2   34.41    1.88
   4   7  -1   30.70    2.20
   4  -7   1   28.46    2.43
   4  -7   1   31.98    2.11
  -4   7   1   31.23    2.23
   4  -7   1   31.13    2.39
   4   7  -1   31.75    2.30
  -4  -7  -1   31.02    2.24
   4  -7   1   26.97    1.67
   4  -7   0   28.54    2.01
  -4   7   0   27.34    2.12
   4  -7   0   28.04    2.26
   4   7   0   27.94    2.15
  -4  -7   0   28.66    2.15
   4  -7   0   28.61    2.39
   4   7   0   26.68    2.06
  -4  -7   0   28.82    2.29
   4  -7   0   29.79    1.75
  -4   7  -1   32.09    2.32
  -4  -7   1   30.89    2.24
   4  -7  -1   33.15    2.17
  -4  -7   1   32.14    2.27
   4  -7  -1   32.99    2.38
   4   7   1   29.65    2.23
  -4  -7   1   32.01    2.38
   4  -7  -1   34.12    2.51
   4   7   1   33.03    2.28
  -4   7  -2   35.38    2.46
  -4  -7   2   35.82    2.38
   4  -7  -2   38.06    2.35
  -4  -7   2   33.18    2.37
   4   7   2   35.85    2.42
   4  -7  -2   32.97    2.36
  -4  -7   2   39.18    2.67
   4  -7  -2   33.50    2.46
   4   7   2   33.54    2.37
  -4  -7   3   58.66    3.15
  -4   7  -3   55.83    3.16
  -4  -7   3   59.44    3.00
   4   7   3   58.61    3.13
   4  -7  -3   61.01    3.12
  -4  -7   3   58.96    3.22
   4  -7  -3   62.31    3.30
   4   7   3   61.98    3.25
   4  -7  -3   58.24    2.87
  -4   7  -4 1021.28   17.63
   4   7   4 1055.36   17.38
  -4  -7   4 1060.23   16.66
   4  -7  -4 1052.13   17.02
   4  -7  -4 1075.82   17.46
  -4  -7   4 1072.04   17.69
   4   7   4 1046.33   17.69
   4  -7  -4 1078.98   16.62
  -4  -7   5   29.19    2.08
   4  -7  -5   24.06    2.07
  -4  -7   5   25.88    2.19
   4   7   5   26.64    2.30
   4  -7  -5   23.41    1.88
  -4  -7   6   74.53    3.27
   4  -7  -6   80.71    3.62
  -4  -7   6   78.71    3.74
   4  -7  -6   72.18    3.29
   4  -7  -7  186.17    5.63
  -4  -7   7  186.37    5.39
   4  -7  -7  187.61    5.58
  -4  -7   7  180.95    5.82
   4  -7  -8 1280.40   19.26
   4  -7  -8 1240.08   19.29
  -4  -7   8 1216.35   19.61
   4   7   8 1230.15   18.49
   4  -7  -9  109.01    4.16
   4  -7  -9  113.04    4.40
  -4  -7   9  117.90    4.59
   4   7   9  115.09    4.16
   4  -7 -10  163.78    5.55
  -4  -7  10  178.87    5.73
   4   7  10  173.95    5.34
   4  -7 -11  170.06    5.83
  -4  -7  11  173.54    5.64
   4   7  11  164.35    5.38
   4  -7 -12  922.23   16.75
  -4  -7  12  971.72   16.25
   4   7  12  938.44   16.21
   4  -7 -13   81.59    4.15
   4   7  13   68.92    3.59
   4  -7 -14  360.84    9.57
  -4   7 -14  360.05   11.43
   4  -7 -15    6.13    1.46
  -4   7 -15    6.77    1.69
   4   7  15    3.87    1.20
   4  -7 -16   68.42    4.17
  -4   7 -16   56.08    4.04
   4   7  16   57.51    3.59
   4  -7 -17  272.37    8.75
  -4   7 -17  248.63    8.63
   4   7  17  248.12    7.97
   4  -7 -18  289.55    9.22
  -4   7 -18  265.76    9.04
   4   7  18  265.56    8.44
   4  -7 -19   81.84    4.87
  -4   7 -19   77.67    4.87
   4   7  19   83.84    4.66
   4  -7 -20  201.69    7.80
   4   7  20  196.51    7.41
  -4   7 -21    7.78    1.89
   4   7  21   10.68    1.98
   4  -7 -22   50.92    3.92
  -4   7 -22   41.79    3.74
   4   7  22   52.17    3.87
   4  -7 -23  137.40    6.46
  -4   7 -23  131.41    6.60
   4   7  23  142.06    6.43
   4  -7 -24  128.37    6.11
  -4   7 -24  124.54    6.33
   4   7  24  128.38    6.15
   4  -7 -25    8.82    1.83
  -4   7 -25   10.42    1.93
   4   7  25    7.55    1.83
   4  -7 -26   25.87    2.80
  -4   7 -26   26.09    2.97
   4   7  26   26.55    2.89
   4  -7 -27   10.06    1.86
  -4   7 -27    9.97    1.92
   4  -7 -28   73.67    4.26
  -4   7 -28   65.95    4.18
  -4  -8 -27   37.77    3.10
   4   8 -27   41.24    3.37
  -4  -8 -26   44.32    3.40
   4   8 -26   45.72    3.59
  -4  -8 -26   35.39    3.13
  -4  -8 -25   91.31    4.99
   4   8 -25   95.73    5.35
  -4  -8 -25   92.16    5.08
   4  -8  25   92.86    5.07
  -4  -8 -24  172.77    7.17
  -4  -8 -24  177.38    7.14
   4   8 -24  184.34    7.61
   4   8 -24  185.36    8.73
   4   8 -24  156.84    7.64
   4  -8  24  171.30    7.08
  -4  -8 -23  168.61    7.31
  -4  -8 -23  166.74    7.00
   4   8 -23  166.88    7.40
   4   8 -23  187.73    8.80
   4  -8  23  169.54    6.71
   4   8 -23  177.88    8.25
   4  -8  23  181.84    7.38
  -4  -8 -22   21.63    2.64
   4   8 -22   23.58    3.33
   4   8 -22   21.05    3.01
   4  -8  22   18.28    2.53
   4  -8  22   16.50    2.29
  -4  -8 -21  174.97    7.26
   4   8 -21  177.16    8.60
   4  -8  21  183.97    7.50
   4   8 -21  183.47    8.59
   4  -8  21  189.76    7.10
  -4  -8 -20  457.44   12.27
   4   8 -20  469.92   14.46
   4  -8  20  462.11   12.36
   4   8 -20  452.77   14.07
   4  -8  20  463.80   11.73
  -4  -8 -19  398.34   11.25
   4   8 -19  409.06   13.23
   4  -8  19  397.74   11.25
   4   8 -19  408.11   13.16
   4  -8  19  394.08   10.56
  -4  -8 -18  767.76   16.52
   4   8 -18  757.19   18.66
   4  -8  18  755.86   15.52
   4   8 -18  792.58   19.10
   4  -8  18  766.08   16.44
  -4  -8 -17  873.79   17.86
   4   8 -17  886.04   20.15
   4   8 -17  902.08   20.57
   4  -8  17  896.91   17.92
   4  -8  17  895.31   17.03
  -4  -8 -16 1125.69   20.79
   4   8 -16 1109.27   22.93
   4   8 -16 1136.78   23.47
   4  -8  16 1139.07   20.66
   4  -8  16 1107.74   19.48
  -4  -8 -15  214.40    7.53
   4   8 -15  222.36    8.71
   4   8 -15  201.76    8.58
   4  -8  15  209.72    7.34
   4  -8  15  197.90    6.61
  -4  -8 -14  233.96    7.81
  -4  -8 -14  232.82    6.92
   4   8 -14  240.54    8.93
   4  -8  14  235.15    7.07
   4   8 -14  244.94    9.32
   4  -8  14  241.50    7.78
  -4  -8 -13  187.83    6.80
  -4  -8 -13  178.41    6.08
   4   8 -13  199.58    7.93
   4  -8  13  197.97    6.19
   4   8 -13  177.94    7.75
   4  -8  13  187.61    6.63
  -4  -8 -12   77.58    4.17
   4   8 -12   86.16    5.05
  -4  -8 -12   83.27    4.06
   4  -8  12   75.09    3.64
   4   8 -12   77.48    4.95
   4  -8  12   75.77    4.03
  -4  -8 -11  361.29    9.42
   4   8 -11  380.16   11.02
  -4  -8 -11  353.52    9.07
   4  -8  11  359.16    8.36
   4   8 -11  360.73   10.88
   4  -8  11  359.57    9.17
  -4  -8 -10  653.30   13.38
  -4  -8 -10  637.13   13.26
   4   8 -10  656.49   15.26
   4  -8  10  650.25   11.99
   4  -8  10  668.01   13.10
  -4  -8  -9  604.31   12.63
   4   8  -9  624.15   16.07
  -4  -8  -9  635.62   13.06
   4  -8   9  644.64   12.51
   4   8  -9  630.70   14.64
   4  -8   9  635.52   11.45
   4   8  -8  313.46    7.93
  -4  -8  -8  319.13    8.27
  -4  -8  -8  329.70    8.59
   4  -8   8  333.53    8.06
   4   8  -8  329.51    9.78
  -4  -8  -7  129.17    4.92
   4   8  -7  124.26    4.72
  -4  -8  -7  135.91    5.29
   4  -8   7  129.01    4.63
   4   8  -7  129.56    5.87
  -4  -8  -6  757.53   13.95
   4   8  -6  766.85   13.94
   4   8  -6  774.70   16.15
  -4  -8  -6  772.29   14.68
   4  -8   6  759.96   13.40
   4   8  -5  619.87   12.11
  -4  -8  -5  641.03   12.25
  -4  -8  -5  643.31   12.88
   4  -8   5  645.68   11.65
  -4   8   4   18.87    1.77
  -4  -8  -4   17.95    1.99
  -4   8   4   15.05    1.61
   4  -8   4   16.38    2.19
   4   8  -4   16.08    1.75
  -4  -8  -4   21.32    1.93
  -4  -8  -4   18.33    1.97
   4  -8   4   15.68    1.60
  -4   8   3   12.82    1.53
   4  -8   3   11.59    1.41
  -4  -8  -3   13.51    1.79
   4  -8   3   13.28    1.91
   4   8  -3   13.59    1.58
  -4   8   3   11.02    1.34
  -4  -8  -3   12.10    1.51
  -4   8   2  443.10    9.62
   4  -8   2  447.03    9.04
  -4  -8  -2  423.84    9.91
   4  -8   2  450.61   10.93
   4   8  -2  420.18    9.64
  -4   8   1   72.05    3.53
  -4  -8  -1   69.95    3.61
   4  -8   1   75.44    3.27
   4  -8   1   74.98    4.10
   4   8  -1   63.35    3.39
  -4   8   0  131.92    4.90
  -4  -8   0  128.80    4.93
   4  -8   0  139.35    4.53
   4  -8   0  122.86    5.00
  -4  -8   0  129.59    5.09
   4  -8   0  127.87    5.34
   4   8   0  122.99    4.82
  -4  -8   1   60.84    3.33
   4  -8  -1   62.80    3.00
   4  -8  -1   58.21    3.34
  -4  -8   1   56.83    3.37
   4  -8  -1   57.66    3.51
   4   8   1   57.51    3.31
  -4  -8   2  465.74   10.14
   4  -8  -2  448.58   10.18
  -4  -8   2  465.57   10.51
   4  -8  -2  456.24   10.67
  -4  -8   3   16.21    1.78
   4  -8  -3   15.86    1.73
   4  -8  -3   14.52    1.87
  -4  -8   3   14.96    1.85
   4  -8  -3   18.08    1.75
   4  -8  -4   24.69    2.23
   4  -8  -4   24.03    2.07
  -4  -8   4   20.49    1.96
  -4  -8   4   23.02    2.18
   4  -8  -4   22.24    1.97
  -4  -8   5  618.70   12.11
   4  -8  -5  626.47   12.75
  -4  -8   5  653.14   13.01
   4  -8  -5  639.69   12.18
  -4  -8   6  765.98   13.71
   4  -8  -6  737.14   14.09
  -4  -8   6  753.52   14.39
   4  -8  -6  743.12   13.65
   4  -8  -7  145.22    5.27
  -4  -8   7  140.69    5.04
  -4  -8   7  155.70    5.65
   4  -8  -7  150.79    5.26
   4  -8  -8  312.31    8.05
  -4  -8   8  310.24    8.35
   4  -8  -8  296.29    7.85
   4  -8  -9  622.79   12.28
  -4  -8   9  615.77   12.74
   4  -8  -9  625.67   12.53
   4  -8 -10  638.12   12.49
  -4  -8  10  658.18   13.12
   4  -8 -10  649.93   13.09
   4  -8 -11  325.60    8.12
   4  -8 -11  332.31    8.86
  -4  -8  12   64.79    3.54
   4  -8 -12   68.68    3.88
  -4  -8  13  175.70    5.69
   4  -8 -13  169.69    6.11
  -4   8 -14  210.49   10.07
   4  -8 -14  244.23    7.84
  -4   8 -15  222.98    8.89
   4  -8 -15  206.50    7.34
  -4   8 -16 1133.24   21.98
   4  -8 -16 1097.53   20.46
  -4   8 -17  851.37   18.25
   4  -8 -17  872.86   17.60
  -4   8 -18  685.14   16.06
   4  -8 -18  729.28   15.83
  -4   8 -19  369.87   11.31
   4  -8 -19  394.65   11.05
  -4   8 -20  448.61   12.58
   4  -8 -20  488.65   12.59
  -4   8 -21  164.40    7.29
   4  -8 -21  185.09    7.39
   4  -8 -22   25.92    2.79
   4  -8 -23  171.79    7.07
  -4   8 -23  168.61    7.41
   4  -8 -24  185.35    7.32
  -4   8 -24  169.02    7.33
   4  -8 -25   92.67    5.03
  -4   8 -25   95.53    5.36
   4  -8 -26   46.29    3.48
  -4   8 -26   39.53    3.33
   4  -8 -27   40.71    3.22
  -4   8 -27   36.86    3.27
   4   9 -27    8.02    1.69
  -4  -9 -27    8.58    1.70
   4   9 -26   88.06    5.54
   4   9 -26   84.39    4.77
  -4  -9 -26   79.30    4.43
  -4  -9 -25   17.96    2.38
   4   9 -25   21.85    2.56
  -4  -9 -25   24.16    2.56
   4   9 -25   22.26    3.10
  -4  -9 -24  109.05    5.60
   4   9 -24  119.30    6.03
  -4  -9 -24  117.13    5.69
   4   9 -24  126.42    7.02
   4   9 -24  110.02    6.20
  -4  -9 -23  121.27    6.06
   4   9 -23  131.83    6.47
  -4  -9 -23  120.79    5.89
   4   9 -23  120.25    6.63
  -4  -9 -22   37.81    3.56
  -4  -9 -22   37.96    3.44
   4   9 -22   41.76    4.20
   4   9 -22   40.26    3.98
   4  -9  22   40.72    3.41
   4  -9  21    1.53    1.19
  -4  -9 -21    2.52    1.38
  -4  -9 -21    3.64    1.20
   4   9 -21    0.96    1.74
   4   9 -21    2.89    1.66
  -4  -9 -20  212.10    8.38
  -4  -9 -20  207.13    7.97
   4   9 -20  211.68    9.45
   4   9 -20  197.81    8.95
   4  -9  20  196.55    7.42
  -4  -9 -19  132.61    6.60
  -4  -9 -19  137.45    6.35
   4   9 -19  142.12    7.58
   4   9 -19  138.13    7.48
   4  -9  19  130.20    5.92
  -4  -9 -18   84.29    4.94
   4   9 -18   82.99    5.83
   4  -9  18   81.95    4.66
   4   9 -18   77.13    5.63
  -4  -9 -17   22.85    2.76
   4   9 -17   21.37    3.15
   4   9 -17   22.37    3.19
   4  -9  17   21.79    2.52
  -4  -9 -16  706.19   15.55
   4   9 -16  689.10   17.41
   4   9 -16  680.85   17.50
   4  -9  16  668.80   14.49
  -4  -9 -15  116.90    5.68
   4   9 -15  131.74    6.89
   4  -9  15  128.91    5.53
   4   9 -15  112.86    6.56
  -4  -9 -14   32.46    2.96
   4   9 -14   23.73    3.15
  -4  -9 -14   24.57    2.43
   4  -9  14   26.97    2.59
   4   9 -14   21.60    3.03
   4  -9  13    9.39    1.63
  -4  -9 -13   14.82    2.02
   4   9 -13   11.00    2.39
  -4  -9 -13   12.25    1.77
   4   9 -13   11.55    2.26
  -4  -9 -12  937.11   17.96
   4   9 -12  969.80   20.26
  -4  -9 -12  909.39   17.13
   4  -9  12  935.73   16.89
   4   9 -12  925.05   20.10
  -4  -9 -11  321.47    9.18
  -4  -9 -11  322.27    8.93
   4   9 -11  341.52   11.09
   4   9 -11  304.40   10.35
   4  -9  11  308.60    8.32
  -4  -9 -10   92.10    4.62
   4   9 -10  107.84    6.66
  -4  -9 -10   97.11    4.72
   4   9 -10   95.17    5.48
   4  -9  10   88.56    4.11
  -4  -9  -9  211.14    7.05
   4   9  -9  224.75   10.65
  -4  -9  -9  208.02    7.09
   4  -9   9  213.73    6.36
   4   9  -9  208.74    8.10
  -4  -9  -8  190.22    7.03
  -4  -9  -8  195.70    6.58
  -4  -9  -8  190.18    6.67
   4   9  -8  180.84    7.42
   4  -9   8  176.84    5.61
  -4  -9  -7   34.03    2.97
  -4  -9  -7   36.24    2.72
  -4  -9  -7   35.10    2.88
   4   9  -7   36.81    3.38
   4  -9   7   31.39    2.28
  -4  -9  -6  344.70    9.52
  -4  -9  -6  329.96    8.75
   4   9  -6  348.60   10.52
  -4  -9  -6  342.95    9.30
   4  -9   6  321.10    7.69
   4  -9   5  449.47    9.27
  -4  -9  -5  437.38   10.97
  -4  -9  -5  447.33   10.92
  -4  -9  -5  463.55   10.54
  -4  -9  -4 1376.27   23.00
   4  -9   4 1408.64   20.73
  -4  -9  -4 1411.84   23.12
   4  -9   4 1372.86   24.38
  -4  -9  -4 1446.68   22.46
  -4  -9  -3   31.67    2.69
   4  -9   3   32.22    2.19
  -4  -9  -3   33.04    2.29
  -4  -9  -3   32.23    2.73
   4  -9   3   29.09    2.87
   4  -9   2    6.88    1.12
  -4  -9  -2    4.80    1.30
   4  -9   2    7.05    1.60
  -4  -9  -1  112.46    4.93
   4  -9   1  118.06    4.15
   4  -9   1  116.47    5.44
   4  -9   0  466.27    9.37
  -4  -9   0  472.24   10.90
  -4  -9   0  469.44   11.16
   4  -9   0  471.09   11.71
  -4  -9   1  118.92    5.03
  -4  -9   1  125.63    5.36
   4  -9  -1  121.80    5.46
  -4  -9   2    6.09    1.43
  -4  -9   2    7.04    1.41
   4  -9  -2    7.05    1.54
   4  -9  -3   28.57    2.66
  -4  -9   3   30.94    2.55
  -4  -9   3   34.55    2.88
  -4  -9   4 1419.61   22.54
   4  -9  -4 1352.02   21.82
   4  -9  -4 1416.77   23.22
  -4  -9   4 1469.56   23.42
   4  -9  -4 1402.66   22.14
  -4  -9   5  459.07   10.48
   4  -9  -5  447.22   10.89
  -4  -9   5  457.45   11.04
   4  -9  -5  453.32   10.39
  -4  -9   6  322.21    8.54
   4  -9  -6  336.48    9.09
  -4  -9   6  339.02    9.23
   4  -9  -6  329.29    8.59
  -4  -9   7   32.40    2.59
   4  -9  -7   25.64    2.43
  -4  -9   7   29.09    2.65
   4  -9  -7   30.58    2.48
   4  -9  -8  200.68    6.68
  -4  -9   8  204.10    6.61
  -4  -9   8  198.10    6.80
   4  -9  -8  198.97    6.57
   4  -9  -9  198.76    6.61
  -4  -9   9  202.68    6.90
   4  -9  -9  192.52    6.56
   4  -9 -10   84.15    4.18
  -4  -9  10   89.68    4.49
   4  -9 -10   90.09    4.47
   4  -9 -11  314.63    8.47
   4  -9 -11  306.60    8.81
  -4  -9  12  867.92   16.48
   4  -9 -12  900.78   17.18
  -4  -9  13   17.11    2.02
   4  -9 -13   15.24    2.09
  -4   9 -14   19.97    4.72
   4  -9 -14   25.47    2.67
  -4   9 -15  127.05    7.30
   4  -9 -15  117.85    5.65
  -4   9 -16  704.74   16.87
   4  -9 -16  690.56   15.37
  -4   9 -17   22.10    2.89
   4  -9 -17   21.48    2.59
  -4   9 -18   84.04    5.26
   4  -9 -18   88.68    5.04
  -4   9 -19  130.51    6.56
   4  -9 -19  124.78    6.03
  -4   9 -20  182.33    7.80
   4  -9 -20  196.38    7.66
  -4   9 -21    0.36    1.54
   4  -9 -21    4.76    1.29
   4  -9 -22   39.51    3.40
  -4   9 -23  132.34    6.51
   4  -9 -23  133.27    6.16
  -4   9 -24  101.29    5.56
   4  -9 -24  105.86    5.32
  -4   9 -25   20.75    2.51
   4  -9 -25   20.13    2.38
  -4   9 -26   74.52    4.57
   4  -9 -26   78.47    4.36
  -4   9 -27    9.44    1.84
   4  -9 -27   12.29    1.89
   4  10 -26  109.78    5.92
   4  10 -26   97.53    4.92
  -4 -10 -25   67.89    4.13
   4  10 -25   66.09    4.26
  -4 -10 -25   62.97    3.95
   4  10 -25   70.82    5.00
  -4 -10 -24  423.43   11.22
   4  10 -24  427.29   11.62
  -4 -10 -24  412.98   10.94
   4  10 -24  458.40   13.47
   4  10 -24  386.27   11.75
  -4 -10 -23   52.39    3.93
   4  10 -23   42.49    3.75
  -4 -10 -23   47.36    3.62
   4  10 -23   58.63    4.79
   4  10 -23   51.08    4.28
  -4 -10 -22    2.39    1.45
  -4 -10 -22    5.96    1.64
   4  10 -22    6.26    1.98
   4  10 -22    4.33    1.76
  -4 -10 -21   15.28    2.55
  -4 -10 -21   16.79    2.43
   4  10 -21   18.71    3.09
   4  10 -21   16.54    2.78
  -4 -10 -20   87.87    5.35
  -4 -10 -20   89.46    5.10
   4  10 -20   95.50    6.31
   4  10 -20   90.48    5.93
  -4 -10 -19  478.05   13.23
  -4 -10 -19  466.86   12.47
   4  10 -19  480.50   14.65
   4  10 -19  458.11   14.13
  -4 -10 -18  169.63    7.59
  -4 -10 -18  166.65    7.12
   4  10 -18  191.17    8.86
   4  10 -18  166.79    8.28
  -4 -10 -17  156.69    7.28
  -4 -10 -17  145.95    6.60
   4  10 -17  160.27    8.00
   4  10 -17  147.09    7.73
  -4 -10 -16  782.56   17.83
  -4 -10 -16  814.05   17.29
   4  10 -16  792.61   19.19
   4  10 -16  769.95   19.12
  -4 -10 -15   21.93    2.91
  -4 -10 -15   21.31    2.63
   4  10 -15   21.10    3.09
   4  10 -15   23.68    3.26
  -4 -10 -14  132.13    6.62
  -4 -10 -14  147.42    6.45
   4  10 -14  139.65    7.21
  -4 -10 -14  142.04    5.73
   4  10 -14  131.31    7.12
  -4 -10 -13   45.10    3.55
   4  10 -13   51.94    4.37
  -4 -10 -13   49.72    3.44
   4  10 -13   50.54    4.41
  -4 -10 -12   50.10    3.67
   4  10 -12   58.26    4.79
  -4 -10 -12   48.68    3.48
   4  10 -12   45.74    4.17
  -4 -10 -11  285.32    9.73
  -4 -10 -11  302.55    9.26
   4  10 -11  313.23   11.20
  -4 -10 -11  308.07    9.12
   4  10 -11  301.64   10.62
  -4 -10 -10  452.58   12.47
  -4 -10 -10  476.81   11.84
   4  10 -10  510.15   15.45
  -4 -10 -10  489.56   11.94
   4  10 -10  450.76   13.24
  -4 -10  -9  370.54   10.86
  -4 -10  -9  379.46   10.22
  -4 -10  -9  384.52   10.38
   4  10  -9  374.99   11.67
  -4 -10  -8  711.22   15.22
  -4 -10  -8  707.17   14.23
  -4 -10  -8  695.68   14.44
   4  10  -8  727.50   16.30
  -4 -10  -7 1123.91   20.97
  -4 -10  -7 1120.83   20.03
  -4 -10  -7 1111.48   20.38
   4  10  -7 1153.35   22.32
  -4 -10  -6  649.62   14.68
   4  10  -6  656.58   15.90
  -4 -10  -6  687.74   14.69
  -4 -10  -6  664.99   14.05
  -4 -10  -5   64.11    4.12
  -4 -10  -5   69.18    4.21
  -4 -10  -4   84.02    4.59
  -4 -10  -4   74.61    4.35
   4 -10   4   71.59    4.69
  -4 -10  -3  428.14   11.08
  -4 -10  -3  443.23   11.22
   4 -10   3  448.47   12.33
  -4 -10  -2   95.68    4.89
   4 -10   2  106.45    5.61
  -4 -10  -1  123.98    5.55
   4 -10   1  131.40    6.19
  -4 -10   0    2.08    1.30
  -4 -10   0    1.88    1.19
   4 -10   0    1.11    1.13
  -4 -10   1  145.93    5.93
  -4 -10   1  140.77    5.98
   4 -10  -1  132.90    6.10
  -4 -10   2   95.99    4.80
  -4 -10   2  101.33    5.09
   4 -10  -2   95.18    5.06
  -4 -10   3  453.40   11.13
  -4 -10   3  435.37   11.20
   4 -10  -3  435.91   11.43
   4 -10  -4   73.96    4.39
  -4 -10   4   76.50    4.28
  -4 -10   4   83.69    4.58
  -4 -10   5   67.12    3.95
   4 -10  -5   75.14    4.37
  -4 -10   5   63.42    4.03
   4 -10  -6  666.06   14.50
  -4 -10   6  656.78   13.96
  -4 -10   6  683.21   14.60
   4 -10  -6  649.83   13.74
  -4 -10   7 1097.96   19.50
   4 -10  -7 1067.14   19.68
  -4 -10   7 1111.61   19.98
   4 -10  -7 1059.12   19.15
   4 -10  -8  661.07   14.28
  -4 -10   8  650.87   13.99
  -4 -10   8  690.50   14.62
   4 -10  -8  661.21   14.03
   4 -10  -9  373.71   10.04
  -4 -10   9  386.96   10.28
   4 -10  -9  367.56    9.93
   4 -10 -10  455.25   11.18
  -4 -10  10  470.89   11.55
   4 -10 -10  445.26   11.24
   4 -10 -11  278.63    8.34
  -4 -10  11  288.61    8.72
   4 -10 -11  283.37    8.76
   4 -10 -12   43.11    3.16
   4 -10 -12   39.20    3.22
  -4 -10  12   46.39    3.39
   4 -10 -13   47.88    3.58
  -4 -10  13   49.39    3.43
   4 -10 -14  147.05    6.33
  -4  10 -14   64.46    7.95
   4 -10 -15   24.75    2.72
  -4  10 -15   28.45    4.35
   4 -10 -16  750.99   16.47
  -4  10 -16  769.59   18.50
   4 -10 -17  157.12    6.79
  -4  10 -17  149.12    7.27
   4 -10 -18  165.55    7.04
  -4  10 -18  180.14    7.93
   4 -10 -19  475.00   12.54
  -4  10 -19  461.86   13.13
   4 -10 -20   80.92    4.87
  -4  10 -20   81.50    5.23
   4 -10 -21   14.43    2.26
  -4  10 -21   14.86    2.50
   4 -10 -22    7.49    1.73
  -4  10 -23   45.51    3.85
   4 -10 -23   50.22    3.72
  -4  10 -24  423.70   11.64
   4 -10 -24  419.32   11.02
  -4  10 -25   50.36    3.81
   4 -10 -25   53.49    3.63
  -4  10 -26   93.29    4.86
   4 -10 -26   99.62    4.76
   4  11 -25   32.28    3.33
  -4 -11 -24  162.86    6.43
   4  11 -24  165.85    6.64
  -4 -11 -24  158.72    6.20
   4  11 -24  180.80    7.79
   4  11 -24  158.95    6.84
  -4 -11 -23   31.77    3.07
   4  11 -23   30.83    3.13
  -4 -11 -23   30.93    2.94
   4  11 -23   32.83    3.61
   4  11 -23   29.19    3.19
  -4 -11 -22   40.72    3.62
  -4 -11 -22   36.60    3.26
   4  11 -22   41.27    4.01
   4  11 -22   40.99    3.87
  -4 -11 -21   40.67    3.66
  -4 -11 -21   32.60    3.18
   4  11 -21   43.26    4.28
   4  11 -21   38.17    3.78
  -4 -11 -20  197.20    8.02
  -4 -11 -20  201.18    7.71
   4  11 -20  203.64    8.85
  -4 -11 -19  127.78    6.52
  -4 -11 -19  133.05    6.26
   4  11 -19  145.74    7.73
   4  11 -19  135.38    7.28
  -4 -11 -18   38.16    3.68
  -4 -11 -18   41.76    3.53
   4  11 -18   40.02    4.25
   4  11 -18   49.66    4.49
  -4 -11 -17   20.18    2.94
  -4 -11 -17   26.27    2.87
   4  11 -17   25.28    3.53
   4  11 -17   18.29    3.01
  -4 -11 -16  410.95   12.24
  -4 -11 -16  392.62   11.39
   4  11 -16  407.45   13.15
   4  11 -16  372.95   12.72
  -4 -11 -15   59.34    4.52
  -4 -11 -15   66.24    4.43
   4  11 -15   67.68    5.23
   4  11 -15   60.43    4.96
  -4 -11 -14    9.96    1.79
  -4 -11 -14    8.47    1.66
   4  11 -14    8.65    2.49
   4  11 -14    7.18    2.12
  -4 -11 -13    5.25    1.52
   4  11 -13    5.82    2.37
  -4 -11 -13    4.44    1.52
   4  11 -13    3.10    1.65
  -4 -11 -12  429.58   11.89
  -4 -11 -12  458.45   11.77
   4  11 -12  443.55   13.67
  -4 -11 -11  104.45    5.92
  -4 -11 -11  100.61    5.38
  -4 -11 -11  102.41    5.33
   4  11 -11  103.31    6.26
  -4 -11 -10  147.66    7.04
  -4 -11 -10  159.69    6.77
  -4 -11 -10  158.18    6.76
   4  11 -10  153.77    7.60
  -4 -11  -9   11.55    1.92
  -4 -11  -9   11.82    2.22
  -4 -11  -9   11.79    2.19
   4  11  -9   10.61    2.23
  -4 -11  -8   90.90    5.35
  -4 -11  -8  101.87    5.27
  -4 -11  -8   96.53    5.20
   4  11  -8  103.33    6.06
  -4 -11  -7  142.87    6.63
  -4 -11  -7  143.85    6.19
  -4 -11  -7  144.13    6.42
   4  11  -7  143.40    7.08
  -4 -11  -6   22.09    2.77
   4  11  -6   18.91    2.81
  -4 -11  -6   19.07    2.49
  -4 -11  -5  272.62    9.13
  -4 -11  -5  273.39    8.98
  -4 -11  -4  288.71    9.38
  -4 -11  -4  293.64    9.30
   4 -11   4  288.59   10.16
  -4 -11  -3   81.59    4.73
  -4 -11  -3   77.70    4.67
   4 -11   3   74.81    5.02
  -4 -11  -2  253.98    8.61
   4 -11   2  264.05    9.47
  -4 -11  -1  259.61    8.65
   4 -11   1  256.50    9.28
  -4 -11   0    2.63    1.29
  -4 -11   0    3.51    1.32
   4 -11   0    3.54    1.50
  -4 -11   1  276.72    8.88
  -4 -11   1  254.78    8.64
   4 -11  -1  260.68    9.17
  -4 -11   2  253.99    8.57
  -4 -11   2  262.28    8.80
   4 -11  -2  258.08    9.01
  -4 -11   3   66.12    4.24
  -4 -11   3   74.39    4.60
   4 -11  -3   73.35    4.71
  -4 -11   4  320.64    9.55
  -4 -11   4  307.88    9.63
   4 -11  -4  291.73    9.57
   4 -11  -5  265.34    8.94
  -4 -11   5  259.51    8.55
  -4 -11   5  266.14    8.88
   4 -11  -6   16.57    2.35
  -4 -11   6   19.05    2.41
  -4 -11   6   19.95    2.58
   4 -11  -7  134.47    6.14
  -4 -11   7  145.71    6.21
  -4 -11   7  144.13    6.36
   4 -11  -7  128.37    5.76
   4 -11  -8   96.52    5.16
  -4 -11   8  100.98    5.17
  -4 -11   8  108.77    5.51
   4 -11  -8   92.56    4.89
  -4 -11   9    8.40    1.82
   4 -11  -9    8.22    1.63
   4 -11  -9    7.11    1.72
  -4 -11   9    8.85    1.77
   4 -11 -10  155.53    6.45
  -4 -11  10  158.33    6.61
   4 -11 -10  161.93    6.67
   4 -11 -11   84.25    4.70
  -4 -11  11   85.26    4.78
   4 -11 -11   88.95    4.94
   4 -11 -12  427.98   11.03
   4 -11 -12  442.18   11.74
  -4 -11  12  421.73   11.16
   4 -11 -13    3.67    1.37
  -4 -11  13    3.54    1.38
   4 -11 -14   10.39    1.86
  -4  11 -14   24.18    6.99
   4 -11 -15   59.37    4.18
  -4  11 -15   66.18    6.41
   4 -11 -16  378.05   11.08
  -4  11 -16  416.10   13.25
   4 -11 -17   28.84    3.01
  -4  11 -17   26.60    3.42
   4 -11 -18   40.74    3.44
  -4  11 -18   44.74    4.10
   4 -11 -19  123.44    5.93
  -4  11 -19  109.04    6.14
   4 -11 -20  214.47    7.91
  -4  11 -20  204.61    8.31
   4 -11 -21   32.88    3.15
  -4  11 -21   32.48    3.39
   4 -11 -22   42.44    3.43
  -4  11 -23   29.02    3.05
   4 -11 -23   31.29    2.95
  -4  11 -24  162.74    6.62
   4 -11 -24  150.60    6.02
   4  12 -24  146.68    6.64
  -4 -12 -23   19.98    2.38
   4  12 -23   16.86    2.23
  -4 -12 -23   14.34    2.01
   4  12 -23   18.68    2.68
   4  12 -23   15.97    2.30
  -4 -12 -22    8.60    1.78
  -4 -12 -22    9.05    1.86
   4  12 -22   11.77    2.33
   4  12 -22    8.47    1.94
  -4 -12 -21    8.70    1.72
  -4 -12 -21    9.75    2.06
   4  12 -21    6.70    2.18
   4  12 -21    8.56    2.01
  -4 -12 -20    9.30    1.79
  -4 -12 -20    9.78    2.17
   4  12 -20    6.52    2.18
   4  12 -20    7.56    2.01
  -4 -12 -19  156.59    7.10
  -4 -12 -19  153.32    6.68
   4  12 -19  163.17    7.96
   4  12 -19  158.78    7.72
  -4 -12 -18  647.55   15.85
  -4 -12 -18  648.80   15.11
   4  12 -18  687.12   17.50
   4  12 -18  662.37   17.13
  -4 -12 -17  107.42    6.04
  -4 -12 -17  105.66    5.62
   4  12 -17  112.47    6.74
   4  12 -17  117.70    6.85
  -4 -12 -16  875.37   19.21
  -4 -12 -16  840.02   18.02
   4  12 -16  834.71   19.96
   4  12 -16  849.98   20.23
  -4 -12 -15   80.87    5.33
  -4 -12 -15   82.53    5.03
   4  12 -15   81.42    5.63
   4  12 -15   78.46    5.69
  -4 -12 -14   28.13    2.96
   4  12 -14   26.58    3.54
  -4 -12 -14   22.40    2.60
   4  12 -14   22.86    3.22
  -4 -12 -13   64.35    4.46
   4  12 -13   74.41    5.42
  -4 -12 -13   65.34    4.25
   4  12 -13   71.35    5.37
  -4 -12 -12  328.85   10.42
  -4 -12 -12  328.27   10.03
   4  12 -12  327.14   11.70
  -4 -12 -11  100.64    5.90
  -4 -12 -11   95.96    5.41
  -4 -12 -11   98.91    5.42
   4  12 -11   93.49    6.14
  -4 -12 -10  236.58    9.21
  -4 -12 -10  220.11    8.28
  -4 -12 -10  238.66    8.61
   4  12 -10  236.02    9.70
  -4 -12  -9  353.18   11.41
  -4 -12  -9  364.94   10.93
   4  12  -9  350.40   11.98
  -4 -12  -8 1157.94   21.87
   4  12  -8 1153.09   22.88
  -4 -12  -7   37.88    3.63
  -4 -12  -7   41.42    3.66
   4  12  -7   41.90    4.10
  -4 -12  -6  216.65    8.51
  -4 -12  -6  217.13    8.34
   4  12  -6  227.08    9.31
  -4 -12  -5  156.13    7.17
   4  12  -5  166.19    7.93
  -4 -12  -5  174.52    7.40
  -4 -12  -4   41.44    3.64
  -4 -12  -4   38.98    3.57
   4 -12   4   38.01    3.84
  -4 -12  -3   39.45    3.54
  -4 -12  -3   31.98    3.27
   4 -12   3   31.19    3.58
  -4 -12  -2   34.40    3.30
   4 -12   2   26.41    3.33
  -4 -12  -1   39.16    3.52
   4 -12   1   37.17    3.75
  -4 -12   0  478.62   12.81
  -4 -12   0  480.00   12.89
   4 -12   0  460.81   13.31
  -4 -12   1   31.58    3.23
  -4 -12   1   32.78    3.29
   4 -12  -1   27.24    3.23
  -4 -12   2   17.17    2.55
  -4 -12   2   23.72    2.92
   4 -12  -2   25.00    3.03
  -4 -12   3   31.72    3.19
  -4 -12   3   34.04    3.43
   4 -12  -3   34.25    3.48
  -4 -12   4   35.35    3.31
  -4 -12   4   33.08    3.29
   4 -12  -4   34.44    3.49
  -4 -12   5  168.05    7.13
  -4 -12   5  166.76    7.27
   4 -12  -5  162.37    7.22
  -4 -12   6  223.37    8.24
  -4 -12   6  221.86    8.38
   4 -12  -6  201.67    8.11
  -4 -12   7   45.48    3.70
  -4 -12   7   39.89    3.57
   4 -12  -7   38.57    3.56
   4 -12  -8 1151.00   22.03
  -4 -12   8 1170.73   21.80
  -4 -12   8 1125.43   21.77
   4 -12  -9  347.34   10.54
  -4 -12   9  358.23   10.66
  -4 -12   9  346.53   10.35
   4 -12  -9  341.02   10.26
   4 -12 -10  221.72    8.16
  -4 -12  10  233.92    8.34
   4 -12 -10  223.88    8.19
   4 -12 -11   96.91    5.25
   4 -12 -11   98.73    5.37
  -4 -12  11   94.19    5.19
   4 -12 -12  312.58    9.49
   4 -12 -12  307.40    9.86
  -4 -12  12  317.19    9.73
   4 -12 -13   67.90    4.46
  -4 -12  13   64.31    4.18
   4 -12 -14   16.75    2.33
  -4  12 -14   44.20    8.02
   4 -12 -15   76.05    4.77
  -4  12 -15  105.49    7.64
   4 -12 -16  835.06   17.96
  -4  12 -16  916.28   20.88
   4 -12 -17  109.31    5.67
  -4  12 -17  109.69    6.36
   4 -12 -18  643.43   14.95
  -4  12 -18  635.72   15.97
   4 -12 -19  145.37    6.44
  -4  12 -19  144.35    6.93
   4 -12 -20   11.52    1.97
  -4  12 -20    5.83    1.83
   4 -12 -21    8.81    1.79
   4 -12 -22    7.63    1.70
  -4  12 -23   20.70    2.43
   4 -12 -23   15.08    2.07
  -4 -13 -22    3.66    1.35
   4  13 -22    5.61    1.61
  -4 -13 -21   19.30    2.46
  -4 -13 -21   21.36    2.36
   4  13 -21   16.66    2.39
  -4 -13 -20    8.85    1.83
  -4 -13 -20    7.67    1.86
   4  13 -20    4.74    1.91
   4  13 -20    7.90    1.91
  -4 -13 -19  119.72    5.99
  -4 -13 -19  116.52    5.57
   4  13 -19  119.47    6.55
   4  13 -19  117.52    6.38
  -4 -13 -18  112.39    5.98
  -4 -13 -18  117.07    5.72
   4  13 -18  116.09    6.54
   4  13 -18  121.90    6.66
  -4 -13 -17   41.37    3.79
  -4 -13 -17   43.97    3.61
   4  13 -17   42.65    4.22
   4  13 -17   47.46    4.33
  -4 -13 -16  146.28    7.05
  -4 -13 -16  152.76    6.72
   4  13 -16  152.40    7.67
   4  13 -16  149.25    7.66
  -4 -13 -15  184.67    8.01
  -4 -13 -15  176.50    7.35
   4  13 -15  177.08    8.27
   4  13 -15  178.47    8.47
  -4 -13 -14  120.37    6.06
  -4 -13 -14  116.89    5.55
   4  13 -14  128.05    7.10
  -4 -13 -13  107.39    5.75
  -4 -13 -13  109.88    5.53
   4  13 -13  111.58    6.60
   4  13 -13  102.79    6.47
  -4 -13 -12   12.54    2.23
   4  13 -12   12.86    2.67
  -4 -13 -11    3.24    1.72
  -4 -13 -11    4.91    1.61
   4  13 -11    3.43    1.83
  -4 -13 -10   37.22    3.83
  -4 -13 -10   40.52    3.63
   4  13 -10   35.04    3.89
  -4 -13  -9  118.84    6.54
  -4 -13  -9  123.16    6.26
   4  13  -9  127.21    7.19
  -4 -13  -8   26.87    3.35
  -4 -13  -8   26.16    3.15
   4  13  -8   28.62    3.53
  -4 -13  -7  215.53    8.80
  -4 -13  -7  206.75    8.30
   4  13  -7  208.12    9.11
  -4 -13  -6   46.67    4.05
  -4 -13  -6   39.03    3.72
   4  13  -6   37.06    3.97
  -4 -13  -5   58.45    4.52
   4  13  -5   64.35    5.05
  -4 -13  -5   61.43    4.55
  -4 -13  -4  109.41    6.09
  -4 -13  -4  118.80    6.28
  -4 -13  -3   83.97    5.32
  -4 -13  -3   68.01    4.79
   4 -13   3   73.03    5.38
  -4 -13  -2   42.42    3.83
   4 -13   2   34.24    3.75
  -4 -13  -1  139.42    6.86
   4 -13   1  156.16    7.70
  -4 -13   0   58.15    4.40
  -4 -13   0   56.50    4.41
   4 -13   0   54.96    4.61
  -4 -13   1  155.93    7.17
  -4 -13   1  149.34    7.12
   4 -13  -1  145.43    7.29
  -4 -13   2   42.92    3.85
  -4 -13   2   42.65    3.88
   4 -13  -2   45.03    4.11
  -4 -13   3   69.77    4.80
  -4 -13   3   65.75    4.79
   4 -13  -3   67.86    4.96
  -4 -13   4  121.76    6.31
  -4 -13   4  111.64    6.10
   4 -13  -4  114.85    6.33
  -4 -13   5   65.95    4.66
  -4 -13   5   63.50    4.64
   4 -13  -5   59.80    4.65
  -4 -13   6   39.07    3.60
  -4 -13   6   43.39    3.87
   4 -13  -6   37.36    3.65
  -4 -13   7  212.17    8.31
  -4 -13   7  208.14    8.25
   4 -13  -7  205.05    8.35
  -4 -13   8   35.33    3.46
  -4 -13   8   31.45    3.27
   4 -13  -8   27.66    3.18
  -4 -13   9  106.97    5.73
   4 -13  -9  112.43    5.99
  -4 -13   9  103.05    5.63
  -4 -13  10   34.32    3.29
   4 -13 -10   30.49    3.20
  -4 -13  11    6.42    1.81
   4 -13 -11    5.78    1.68
  -4 -13  12   13.98    2.21
   4 -13 -12   15.25    2.29
  -4 -13  13  104.48    5.36
   4 -13 -13  111.17    5.76
  -4  13 -14  127.94   10.23
   4 -13 -14  110.28    5.77
  -4  13 -15  206.26    9.97
   4 -13 -15  174.74    7.29
  -4  13 -16  190.06    8.50
   4 -13 -16  159.28    6.87
  -4  13 -17   46.69    4.24
   4 -13 -17   38.01    3.37
  -4  13 -18  116.91    6.19
   4 -13 -18  124.06    5.85
  -4  13 -19   96.50    5.53
   4 -13 -19  100.24    5.18
  -4  13 -20    5.98    1.74
   4 -13 -20    7.28    1.66
   4 -13 -21   15.70    2.09
  -4 -14 -20   98.73    5.07
   4  14 -20  105.49    5.69
  -4 -14 -19  143.52    6.33
   4  14 -19  151.75    6.96
   4  14 -19  142.18    6.64
  -4 -14 -18  141.39    6.47
   4  14 -18  136.12    6.78
   4  14 -18  130.77    6.60
  -4 -14 -17   80.20    5.04
   4  14 -17   80.48    5.29
   4  14 -17   73.09    5.09
  -4 -14 -16  538.71   14.11
   4  14 -16  567.83   14.93
   4  14 -16  536.70   14.86
  -4 -14 -15   20.18    2.88
   4  14 -15   18.80    2.95
   4  14 -15   22.43    3.17
  -4 -14 -14   43.36    4.01
   4  14 -14   38.49    3.93
   4  14 -14   41.13    4.13
  -4 -14 -13   32.28    3.11
   4  14 -13   34.71    3.82
   4  14 -13   36.99    4.00
   4  14 -12    9.70    2.66
  -4 -14 -12    9.97    2.07
   4  14 -12    6.79    2.08
  -4 -14 -11   17.62    2.87
  -4 -14 -11   16.66    2.49
   4  14 -11   18.46    2.98
  -4 -14 -10  468.75   13.75
  -4 -14 -10  455.35   12.72
   4  14 -10  450.78   14.10
  -4 -14  -9  294.25   10.59
   4  14  -9  303.52   12.40
  -4 -14  -9  287.10    9.94
   4  14  -9  280.47   10.91
  -4 -14  -8  760.06   18.21
  -4 -14  -8  772.69   17.62
   4  14  -8  768.39   19.06
  -4 -14  -7   25.29    3.17
   4  14  -7   26.34    3.53
  -4 -14  -6  135.01    7.06
  -4 -14  -6  142.68    6.97
   4  14  -6  136.36    7.45
  -4 -14  -5    9.14    2.18
  -4 -14  -5   11.14    2.31
   4  14  -5    7.27    2.42
  -4 -14  -4   58.68    4.70
   4  14  -4   58.35    4.98
  -4 -14  -4   62.78    4.71
  -4 -14  -3   21.47    2.93
  -4 -14  -3   18.39    2.88
  -4 -14  -2   99.20    5.97
   4 -14   2   95.35    6.15
  -4 -14  -1   63.62    4.75
   4 -14   1   51.42    4.61
  -4 -14   0  395.79   12.31
  -4 -14   0  400.23   12.36
   4 -14   0  423.47   13.31
  -4 -14   1   43.49    4.03
  -4 -14   1   44.26    4.08
   4 -14  -1   50.69    4.48
  -4 -14   2  104.72    6.06
  -4 -14   2   94.01    5.80
   4 -14  -2  101.71    6.20
  -4 -14   3   19.91    2.85
  -4 -14   3   16.06    2.66
   4 -14  -3   21.34    3.06
  -4 -14   4   62.35    4.66
  -4 -14   4   62.22    4.75
   4 -14  -4   58.64    4.71
  -4 -14   5   10.61    2.18
  -4 -14   5    8.99    2.14
   4 -14  -5    9.26    2.20
  -4 -14   6  144.27    7.00
  -4 -14   6  139.01    6.93
   4 -14  -6  131.39    6.88
  -4 -14   7   25.35    3.11
  -4 -14   7   22.63    2.94
   4 -14  -7   22.73    3.01
  -4 -14   8  761.85   17.38
  -4 -14   8  758.82   17.17
   4 -14  -8  747.53   17.44
  -4 -14   9  286.49    9.79
   4 -14  -9  283.72    9.81
  -4 -14  10  440.24   12.23
   4 -14 -10  434.60   12.23
  -4 -14  11   15.80    2.40
   4 -14 -11   14.64    2.31
  -4 -14  12    8.31    1.88
  -4  14 -13   76.08   10.08
  -4  14 -14   61.24    6.83
  -4  14 -15   32.77    4.47
  -4  14 -16  545.03   14.58
  -4  14 -17   76.48    4.98
  -4  14 -18  111.22    5.80
  -4  14 -19  137.52    6.26
  -4 -15 -18   22.29    2.60
   4  15 -18   16.48    2.54
  -4 -15 -17   75.67    4.66
   4  15 -17   73.78    4.81
   4  15 -17   79.24    5.03
  -4 -15 -16  124.78    6.12
   4  15 -16  132.39    6.51
   4  15 -16  131.37    6.54
  -4 -15 -15  130.45    6.38
   4  15 -15  120.76    6.32
   4  15 -15  132.45    6.79
  -4 -15 -14   20.88    2.87
   4  15 -14   18.15    2.82
   4  15 -14   22.44    3.00
   4  15 -13   21.89    3.11
   4  15 -13   22.75    3.08
  -4 -15 -12   38.01    3.37
   4  15 -12   38.95    3.89
   4  15 -12   36.21    3.84
  -4 -15 -11  391.59   12.18
  -4 -15 -11  392.54   11.24
   4  15 -11  394.83   12.29
   4  15 -11  397.33   12.81
  -4 -15 -10   98.30    5.95
  -4 -15 -10   88.82    5.24
   4  15 -10   90.56    5.95
  -4 -15  -9  216.41    8.98
  -4 -15  -9  218.90    8.48
   4  15  -9  232.75    9.94
   4  15  -9  214.78    9.31
  -4 -15  -8   55.32    4.62
  -4 -15  -8   56.89    4.43
   4  15  -8   54.83    4.73
  -4 -15  -7  131.51    6.99
  -4 -15  -7  122.88    6.49
   4  15  -7  127.72    7.18
  -4 -15  -6    4.57    1.96
   4  15  -6    3.41    1.96
  -4 -15  -5  221.74    9.13
  -4 -15  -5  232.56    9.06
   4  15  -5  234.84    9.83
  -4 -15  -4    4.34    1.82
  -4 -15  -4    6.84    1.84
   4  15  -4    8.47    2.71
  -4 -15  -3  210.81    8.86
   4  15  -3  220.61    9.72
  -4 -15  -3  201.19    8.56
  -4 -15  -2   24.67    3.25
  -4 -15  -1   20.97    3.03
  -4 -15   0    5.20    2.11
  -4 -15   0    4.51    1.75
   4 -15   0    2.49    1.67
  -4 -15   1   24.40    3.16
  -4 -15   1   21.23    2.97
   4 -15  -1   27.78    3.47
  -4 -15   2   20.05    3.05
  -4 -15   2   20.81    3.01
   4 -15  -2   25.68    3.35
  -4 -15   3  209.91    8.76
  -4 -15   3  203.49    8.68
   4 -15  -3  212.95    9.10
  -4 -15   4    5.93    1.87
  -4 -15   4    6.03    2.03
   4 -15  -4    3.42    1.71
  -4 -15   5  227.36    8.99
  -4 -15   5  228.71    9.03
   4 -15  -5  220.44    9.15
  -4 -15   6    1.53    1.62
  -4 -15   6    2.89    1.50
   4 -15  -6    3.45    1.70
  -4 -15   7  130.98    6.64
  -4 -15   7  135.10    6.66
   4 -15  -7  130.51    6.72
  -4 -15   8   52.18    4.16
  -4 -15   8   56.08    4.32
   4 -15  -8   54.83    4.40
  -4 -15   9  207.14    8.11
   4 -15  -9  203.16    8.14
  -4 -15  10   80.75    4.98
   4 -15 -10   82.72    5.02
  -4 -15  11  369.61   10.70
  -4 -15  12   31.18    3.06
  -4  15 -12  132.42   13.66
  -4  15 -13   73.12    7.84
  -4  15 -14   37.57    4.78
  -4  15 -15  160.57    7.47
  -4  15 -16  134.66    6.48
  -4  15 -17   69.62    4.52
  -4 -16 -16  314.44    9.38
  -4 -16 -15   31.99    3.15
   4  16 -15   31.59    3.19
   4  16 -15   39.89    3.51
  -4 -16 -14   74.38    4.72
   4  16 -14   66.06    4.50
   4  16 -14   66.21    4.65
   4  16 -13   26.09    3.09
   4  16 -13   23.59    2.97
   4  16 -12   25.49    3.07
   4  16 -12   24.55    3.18
  -4 -16 -11   17.55    2.71
   4  16 -11   16.22    2.69
  -4 -16 -11   14.73    2.28
   4  16 -11   19.20    2.91
  -4 -16 -10   45.79    4.01
  -4 -16 -10   46.83    3.75
   4  16 -10   52.37    4.30
   4  16 -10   47.68    4.28
  -4 -16  -9   35.15    3.68
  -4 -16  -9   31.38    3.26
   4  16  -9   35.38    3.72
  -4 -16  -8  498.40   14.00
  -4 -16  -8  495.49   13.21
   4  16  -8  489.40   14.33
  -4 -16  -7   64.44    4.87
  -4 -16  -7   56.01    4.33
   4  16  -7   60.48    4.91
  -4 -16  -6  198.71    8.55
  -4 -16  -6  220.41    8.58
   4  16  -6  210.51    9.13
  -4 -16  -5   33.11    3.66
  -4 -16  -5   41.22    3.89
   4  16  -5   43.47    4.28
  -4 -16  -4   57.23    4.49
   4  16  -4   57.65    4.81
  -4 -16  -3   17.86    2.81
  -4 -16  -3   21.29    3.03
   4  16  -3   22.01    3.28
  -4 -16  -2   51.08    4.36
   4  16  -2   60.82    5.18
  -4 -16  -1   26.46    3.32
   4  16  -1   35.61    4.15
  -4 -16   0   58.09    4.61
  -4 -16   0   42.18    4.00
  -4 -16   1   24.42    3.13
  -4 -16   1   24.95    3.33
  -4 -16   2   61.89    4.70
  -4 -16   2   49.54    4.22
   4 -16  -2   50.91    4.54
  -4 -16   3   17.50    2.77
  -4 -16   3   19.01    2.80
   4 -16  -3   17.95    2.87
  -4 -16   4   53.04    4.34
   4 -16  -4   55.10    4.55
  -4 -16   4   61.34    4.69
  -4 -16   5   33.92    3.55
   4 -16  -5   40.93    3.94
  -4 -16   5   45.85    4.07
  -4 -16   6  215.29    8.44
   4 -16  -6  200.07    8.41
  -4 -16   7   60.82    4.44
   4 -16  -7   56.57    4.44
  -4 -16   7   61.10    4.50
   4 -16  -8  484.27   13.10
  -4 -16   8  504.36   13.13
  -4 -16   9   38.58    3.48
  -4 -16  10   36.12    3.27
  -4 -16  11   15.12    2.26
  -4  16 -11  157.52   14.62
  -4  16 -12   86.33    8.25
  -4  16 -13   42.36    5.11
  -4  16 -14   85.42    5.40
  -4  16 -15   30.48    3.13
   4  17 -12    4.94    1.61
  -4 -17 -11  135.20    6.33
   4  17 -11  121.57    5.75
   4  17 -11  145.06    6.70
  -4 -17 -10  131.41    6.30
  -4 -17 -10  118.73    5.46
   4  17 -10  119.95    5.77
   4  17 -10  138.27    6.61
  -4 -17  -9  107.29    5.83
  -4 -17  -9   98.47    5.15
   4  17  -9  111.41    5.65
   4  17  -9  108.95    6.03
  -4 -17  -8   96.55    5.60
  -4 -17  -8   97.09    5.19
   4  17  -8  105.99    5.62
   4  17  -8  108.66    6.05
  -4 -17  -7   88.88    5.41
  -4 -17  -7   95.72    5.27
   4  17  -7   80.79    5.32
  -4 -17  -6    3.18    1.70
  -4 -17  -6    4.15    1.68
   4  17  -6    4.75    1.83
  -4 -17  -5   12.68    2.43
  -4 -17  -5   13.12    2.41
   4  17  -5   14.01    2.55
  -4 -17  -4   29.69    3.35
  -4 -17  -4   32.72    3.38
   4  17  -4   35.81    3.74
  -4 -17  -3  138.20    6.83
  -4 -17  -3  134.88    6.57
   4  17  -3  134.13    7.03
  -4 -17  -2   37.67    3.72
   4  17  -2   36.79    4.01
  -4 -17  -1   33.51    3.49
   4  17  -1   34.46    3.87
  -4 -17   0  224.58    8.76
  -4 -17   0  220.67    8.61
   4  17   0  236.37    9.53
  -4 -17   1   30.73    3.37
  -4 -17   1   32.62    3.45
  -4 -17   2   34.02    3.54
  -4 -17   2   38.45    3.66
  -4 -17   3  144.26    6.83
  -4 -17   3  137.51    6.68
  -4 -17   4   34.03    3.48
  -4 -17   4   38.29    3.56
  -4 -17   5   13.94    2.42
  -4 -17   5   11.41    2.16
  -4 -17   6    4.16    1.69
  -4 -17   6    3.27    1.43
  -4 -17   7   84.20    4.97
  -4 -17   8   99.39    5.20
  -4 -17   9  108.09    5.33
  -4 -17  10  119.45    5.44
  -4  17 -10  182.89   13.84
  -4  17 -11  169.28    9.81
  -4  17 -12   14.83    3.94
  -4 -18  -8  142.81    6.36
  -4 -18  -7   23.49    2.81
  -4 -18  -7   23.90    2.60
   4  18  -7   21.29    2.65
  -4 -18  -6    7.88    1.88
  -4 -18  -6    7.49    1.74
   4  18  -6    6.61    1.79
  -4 -18  -5   47.48    3.83
  -4 -18  -5   44.43    3.53
   4  18  -5   44.67    3.81
  -4 -18  -4    3.19    1.53
  -4 -18  -4    3.32    1.52
   4  18  -4    4.58    1.71
  -4 -18  -3   28.89    3.10
  -4 -18  -3   30.58    3.09
   4  18  -3   34.84    3.43
  -4 -18  -2  135.89    6.37
   4  18  -2  135.14    6.60
  -4 -18  -1   19.01    2.59
   4  18  -1   17.84    2.77
  -4 -18   0  206.89    7.87
  -4 -18   0  198.27    7.66
   4  18   0  205.92    8.18
  -4 -18   1   22.12    2.76
  -4 -18   1   22.39    2.81
   4  18   1   28.70    3.30
  -4 -18   2  120.52    5.91
  -4 -18   2  130.82    6.13
   4  18   2  139.40    6.73
  -4 -18   3   25.66    2.89
  -4 -18   3   26.90    2.91
  -4 -18   4    2.90    1.58
  -4 -18   5   47.71    3.66
  -4 -18   6    3.39    1.49
  -5   0   0    0.49    0.33
   5   0   0    0.65    0.66
  -5   0   0    1.20    0.72
   5   0   0    0.91    0.45
   5   0   0    0.93    0.54
  -5   0  -1   70.25    2.23
  -5   0   1   67.02    1.79
   5   0  -1   68.67    3.03
   5   0   1   72.42    2.63
   5   0  -1   70.75    2.57
  -5   0   1   74.33    3.37
   5   0   1   66.99    2.98
   5   0  -1   71.14    3.06
   5   0   1   68.41    3.03
  -5   0  -2 2112.80   25.15
   5   0  -2 2089.52   27.21
   5   0   2 2139.89   25.92
   5   0  -2 2033.53   25.50
  -5   0   2 2104.81   27.98
  -5   0   2 2043.42   25.44
   5   0   2 2125.63   27.21
   5   0   2 2096.72   27.14
   5   0  -2 2107.03   27.17
  -5   0  -3   57.65    2.30
   5   0  -3   49.17    2.64
  -5   0   3   57.02    2.31
   5   0   3   56.01    2.38
  -5   0  -3   59.64    2.94
   5   0  -3   56.40    2.32
  -5   0   3   49.60    2.76
   5   0   3   60.61    2.86
   5   0  -3   54.34    2.50
   5   0   3   56.02    2.79
   5   0  -3   52.69    2.70
  -5   0  -4   84.91    3.01
   5   0  -4   82.96    3.49
  -5   0  -4   87.81    3.61
   5   0   4   86.03    3.06
  -5   0   4   88.12    2.92
  -5   0   4   83.94    3.56
   5   0  -4   87.37    3.00
   5   0   4   84.77    3.52
   5   0  -4   82.50    3.50
   5   0   4   86.39    3.53
   5   0  -4   77.93    3.19
   5   0  -5   87.38    3.68
  -5   0  -5   92.32    3.70
   5   0   5   87.59    3.16
  -5   0   5   90.41    3.05
  -5   0   5   78.78    3.47
  -5   0  -5   84.74    3.15
   5   0  -5   85.83    3.12
   5   0   5   83.23    3.51
   5   0   5   89.19    3.68
   5   0  -5   81.90    3.39
  -5   0  -6 1128.26   17.94
   5   0   6 1141.64   17.10
  -5   0   6 1207.30   16.81
  -5   0   6 1111.25   17.95
   5   0  -6 1221.88   17.14
  -5   0  -6 1168.81   17.35
   5   0  -6 1169.82   17.35
   5   0   6 1198.43   18.26
   5   0  -6 1178.18   18.13
   5   0   6 1189.49   18.32
  -5   0  -7  552.72   10.55
   5   0   7  541.37    9.90
  -5   0   7  543.40    9.46
  -5   0   7  492.28   10.25
   5   0  -7  547.08    9.79
  -5   0  -7  526.97   10.00
   5   0  -7  541.97   10.20
   5   0  -7  510.55   10.55
   5   0   7  521.98   10.59
   5   0   7  550.82   10.65
  -5   0  -8 1006.08   16.59
  -5   0   8 1059.24   15.64
   5   0  -8 1066.53   16.09
  -5   0  -8 1028.22   16.43
   5   0  -8 1079.34   16.84
   5   0  -8  994.99   17.14
   5   0   8 1036.36   16.96
   5   0   8 1021.40   17.04
  -5   0  -9    1.49    0.67
  -5   0   9    1.83    0.68
   5   0  -9    2.19    0.59
  -5   0  -9    1.69    0.73
   5   0  -9    3.17    0.94
   5   0   9    1.15    0.79
   5   0  -9    1.58    0.88
  -5   0 -10   17.71    1.71
  -5   0  10   18.98    1.63
  -5   0 -10   19.03    1.83
   5   0 -10   20.40    1.49
   5   0 -10   21.81    2.04
   5   0 -10   18.08    1.97
   5   0  10   20.49    1.99
  -5   0 -11  149.33    5.00
  -5   0  11  152.10    4.86
  -5   0 -11  145.43    4.38
   5   0 -11  161.62    4.54
   5   0 -11  149.67    5.57
   5   0 -11  154.13    5.90
   5   0  11  152.77    5.56
  -5   0 -12   38.71    2.51
  -5   0  12   42.07    2.56
  -5   0 -12   36.97    2.24
   5   0 -12   45.44    2.45
   5   0 -12   39.57    2.99
   5   0 -12   41.92    3.19
   5   0  12   40.93    2.93
  -5   0 -13  401.02    9.05
  -5   0  13  402.52    9.11
  -5   0 -13  405.17    8.73
   5   0 -13  406.38    8.67
   5   0 -13  414.26   10.46
   5   0  13  396.00   10.03
  -5   0 -14    1.13    0.72
  -5   0 -14    3.09    0.81
   5   0 -14    2.42    0.76
   5   0 -14    1.84    1.16
   5   0  14    1.78    0.91
  -5   0 -15    2.78    0.84
   5   0 -15    2.35    0.75
   5   0 -15    0.92    1.06
   5   0  15    1.48    0.98
  -5   0 -16  183.18    6.11
   5   0 -16  187.31    6.11
   5   0 -16  183.90    7.39
   5   0  16  171.00    6.70
  -5   0 -17   59.47    3.52
   5   0 -17   64.73    3.64
   5   0 -17   65.49    4.48
   5   0  17   60.81    4.02
  -5   0 -18  138.25    5.58
   5   0 -18  137.39    5.54
   5   0 -18  132.39    6.68
   5   0  18  132.07    6.14
  -5   0 -19   14.22    1.88
   5   0 -19   13.89    1.90
   5   0 -19   12.01    2.34
   5   0  19   11.19    2.03
  -5   0 -20   24.00    2.48
   5   0 -20   26.59    2.61
   5   0  20   23.80    2.87
  -5   0 -21  103.69    5.21
   5   0 -21  109.76    5.36
   5   0  21   99.55    5.74
  -5   0 -22   16.51    2.22
   5   0 -22   15.80    2.18
   5   0  22   15.20    2.39
   5   0 -23   35.36    3.19
  -5   0 -23   36.88    3.26
   5   0  23   37.71    3.71
   5   0 -24   11.88    2.08
  -5   0 -24   11.67    2.13
   5   0  24    8.83    2.22
   5   0 -25   46.64    3.59
  -5   0 -25   47.69    3.68
   5   0  25   40.85    3.86
   5   0 -26    0.31    1.30
  -5   0 -26    0.47    1.33
   5   0  26    0.61    1.41
   5   0 -27   61.96    4.04
  -5   0 -27   55.88    3.87
   5   0  27   66.75    4.83
   5   0 -28   59.62    3.90
  -5   0 -28   59.11    3.93
   5   0  28   68.27    4.78
  -5   0 -29   30.90    2.69
   5   0  29   35.03    3.46
   5   0  29   37.83    3.46
   5   0  30   13.92    2.30
   5   0  30   17.65    2.51
   5   0  31    8.82    1.88
   5   0  31    8.57    1.78
   5  -1  31   13.80    2.15
   5  -1  30   53.70    4.04
  -5  -1 -29  475.87   11.46
   5  -1  29  553.67   13.98
   5   1 -28   72.54    4.27
  -5  -1 -28   77.88    4.41
   5   1 -27  210.16    7.58
  -5  -1 -27  216.40    7.64
   5   1 -26   41.40    3.49
  -5  -1 -26   40.07    3.39
   5   1 -25  105.75    5.43
  -5  -1 -25   97.99    5.24
   5   1 -24   35.47    3.26
  -5  -1 -24   33.56    3.19
   5   1 -23   69.24    4.41
  -5  -1 -23   56.53    3.95
   5   1 -22   46.92    3.62
  -5  -1 -22   52.64    3.76
   5   1 -22   52.92    4.67
   5   1 -21  487.06   12.27
  -5  -1 -21  480.68   12.07
   5   1 -21  504.99   14.58
   5   1 -20  200.34    7.27
  -5  -1 -20  206.65    7.30
   5   1 -20  206.44    8.85
   5   1 -19  562.19   12.84
  -5  -1 -19  567.19   12.76
   5   1 -19  577.15   15.20
   5   1 -18   88.38    4.48
  -5  -1 -18   92.28    4.50
   5   1 -18   94.54    5.59
   5   1 -17  159.05    5.87
  -5  -1 -17  150.62    5.70
   5   1 -17  166.00    7.22
   5   1 -17  153.40    7.20
   5   1 -16   33.54    2.56
  -5  -1 -16   32.01    2.54
   5   1 -16   35.47    3.25
   5   1 -16   32.76    3.29
   5   1 -15  277.82    8.97
   5   1 -15  275.50    7.40
  -5  -1 -15  258.01    7.21
   5   1 -14  122.02    5.57
   5   1 -14  116.42    4.40
  -5  -1 -14  110.77    4.35
  -5  -1 -13 3489.89   36.74
  -5   1  13 3625.80   37.23
   5  -1  13 3558.38   38.91
   5   1 -13 3665.47   40.75
  -5  -1 -13 3576.18   35.68
   5   1 -13 3593.35   36.83
  -5  -1 -13 3562.96   36.90
  -5  -1 -12 1029.25   16.27
  -5   1  12 1030.06   16.13
   5  -1  12 1018.72   17.35
   5   1 -12 1046.22   15.88
  -5  -1 -12 1033.94   15.90
  -5  -1 -12 1033.35   15.86
   5   1 -12 1052.08   18.31
  -5  -1 -11 5617.43   67.34
  -5   1  11 5655.53   66.90
  -5   1  11 5419.96   70.25
   5  -1  11 5732.49   68.72
   5   1 -11 5410.31   66.28
  -5  -1 -11 5592.01   66.52
   5   1 -11 5620.76   69.46
   5   1 -11 5579.77   70.33
  -5  -1 -10  248.05    6.52
  -5   1  10  256.13    6.07
  -5   1  10  265.88    7.45
   5  -1  10  250.58    7.03
  -5  -1 -10  245.31    6.90
   5   1 -10  251.46    5.73
   5   1 -10  253.58    7.13
   5   1 -10  260.87    7.66
  -5  -1  -9   37.98    2.38
  -5   1   9   38.44    2.06
  -5   1   9   40.92    2.63
   5  -1   9   35.82    2.52
   5   1  -9   40.02    2.49
  -5  -1  -9   42.62    2.62
   5   1  -9   38.33    1.91
   5   1  -9   37.32    2.52
   5   1  -9   39.55    2.81
  -5  -1  -8   23.01    1.82
  -5   1   8   23.34    1.54
  -5   1   8   19.83    1.81
   5  -1   8   23.05    1.97
   5   1  -8   22.44    1.78
  -5  -1  -8   20.31    1.74
   5   1  -8   20.29    1.82
   5   1  -8   22.69    2.05
   5  -1   8   21.70    1.97
  -5  -1  -7   21.20    1.73
  -5   1   7   23.39    1.50
  -5   1   7   18.99    1.70
   5  -1   7   20.38    1.85
   5   1  -7   20.30    1.64
  -5  -1  -7   19.04    1.61
   5   1  -7   20.84    1.72
   5   1  -7   23.61    2.04
   5  -1   7   23.92    2.00
   5  -1   6  238.80    5.57
  -5  -1  -6  229.65    6.10
  -5   1   6  231.67    5.09
  -5   1   6  218.61    6.08
   5  -1   6  230.78    6.37
   5   1  -6  234.61    5.82
  -5  -1  -6  233.32    5.80
   5   1  -6  233.84    5.76
   5   1  -6  235.65    6.37
   5  -1   6  239.78    6.45
  -5  -1  -5 3474.54   45.10
   5   1  -5 3564.79   45.48
   5  -1   5 3659.47   43.87
  -5   1   5 3670.89   43.11
  -5   1   5 3531.65   45.43
   5   1  -5 3630.59   44.31
  -5  -1  -5 3554.08   44.13
   5   1  -5 3654.90   43.98
   5  -1   5 3554.73   45.54
   5   1  -5 3559.97   45.24
  -5  -1  -4  763.20   11.85
   5   1  -4  747.81   12.91
  -5   1   4  747.15   11.12
   5  -1   4  741.21   11.60
  -5  -1  -4  714.49   12.78
  -5   1   4  743.15   13.12
   5   1  -4  756.39   12.00
   5   1  -4  743.22   13.02
   5   1  -4  749.80   12.61
   5  -1   4  767.18   13.13
  -5  -1  -3 5663.48   66.30
   5   1  -3 5615.73   68.15
  -5   1   3 5710.31   65.79
   5  -1   3 5671.93   66.28
  -5  -1  -3 5580.77   68.29
  -5   1   3 5698.57   68.73
   5   1  -3 5696.75   66.85
   5   1  -3 5676.32   67.42
   5  -1   3 5729.09   68.39
   5   1  -3 5673.42   68.23
  -5   1   2  371.76    5.21
  -5  -1  -2  389.96    6.85
   5   1  -2  374.35    7.96
   5  -1   2  391.65    7.01
  -5   1   2  389.95    8.57
  -5  -1  -2  376.71    8.36
   5   1  -2  401.01    7.47
   5  -1   2  381.78    8.15
   5   1  -2  380.46    7.50
   5   1  -2  393.15    8.15
  -5   1   1  253.01    4.29
  -5  -1  -1  246.96    4.94
   5   1  -1  253.08    6.19
   5  -1   1  270.65    5.36
  -5   1   1  258.55    6.69
   5   1  -1  272.67    5.81
  -5  -1  -1  258.13    6.68
   5  -1   1  265.97    6.47
   5   1  -1  259.98    6.29
   5   1   0   85.65    2.32
  -5  -1   0   81.53    2.37
  -5   1   0   84.85    2.35
   5   1   0   90.28    3.42
  -5   1   0   91.85    3.76
   5  -1   0   89.09    2.76
   5   1   0   88.29    3.06
   5   1   0   84.44    3.35
   5  -1   0   79.33    3.32
   5   1   1  255.22    4.96
  -5  -1   1  256.47    4.56
  -5   1  -1  273.68    5.13
   5  -1  -1  272.28    6.57
  -5   1  -1  252.89    6.68
   5   1   1  275.32    5.91
   5  -1  -1  272.90    5.31
   5   1   1  265.57    6.38
   5   1   1  271.05    6.37
   5   1   2  390.20    6.89
  -5   1  -2  394.76    7.00
   5  -1  -2  389.40    8.39
  -5  -1   2  397.87    7.53
   5   1   2  398.30    7.69
   5  -1  -2  396.52    6.93
  -5  -1   2  399.39    8.76
   5   1   2  402.76    8.21
   5   1   2  408.12    8.34
   5   1   3 5630.71   66.21
  -5   1  -3 5614.32   66.34
   5  -1  -3 5673.37   68.32
  -5  -1   3 5691.92   66.81
   5   1   3 5613.31   67.06
   5  -1  -3 5802.99   65.92
  -5  -1   3 5744.08   68.92
   5   1   3 5566.51   67.88
   5  -1  -3 5557.87   67.06
   5   1   3 5852.49   68.24
   5   1   4  734.00   11.78
  -5   1  -4  773.64   12.05
   5  -1  -4  765.01   13.30
  -5   1  -4  743.49   13.16
  -5  -1   4  734.80   11.94
   5   1   4  764.79   12.28
   5  -1  -4  774.95   11.45
   5   1   4  770.09   13.08
   5   1   4  795.54   13.10
   5  -1  -4  747.69   12.47
   5   1   5 3681.87   44.38
  -5   1  -5 3593.22   44.44
   5  -1  -5 3526.12   45.91
  -5   1  -5 3544.72   45.70
   5   1   5 3711.26   44.67
  -5  -1   5 3622.99   44.24
   5  -1  -5 3657.76   43.52
   5   1   5 3651.69   45.59
   5  -1  -5 3516.58   45.04
   5   1   5 3549.86   45.35
   5   1   6  241.29    5.96
  -5   1  -6  250.62    6.10
  -5   1  -6  261.36    6.70
   5   1   6  254.47    6.12
  -5  -1   6  253.66    5.88
   5  -1  -6  247.37    5.49
   5  -1  -6  245.31    6.42
   5   1   6  257.90    6.62
   5   1   6  250.38    6.49
   5   1   7   21.16    1.70
  -5   1  -7   23.16    1.79
  -5   1  -7   22.28    1.88
   5   1   7   19.26    1.65
  -5  -1   7   23.99    1.72
   5  -1  -7   23.19    1.58
   5  -1  -7   28.33    2.12
   5   1   7   21.76    1.87
   5   1   7   22.91    1.90
   5   1   8   19.59    1.73
  -5   1  -8   21.50    1.82
  -5   1  -8   20.83    1.88
   5   1   8   20.26    1.72
  -5  -1   8   20.19    1.61
   5   1   8   19.48    1.81
   5  -1  -8   20.50    1.94
   5   1   8   21.65    1.94
   5   1   9   39.21    2.52
   5  -1  -9   37.24    1.87
  -5   1  -9   37.08    2.45
  -5   1  -9   37.06    2.47
  -5  -1   9   42.26    2.41
   5   1   9   37.69    2.56
   5  -1  -9   40.91    2.80
   5   1  10  224.59    6.53
   5  -1 -10  234.48    5.45
  -5   1 -10  234.76    6.73
  -5   1 -10  234.55    6.55
  -5  -1  10  227.48    6.12
   5  -1 -10  232.90    7.11
   5   1  10  231.77    6.79
  -5  -1  11 5574.46   67.43
  -5   1 -11 5390.90   67.84
  -5   1 -11 5525.53   66.08
   5  -1 -11 5594.46   65.99
   5  -1 -11 5606.86   69.21
  -5  -1  11 5332.74   66.54
   5  -1 -11 5644.63   69.81
   5   1  11 5787.98   69.02
  -5   1 -12 1040.77   17.29
  -5  -1  12 1006.54   16.86
  -5   1 -12  999.18   15.94
   5  -1 -12 1045.06   15.97
   5  -1 -12 1023.04   18.35
   5  -1 -12 1031.17   18.75
   5   1  12  997.85   17.81
  -5   1 -13 3523.95   46.64
  -5   1 -13 3680.40   45.87
   5  -1 -13 3605.74   45.58
   5  -1 -13 3646.83   48.82
   5   1  13 3573.29   47.95
  -5   1 -14  119.91    4.52
   5  -1 -14  121.00    4.48
   5   1  14  119.57    5.25
  -5   1 -15  276.78    7.48
   5  -1 -15  279.06    7.40
   5   1  15  266.79    8.39
  -5   1 -16   31.44    2.51
   5  -1 -16   31.82    2.46
   5   1  16   32.70    2.98
  -5   1 -17  156.24    5.83
   5  -1 -17  156.95    5.75
   5   1  17  142.75    6.28
  -5   1 -18   89.22    4.50
   5  -1 -18   94.30    4.53
   5   1  18   85.71    4.95
  -5   1 -19  535.81   12.56
   5  -1 -19  555.15   12.53
   5   1  19  547.81   13.83
  -5   1 -20  197.75    7.20
   5  -1 -20  199.16    7.14
   5   1  20  197.26    8.05
  -5   1 -21  508.04   12.66
   5  -1 -21  517.57   12.57
   5   1  21  528.74   14.07
  -5   1 -22   57.28    3.99
   5  -1 -22   65.84    4.18
   5   1  22   52.78    4.33
  -5   1 -23   59.50    4.11
   5  -1 -23   55.86    3.95
   5   1  23   66.70    4.87
  -5   1 -24   38.60    3.44
   5  -1 -24   41.73    3.50
   5   1  24   41.50    3.96
  -5   1 -25  102.00    5.36
   5  -1 -25   95.84    5.17
   5   1  25   99.72    5.98
  -5   1 -26   44.43    3.59
   5  -1 -26   38.28    3.31
   5   1  26   39.75    3.82
  -5   1 -27  201.31    7.47
   5  -1 -27  213.05    7.61
  -5   1 -28   75.53    4.43
   5  -1 -28   73.91    4.32
   5   1  28   79.35    5.10
   5   1  29  539.32   13.78
   5   1  29  558.89   13.99
   5   1  30   46.43    3.78
   5   1  30   50.51    3.82
   5   1  31   16.02    2.21
   5  -2  30   21.91    2.56
   5  -2  29   19.65    2.53
   5   2 -28   72.66    4.26
  -5  -2 -28   72.37    4.26
   5  -2  28   84.90    5.19
   5   2 -27   88.77    4.78
  -5  -2 -27   90.45    4.82
   5  -2  27   88.03    5.51
   5   2 -26   48.80    3.77
  -5  -2 -26   50.05    3.80
   5  -2  26   56.73    4.50
   5   2 -25   32.79    3.14
  -5  -2 -25   30.16    2.98
   5  -2  25   39.78    3.79
   5   2 -24   32.74    3.17
  -5  -2 -24   35.31    3.23
   5   2 -24   32.33    3.69
   5  -2  24   35.61    3.61
   5   2 -23  161.47    6.82
  -5  -2 -23  166.84    6.80
   5   2 -23  171.00    8.37
   5  -2  23  164.53    7.60
   5   2 -22  114.50    5.65
  -5  -2 -22  116.99    5.61
   5   2 -22  122.78    7.04
   5  -2  22  124.50    6.54
   5   2 -21  143.26    6.24
  -5  -2 -21  140.46    6.07
   5  -2  21  154.04    7.17
   5   2 -20   75.41    4.38
  -5  -2 -20   72.76    4.23
   5   2 -20   73.13    5.23
   5  -2  20   67.38    4.64
   5   2 -19  112.15    5.26
  -5  -2 -19  105.68    5.00
   5   2 -19  114.28    6.41
   5   2 -19  105.03    6.33
   5  -2  19  116.12    5.88
   5   2 -18  154.17    6.04
  -5  -2 -18  147.92    5.80
   5   2 -18  146.59    7.07
   5  -2  18  139.77    6.41
   5   2 -18  148.69    7.26
   5   2 -17   18.24    2.10
  -5  -2 -17   17.60    2.03
   5   2 -17   17.21    2.49
   5   2 -17   14.68    2.49
   5  -2  17   22.43    2.57
   5   2 -16   38.79    2.83
  -5  -2 -16   39.92    2.82
   5   2 -16   42.90    3.59
   5   2 -16   39.20    3.56
   5  -2  16   41.57    3.26
   5   2 -15  195.81    6.31
  -5  -2 -15  196.12    6.17
   5   2 -15  196.17    7.48
   5   2 -15  211.96    8.09
   5  -2  15  195.87    7.03
   5   2 -14  233.88    6.66
  -5  -2 -14  239.24    6.65
   5   2 -14  239.98    8.09
   5  -2  14  245.28    7.72
  -5  -2 -13  237.71    6.10
   5   2 -13  241.79    6.54
  -5  -2 -13  240.19    6.43
  -5  -2 -13  231.52    5.94
   5  -2  13  235.47    7.44
  -5  -2 -12   32.15    2.10
  -5   2  12   32.58    2.89
   5   2 -12   28.28    2.05
  -5  -2 -12   31.56    2.14
  -5  -2 -12   29.60    2.19
   5   2 -12   29.01    2.58
   5  -2  12   34.24    2.67
  -5  -2 -11  120.16    4.17
  -5   2  11  120.57    3.89
   5  -2  11  116.37    4.88
   5   2 -11  116.11    3.99
  -5  -2 -11  125.28    4.10
   5   2 -11  120.02    4.96
  -5  -2 -11  123.52    4.24
   5  -2  11  121.10    4.92
  -5  -2 -10   54.97    2.78
  -5   2  10   57.67    2.49
  -5   2  10   65.67    3.45
   5  -2  10   60.67    3.38
   5   2 -10   55.65    3.17
  -5  -2 -10   54.98    3.15
  -5  -2 -10   55.84    2.56
  -5  -2 -10   56.38    2.93
   5   2 -10   64.83    3.45
   5   2 -10   60.89    3.62
   5  -2  10   55.70    3.22
  -5  -2  -9   99.24    3.77
  -5   2   9   98.46    3.17
  -5   2   9   92.68    3.97
   5  -2   9   99.03    4.27
   5   2  -9   92.13    3.94
  -5  -2  -9   92.23    3.96
  -5  -2  -9  102.28    4.02
   5   2  -9   91.40    4.01
   5   2  -9   89.92    4.28
   5  -2   9   96.65    4.13
  -5  -2  -8  223.55    6.01
  -5   2   8  237.97    5.14
  -5   2   8  236.73    6.44
   5  -2   8  229.30    6.72
   5   2  -8  248.31    6.50
  -5  -2  -8  230.75    6.33
   5   2  -8  229.99    6.32
   5  -2   8  243.22    6.62
   5   2  -8  239.30    6.99
  -5  -2  -7   40.02    2.36
  -5   2   7   41.65    1.84
  -5   2   7   37.75    2.40
   5  -2   7   37.77    2.54
   5   2  -7   37.67    2.36
  -5  -2  -7   34.76    2.23
   5   2  -7   41.39    2.40
   5   2  -7   41.03    2.69
   5  -2   7   41.94    2.57
  -5   2   6   23.02    1.31
  -5  -2  -6   24.29    1.85
  -5   2   6   20.17    1.78
   5  -2   6   26.67    2.10
   5   2  -6   28.16    1.97
  -5  -2  -6   24.15    1.79
   5   2  -6   24.99    1.77
   5   2  -6   22.46    1.93
   5  -2   6   21.57    1.88
   5  -2   5  371.70    7.03
  -5   2   5  374.17    6.36
  -5  -2  -5  351.90    7.94
  -5   2   5  363.33    8.18
   5  -2   5  367.52    8.47
   5   2  -5  360.63    7.72
  -5  -2  -5  356.07    7.50
   5   2  -5  374.63    7.38
   5  -2   5  361.02    8.10
   5   2  -5  366.01    8.24
  -5  -2  -4  120.98    3.74
   5   2  -4  110.89    4.04
  -5   2   4  114.16    2.93
   5  -2   4  112.61    3.31
  -5   2   4  115.35    4.22
  -5  -2  -4  111.28    4.07
   5   2  -4  114.93    3.83
   5  -2   4  117.07    4.41
   5  -2   4  119.49    4.18
   5   2  -4  109.28    4.12
   5   2  -4  113.54    4.07
  -5  -2  -3  302.14    6.23
   5   2  -3  288.59    4.38
  -5   2   3  282.92    4.14
   5   2  -3  300.46    6.92
   5  -2   3  307.37    5.84
  -5   2   3  294.57    7.23
  -5  -2  -3  288.37    7.03
   5   2  -3  308.64    6.65
   5  -2   3  299.66    7.37
   5   2  -3  295.31    6.80
   5   2  -3  295.36    7.03
   5  -2   3  304.58    7.00
  -5  -2  -2  522.50    8.75
   5   2  -2  504.25    7.29
  -5   2   2  503.51    7.18
   5   2  -2  506.19    9.62
   5  -2   2  508.20    8.25
   5   2  -2  518.23    9.36
  -5  -2  -2  502.62   10.11
   5  -2   2  528.00    9.88
   5   2  -2  508.89    9.44
   5   2  -2  513.09    9.85
   5   2  -1   96.15    2.52
  -5   2   1   98.79    2.53
  -5  -2  -1  101.68    2.99
   5   2  -1   99.66    3.60
  -5   2   1  102.06    4.01
   5  -2   1   99.45    2.79
   5   2  -1   99.99    3.46
  -5  -2  -1   97.17    3.90
   5  -2   1   97.73    3.65
   5   2  -1   99.43    3.42
   5   2  -1   96.05    3.65
   5   2   0   19.20    1.14
  -5   2   0   20.18    1.19
  -5  -2   0   21.83    1.29
   5   2   0   19.99    1.61
  -5   2   0   22.74    1.90
   5  -2   0   21.39    1.21
   5   2   0   21.49    1.59
  -5  -2   0   20.24    1.81
   5   2   0   19.19    1.67
   5   2   0   20.24    1.48
   5  -2   0   20.78    1.67
   5   2   1  101.54    2.94
  -5   2  -1  104.93    2.98
  -5  -2   1  100.97    3.49
  -5   2  -1  102.46    4.02
   5   2   1   95.27    3.40
   5  -2  -1  101.38    2.72
   5   2   1   99.01    3.71
   5  -2  -1  102.40    3.72
   5   2   1   99.15    3.58
   5   2   2  516.07    8.72
  -5   2  -2  547.92    8.87
  -5  -2   2  515.77    9.47
  -5   2  -2  531.48   10.55
   5   2   2  527.68    9.58
   5  -2  -2  524.23    8.07
   5  -2  -2  530.64   10.00
   5   2   2  521.32    9.89
   5   2   2  521.43    9.71
   5   2   3  305.04    6.27
  -5   2  -3  306.49    6.29
  -5  -2   3  299.54    6.63
   5   2   3  311.46    6.81
   5  -2  -3  298.57    5.45
   5   2   3  310.73    7.09
   5  -2  -3  295.91    7.10
   5   2   3  302.41    6.93
   5   2   4  113.72    3.66
  -5   2  -4  117.29    3.72
  -5  -2   4  110.26    3.73
   5   2   4  122.00    4.00
   5  -2  -4  119.95    3.10
   5   2   4  116.04    4.03
   5   2   4  113.68    4.08
   5  -2  -4  116.90    4.28
   5   2   5  389.13    7.79
  -5   2  -5  374.73    7.68
  -5   2  -5  369.34    8.46
   5   2   5  364.09    7.79
  -5  -2   5  370.17    7.71
   5  -2  -5  366.32    6.56
   5   2   5  367.17    8.12
   5   2   5  380.75    8.10
   5   2   6   18.98    1.60
  -5   2  -6   21.29    1.69
  -5   2  -6   20.24    1.85
   5   2   6   20.15    1.67
  -5  -2   6   22.50    1.71
   5   2   6   21.30    1.84
   5   2   6   21.50    1.76
   5   2   7   40.84    2.42
  -5   2  -7   39.71    2.38
  -5   2  -7   42.78    2.66
   5   2   7   37.33    2.31
  -5  -2   7   39.18    2.32
   5   2   7   42.43    2.58
   5   2   7   41.00    2.50
   5   2   8  232.35    6.42
  -5   2  -8  241.21    6.49
   5  -2  -8  235.49    4.99
  -5   2  -8  260.17    6.95
   5   2   8  233.89    6.36
  -5  -2   8  240.88    6.22
   5   2   8  231.01    6.42
   5   2   8  247.37    6.67
  -5   2  -9   99.44    4.18
   5   2   9  104.60    4.10
  -5  -2   9   93.81    3.78
   5   2   9   89.13    3.93
  -5   2  -9  102.64    4.18
   5  -2  -9   92.52    3.06
  -5  -2   9   94.44    3.70
   5   2   9   95.35    4.07
  -5   2 -10   49.46    2.99
  -5  -2  10   50.83    2.87
   5   2  10   48.68    2.99
  -5   2 -10   55.74    3.17
   5  -2 -10   52.09    2.41
  -5  -2  10   48.73    2.58
   5   2  10   51.28    3.06
  -5   2 -11  117.40    4.70
  -5  -2  11  116.14    4.48
  -5   2 -11  110.54    3.89
   5  -2 -11  115.23    3.86
  -5  -2  11  116.70    3.98
   5   2  11  117.67    4.80
  -5   2 -12   25.46    1.97
   5  -2 -12   31.22    2.08
   5   2  12   29.42    2.47
  -5   2 -13  220.36    6.25
   5  -2 -13  233.82    6.22
   5   2  13  224.04    7.18
  -5   2 -14  241.69    6.78
   5  -2 -14  234.46    6.54
   5   2  14  230.08    7.57
  -5   2 -15  184.59    6.10
   5  -2 -15  202.35    6.17
   5   2  15  198.33    7.05
  -5   2 -16   36.64    2.78
   5  -2 -16   37.67    2.72
   5   2  16   36.48    3.14
  -5   2 -17   16.77    2.04
   5  -2 -17   16.11    1.94
   5   2  17   18.71    2.35
  -5   2 -18  157.95    6.15
   5  -2 -18  147.61    5.76
   5   2  18  151.57    6.61
  -5   2 -19   98.33    4.95
   5  -2 -19  106.70    4.99
   5   2  19  101.82    5.56
  -5   2 -20   61.16    4.00
   5  -2 -20   68.21    4.10
   5   2  20   73.07    4.80
  -5   2 -21  128.38    5.94
   5  -2 -21  135.02    5.92
   5   2  21  141.32    6.83
  -5   2 -22  125.27    5.95
   5  -2 -22  132.90    5.98
   5   2  22  124.70    6.54
  -5   2 -23  155.58    6.75
   5  -2 -23  162.19    6.71
   5   2  23  175.99    7.90
  -5   2 -24   35.39    3.36
   5  -2 -24   37.72    3.34
   5   2  24   39.36    3.82
  -5   2 -25   29.97    3.04
   5  -2 -25   31.90    3.04
   5   2  25   33.98    3.53
  -5   2 -26   49.32    3.81
   5  -2 -26   52.30    3.87
   5   2  26   55.95    4.44
  -5   2 -27   79.91    4.61
   5  -2 -27   85.85    4.69
   5   2  27   84.61    5.36
  -5   2 -28   68.66    4.21
   5  -2 -28   71.63    4.19
   5   2  28   81.31    5.10
  -5   2 -29   20.80    2.34
   5   2  29   22.77    2.86
   5   2  29   24.93    2.81
   5   2  30   26.15    2.77
   5   2  30   25.07    2.80
   5  -3  30  216.70    7.92
   5  -3  30  220.32    7.79
   5  -3  29  177.41    7.43
   5  -3  29  165.17    6.97
  -5  -3 -28   54.83    3.71
   5   3 -28   56.56    3.74
   5  -3  28   60.69    4.40
   5  -3  28   60.97    4.48
  -5  -3 -27  133.67    5.90
   5   3 -27  141.72    6.10
   5  -3  27  138.82    6.87
   5  -3  27  152.62    7.09
   5   3 -26  461.08   12.06
  -5  -3 -26  472.32   12.03
   5  -3  26  494.45   13.63
   5   3 -25  103.19    5.39
  -5  -3 -25  100.36    5.26
   5   3 -25  100.36    6.34
   5  -3  25  106.81    6.11
   5   3 -24   46.30    3.71
  -5  -3 -24   43.93    3.54
   5   3 -24   52.96    4.72
   5  -3  24   49.99    4.17
   5   3 -23   64.47    4.31
  -5  -3 -23   63.87    4.16
   5   3 -23   70.99    5.41
   5  -3  23   62.43    4.61
   5   3 -22  260.59    8.76
  -5  -3 -22  238.48    8.20
   5   3 -22  268.97   10.45
   5  -3  22  252.94    9.42
   5   3 -21  361.39   10.39
  -5  -3 -21  345.67    9.98
   5   3 -21  384.76   12.60
   5  -3  21  370.25   11.42
   5   3 -20  154.13    6.40
  -5  -3 -20  149.63    6.18
   5   3 -20  167.67    7.92
   5   3 -20  148.36    7.70
   5  -3  20  160.29    7.13
   5   3 -19   38.49    3.14
  -5  -3 -19   37.94    3.06
   5   3 -19   43.28    4.04
   5   3 -19   40.35    3.97
   5  -3  19   43.25    3.68
   5   3 -18   50.15    3.51
  -5  -3 -18   49.45    3.35
   5   3 -18   56.57    4.45
   5   3 -18   58.68    4.64
   5  -3  18   57.54    4.05
   5   3 -17  106.70    4.90
  -5  -3 -17  104.88    4.74
   5   3 -17  105.70    5.85
   5   3 -17  103.36    5.94
   5  -3  17  101.92    5.26
   5   3 -16   34.05    2.76
  -5  -3 -16   37.05    2.76
   5   3 -16   41.80    3.60
   5   3 -16   32.97    3.37
   5  -3  16   35.79    3.07
   5   3 -15   33.30    2.61
  -5  -3 -15   39.37    2.74
   5   3 -15   38.58    3.33
   5   3 -15   43.53    3.70
   5  -3  15   39.21    3.13
   5   3 -14  280.27    7.60
  -5  -3 -14  283.31    7.47
   5   3 -14  294.67    9.15
   5   3 -14  285.67    9.45
   5  -3  14  284.98    8.48
  -5  -3 -13 2232.78   30.23
  -5  -3 -13 2157.63   29.18
   5   3 -13 2181.20   32.90
   5  -3  13 2177.04   32.01
  -5  -3 -12  358.45    7.63
  -5  -3 -12  390.13    8.40
  -5  -3 -12  367.25    8.08
   5   3 -12  397.20   10.12
   5  -3  12  373.76    9.46
  -5  -3 -11 1950.90   26.30
  -5  -3 -11 1875.65   26.40
   5   3 -11 1945.92   28.76
   5  -3  11 1921.98   28.19
  -5  -3 -10  234.52    6.01
  -5  -3 -10  240.89    5.88
  -5  -3 -10  238.83    6.24
   5   3 -10  245.24    7.17
   5   3 -10  222.89    7.43
   5  -3  10  243.04    7.02
  -5  -3  -9  126.56    4.24
  -5   3   9  129.50    3.42
  -5   3   9  126.53    4.61
   5  -3   9  126.76    5.07
   5   3  -9  133.41    5.00
  -5  -3  -9  130.00    4.84
   5   3  -9  130.95    4.86
  -5  -3  -9  129.95    4.47
   5  -3   9  128.30    4.80
   5  -3   9  124.48    4.92
   5   3  -9  135.92    5.43
  -5  -3  -8   29.14    2.00
  -5   3   8   29.52    1.46
  -5   3   8   27.89    2.09
   5  -3   8   28.47    2.36
   5   3  -8   26.10    2.11
  -5  -3  -8   28.98    2.20
   5   3  -8   27.19    2.11
  -5  -3  -8   32.49    2.27
   5   3  -8   27.60    2.35
   5  -3   8   30.03    2.26
   5  -3   8   28.22    2.30
  -5   3   7  119.56    2.95
  -5  -3  -7  111.63    4.03
  -5   3   7  115.25    4.28
   5  -3   7  119.81    4.76
   5   3  -7  132.53    4.62
  -5  -3  -7  124.63    4.42
  -5  -3  -7  121.31    4.35
   5   3  -7  116.17    4.18
   5  -3   7  116.23    4.33
   5   3  -7  113.56    4.63
   5  -3   7  116.11    4.54
  -5   3   6  366.51    5.81
  -5   3   6  351.05    8.01
  -5  -3  -6  349.86    7.78
   5  -3   6  367.52    8.79
   5   3  -6  353.12    8.03
  -5  -3  -6  364.32    7.94
   5   3  -6  330.30    4.70
   5   3  -6  355.41    7.59
  -5  -3  -6  367.76    8.10
   5  -3   6  354.05    8.05
   5   3  -6  368.82    8.65
   5  -3   6  348.82    8.31
   5  -3   5 4205.07   48.42
  -5   3   5 4215.74   50.93
  -5  -3  -5 4172.49   50.50
   5  -3   5 4302.31   51.96
   5   3  -5 4220.03   50.56
  -5  -3  -5 4118.27   50.05
  -5   3   5 4055.13   45.65
   5   3  -5 4109.46   46.19
  -5  -3  -5 4049.31   50.65
   5   3  -5 4305.24   49.59
   5  -3   5 4284.73   51.30
   5   3  -5 4220.36   51.40
   5  -3   5 4226.55   50.73
   5  -3   4  844.97   12.24
  -5   3   4  873.99   14.47
  -5  -3  -4  810.76   14.01
   5  -3   4  869.33   14.96
   5   3  -4  832.77   13.89
  -5   3   4  839.06   10.73
  -5  -3  -4  849.51   13.43
  -5   3   4  812.76   10.75
   5   3  -4  835.20   10.99
  -5  -3  -4  837.42   14.28
   5  -3   4  827.40   13.98
   5   3  -4  848.22   14.30
   5   3  -4  862.98   14.44
   5  -3   4  882.61   14.54
   5   3  -3 6051.40   74.02
  -5   3   3 6398.54   75.31
   5  -3   3 6397.55   71.94
  -5  -3  -3 6207.13   74.88
   5   3  -3 6200.45   74.21
   5  -3   3 6195.42   75.51
  -5   3   3 6216.60   70.98
   5   3  -3 6177.76   71.16
  -5  -3  -3 6399.14   73.52
  -5  -3  -3 6154.54   75.01
   5   3  -3 6164.61   74.63
   5  -3   3 6299.10   74.41
   5   3  -3 6211.73   74.64
   5  -3   3 6382.67   75.02
  -5   3   2 1775.08   21.95
  -5  -3  -2 1751.34   23.57
   5   3  -2 1776.52   22.07
   5   3  -2 1732.73   24.19
  -5   3   2 1779.39   25.33
   5  -3   2 1796.28   22.17
   5   3  -2 1836.72   24.56
  -5  -3  -2 1739.26   25.03
   5  -3   2 1744.46   24.93
   5  -3   2 1822.41   24.66
   5   3  -2 1761.33   24.49
   5   3  -2 1728.82   24.59
  -5   3   1   75.26    2.37
  -5  -3  -1   77.31    2.78
   5   3  -1   74.37    2.40
   5   3  -1   71.97    3.01
  -5   3   1   80.22    3.53
   5  -3   1   76.43    2.20
   5   3  -1   71.25    3.05
  -5  -3  -1   73.21    3.42
   5  -3   1   75.02    3.32
   5   3  -1   70.91    3.03
   5  -3   1   72.07    3.14
   5   3  -1   74.72    3.23
  -5   3   0   53.49    2.09
   5   3   0   53.54    2.12
   5  -3   0   53.69    2.81
   5   3   0   58.96    2.69
  -5   3   0   53.87    2.90
   5   3   0   54.16    2.65
   5  -3   0   53.44    1.73
   5   3   0   53.90    2.55
   5   3   0   53.31    2.71
   5  -3   0   52.98    2.69
  -5   3  -1   81.85    3.59
   5  -3  -1   73.02    3.29
  -5  -3   1   69.50    3.04
   5   3   1   76.12    3.17
   5  -3  -1   73.76    2.02
  -5   3  -1   73.16    2.62
   5   3   1   77.19    2.69
   5   3   1   74.20    2.97
   5   3   1   71.45    2.96
   5   3   1   70.65    3.11
   5  -3  -1   71.38    3.13
  -5   3  -2 1817.63   23.32
   5   3   2 1787.25   23.31
   5  -3  -2 1717.68   24.90
  -5   3  -2 1745.24   25.17
  -5  -3   2 1774.75   24.26
   5   3   2 1755.44   24.30
   5  -3  -2 1742.42   21.27
   5   3   2 1715.25   24.27
   5  -3  -2 1760.89   24.49
   5   3   2 1748.78   23.96
   5  -3  -3 6277.64   75.56
  -5   3  -3 6324.29   75.94
  -5  -3   3 6187.54   74.60
   5   3   3 6304.36   74.85
   5  -3  -3 6315.15   71.35
  -5   3  -3 6257.26   73.79
   5   3   3 6209.23   73.79
  -5  -3   3 6214.73   75.43
   5  -3  -3 6489.22   75.31
   5   3   3 6232.81   74.81
   5   3   3 6325.37   74.42
   5  -3  -4  818.62   14.46
  -5  -3   4  857.19   13.82
   5   3   4  810.67   13.69
   5  -3  -4  819.37   11.11
  -5   3  -4  889.06   13.55
   5   3   4  822.19   13.27
  -5  -3   4  854.80   14.31
   5  -3  -4  857.02   14.28
   5   3   4  818.86   13.51
   5   3   4  810.04   13.83
   5  -3  -5 4240.36   53.04
  -5  -3   5 4223.58   51.98
  -5   3  -5 4314.64   51.76
   5   3   5 4107.14   51.60
  -5  -3   5 4171.41   52.29
   5   3   5 4185.05   51.69
   5   3   5 4233.85   52.23
  -5   3  -6  369.81    8.78
  -5  -3   6  380.94    8.24
  -5   3  -6  379.36    8.20
   5   3   6  379.21    8.20
  -5  -3   6  371.46    8.28
   5   3   6  375.22    8.17
   5   3   6  384.95    8.41
  -5   3  -7  113.35    4.51
  -5  -3   7  107.15    4.10
   5   3   7  110.96    4.20
  -5   3  -7  117.69    4.28
  -5  -3   7  111.78    4.06
   5   3   7  113.90    4.26
   5   3   7  110.58    4.16
  -5   3  -8   31.21    2.38
  -5  -3   8   37.99    2.41
   5  -3  -8   31.58    1.74
   5   3   8   30.77    2.26
  -5   3  -8   32.81    2.33
  -5  -3   8   29.94    2.07
   5   3   8   29.03    2.22
   5   3   8   30.65    2.21
  -5   3  -9  134.24    5.09
  -5  -3   9  123.57    4.63
   5   3   9  137.96    5.05
  -5   3  -9  133.55    5.00
   5  -3  -9  139.31    3.96
  -5  -3   9  130.19    4.37
   5   3   9  134.96    4.90
   5  -3 -10  225.83    5.47
  -5  -3  10  213.43    5.76
   5   3  10  207.64    6.46
   5  -3 -11 1934.97   25.90
  -5  -3  11 1865.79   25.99
   5   3  11 1899.98   27.95
   5  -3 -12  380.30    8.16
  -5  -3  12  359.63    7.83
   5   3  12  368.84    9.38
   5  -3 -13 2119.48   29.68
   5   3  13 2260.03   32.11
   5  -3 -14  311.43    7.79
   5   3  14  301.29    8.79
  -5   3 -15   36.96    2.71
   5  -3 -15   35.43    2.54
   5   3  15   35.17    2.93
  -5   3 -16   34.43    2.76
   5  -3 -16   34.12    2.63
   5   3  16   37.62    3.11
  -5   3 -17  102.43    4.85
   5  -3 -17  104.75    4.70
   5   3  17  108.01    5.41
  -5   3 -18   57.46    3.76
   5  -3 -18   54.92    3.51
   5   3  18   56.59    4.08
  -5   3 -19   28.41    2.75
   5  -3 -19   26.54    2.63
   5   3  19   25.83    2.93
  -5   3 -20  142.95    6.22
   5  -3 -20  141.82    5.98
   5   3  20  144.19    6.81
  -5   3 -21  365.07   10.53
   5  -3 -21  363.62   10.19
   5   3  21  365.52   11.39
  -5   3 -22  256.72    8.75
   5  -3 -22  254.49    8.44
   5   3  22  245.87    9.34
  -5   3 -23   56.87    4.11
   5  -3 -23   61.64    4.07
   5   3  23   69.85    4.88
  -5   3 -24   51.09    3.92
   5  -3 -24   49.64    3.75
   5   3  24   58.52    4.55
  -5   3 -25  110.55    5.63
   5  -3 -25  102.99    5.33
   5   3  25  109.07    6.15
  -5   3 -26  473.35   12.28
   5  -3 -26  460.74   11.91
   5   3  26  495.75   13.63
   5  -3 -27  138.66    5.98
  -5   3 -27  136.20    6.06
   5   3  27  144.85    6.87
   5  -3 -28   45.16    3.35
  -5   3 -28   48.42    3.51
   5   3  28   50.29    3.98
   5   3  29  188.65    7.46
   5   3  29  188.75    7.41
   5   3  30  211.21    7.58
   5   3  30  204.34    7.43
   5  -4  30   18.10    2.37
   5  -4  29  120.27    5.92
   5  -4  29  111.87    5.49
  -5  -4 -28   36.10    3.10
   5  -4  28   39.26    3.63
   5  -4  28   39.60    3.41
  -5  -4 -27   55.49    3.86
   5   4 -27   54.49    3.85
   5  -4  27   57.37    4.39
   5  -4  27   57.22    4.22
  -5  -4 -26   29.95    2.93
   5   4 -26   31.48    3.07
   5   4 -26   31.79    3.68
   5  -4  26   37.68    3.50
   5  -4  26   37.43    3.66
  -5  -4 -25   36.42    3.21
   5   4 -25   35.88    3.31
   5   4 -25   42.39    4.25
   5  -4  25   41.11    3.75
  -5  -4 -24  130.87    5.98
   5   4 -24  128.92    6.11
   5   4 -24  144.84    7.65
   5  -4  24  132.99    6.69
   5   4 -23   66.01    4.35
  -5  -4 -23   65.19    4.24
   5   4 -23   71.57    5.43
   5  -4  23   68.19    4.79
   5   4 -22   91.51    5.13
  -5  -4 -22  100.04    5.21
   5   4 -22  100.85    6.33
   5  -4  22   98.04    5.68
   5   4 -21  184.45    7.26
  -5  -4 -21  187.99    7.13
   5   4 -21  188.68    8.68
   5   4 -21  184.31    8.78
   5  -4  21  196.78    8.04
   5   4 -20   37.57    3.17
  -5  -4 -20   40.87    3.31
   5   4 -20   38.15    3.84
   5  -4  20   41.30    3.68
   5   4 -20   38.40    3.98
   5   4 -19   23.21    2.49
  -5  -4 -19   20.41    2.37
   5   4 -19   25.07    3.13
   5   4 -19   18.70    2.95
   5  -4  19   23.89    2.77
   5   4 -18   45.00    3.27
  -5  -4 -18   38.57    3.03
   5   4 -18   40.51    3.77
   5   4 -18   41.47    4.04
   5  -4  18   41.51    3.48
   5   4 -17   17.87    2.11
  -5  -4 -17   18.84    2.05
   5   4 -17   20.69    2.75
   5   4 -17   18.43    2.73
   5  -4  17   19.19    2.38
  -5  -4 -16  133.98    5.36
   5   4 -16  141.51    6.61
   5   4 -16  133.31    6.74
   5  -4  16  137.48    5.99
  -5  -4 -15    3.84    0.94
   5   4 -15    1.16    1.16
   5   4 -15    2.89    1.29
   5  -4  15    2.23    1.02
  -5  -4 -14   39.43    2.68
   5   4 -14   40.23    3.32
   5   4 -14   44.29    3.67
   5  -4  14   42.10    3.12
  -5  -4 -13  133.84    4.84
   5   4 -13  120.27    5.59
  -5  -4 -13  124.24    4.36
   5   4 -13  117.56    5.85
   5  -4  13  125.26    5.25
  -5  -4 -12   40.13    2.55
   5   4 -12   36.04    2.96
  -5  -4 -12   42.86    2.56
   5  -4  12   42.41    3.01
  -5  -4 -11   79.36    3.10
  -5  -4 -11   88.02    3.62
  -5  -4 -11   79.37    3.52
   5   4 -11   76.82    4.08
   5  -4  11   79.15    4.10
   5  -4  11   77.41    3.90
  -5  -4 -10   20.65    1.62
  -5   4  10   22.35    1.94
  -5  -4 -10   26.06    1.86
  -5  -4 -10   26.28    2.08
   5   4 -10   24.56    2.25
   5  -4  10   23.61    2.29
   5  -4  10   25.87    2.16
  -5  -4  -9  271.60    6.55
  -5   4   9  295.87    7.27
  -5  -4  -9  317.78    6.86
   5   4  -9  275.44    4.53
   5   4  -9  265.23    4.46
   5   4  -9  308.80    7.91
  -5  -4  -9  311.52    7.37
   5   4  -9  293.79    8.47
   5  -4   9  302.33    7.67
   5  -4   9  302.84    8.03
  -5   4   8  140.34    4.76
  -5  -4  -8  130.70    4.35
  -5  -4  -8  148.26    4.25
   5   4  -8  133.30    2.83
  -5  -4  -8  140.81    5.07
   5   4  -8  133.99    4.86
  -5  -4  -8  137.47    4.76
   5  -4   8  137.99    4.89
   5   4  -8  145.66    5.55
   5  -4   8  143.54    5.21
  -5   4   7  188.98    5.56
  -5  -4  -7  169.28    5.12
   5  -4   7  181.34    6.20
   5   4  -7  193.65    5.97
   5   4  -7  175.43    3.51
  -5  -4  -7  179.09    5.61
  -5  -4  -7  181.03    5.45
   5   4  -7  178.57    5.43
   5  -4   7  175.27    5.45
   5   4  -7  179.60    6.08
   5  -4   7  183.57    5.87
   5  -4   6    8.35    1.34
  -5  -4  -6    9.67    1.24
   5   4  -6   11.96    1.45
  -5   4   6    7.05    1.15
   5  -4   6    7.95    1.37
   5   4  -6    7.88    0.70
  -5   4   6    6.83    0.62
  -5  -4  -6    8.65    1.24
  -5  -4  -6    7.23    1.34
   5   4  -6    6.49    1.11
   5   4  -6    7.17    1.35
   5  -4   6    8.56    1.25
  -5   4   5  946.69   15.58
   5  -4   5  962.01   13.43
  -5  -4  -5  902.47   15.18
   5  -4   5  991.84   16.78
   5   4  -5  929.05   15.66
  -5  -4  -5  929.71   15.28
  -5   4   5  944.30   12.60
   5   4  -5  924.77   12.68
  -5  -4  -5  930.75   15.35
   5   4  -5  929.57   14.61
   5   4  -5  915.81   16.04
   5  -4   5  949.26   15.33
   5  -4   5  931.72   15.78
  -5   4   4  304.94    7.40
   5  -4   4  314.77    5.66
   5  -4   4  312.09    8.02
  -5  -4  -4  276.98    7.04
   5   4  -4  293.67    7.24
   5   4  -4  295.49    5.47
  -5   4   4  299.17    5.48
  -5  -4  -4  324.49    7.25
  -5  -4  -4  296.28    7.19
   5   4  -4  284.81    6.37
   5  -4   4  295.90    7.03
   5  -4   4  297.13    7.42
   5   4  -4  298.27    7.55
  -5   4   3  203.33    5.86
   5  -4   3  195.40    4.00
   5   4  -3  199.95    5.67
  -5  -4  -3  197.74    5.75
   5   4  -3  198.37    4.31
  -5  -4  -3  204.50    5.45
  -5  -4  -3  197.54    5.70
   5  -4   3  190.07    5.70
   5  -4   3  196.61    5.47
   5   4  -3  192.58    5.56
   5   4  -3  193.89    5.76
   5   4  -2  303.87    5.84
  -5   4   2  314.55    7.60
   5   4  -2  299.41    6.69
   5  -4   2  302.14    5.06
  -5  -4  -2  301.63    7.52
   5  -4   2  313.29    7.42
   5   4  -2  295.01    7.06
   5  -4   2  296.41    6.97
   5   4  -2  295.88    7.22
   5   4  -1  406.24    8.24
  -5   4   1  435.38    9.33
   5  -4   1  418.14    6.21
   5  -4   1  447.52    9.60
   5   4  -1  440.30    7.67
   5   4  -1  445.87    9.08
   5  -4   1  439.99    8.75
   5  -4   1  437.78    9.18
   5   4  -1  434.27    8.81
   5  -4   0  138.98    4.72
   5   4   0  136.33    4.19
  -5   4   0  141.02    4.88
   5  -4   0  131.57    2.49
   5  -4   0  138.34    4.88
  -5   4   0  143.16    3.84
   5   4   0  138.24    3.87
  -5  -4   0  143.63    4.78
   5   4   0  136.30    4.42
   5  -4   0  145.51    4.52
   5  -4  -1  452.65    9.24
   5   4   1  427.08    8.20
  -5   4  -1  427.54    9.30
  -5  -4   1  432.11    8.83
  -5   4  -1  424.05    7.83
   5   4   1  438.15    7.97
  -5  -4   1  444.29    9.07
   5   4   1  416.50    8.53
   5  -4  -1  427.87    8.62
   5  -4  -2  310.76    7.49
  -5   4  -2  300.62    7.63
  -5  -4   2  302.50    7.19
  -5   4  -2  302.92    6.56
   5   4   2  298.90    6.55
  -5  -4   2  292.74    7.22
   5   4   2  296.65    6.97
   5   4   2  298.45    6.58
   5  -4  -2  302.29    7.15
   5  -4  -3  199.52    5.97
  -5   4  -3  206.65    6.13
  -5  -4   3  189.55    5.54
  -5   4  -3  204.27    5.32
   5   4   3  203.27    5.31
  -5  -4   3  198.89    5.69
   5   4   3  189.31    5.37
   5  -4  -3  195.60    5.65
   5   4   3  193.49    5.14
  -5   4  -4  300.62    7.71
   5  -4  -4  295.66    7.60
  -5  -4   4  282.22    7.04
  -5   4  -4  300.84    6.91
   5   4   4  295.51    6.84
  -5  -4   4  298.17    7.19
   5   4   4  286.45    6.93
   5   4   4  292.18    6.69
  -5   4  -5  912.12   16.19
   5  -4  -5  970.46   16.34
  -5  -4   5  940.75   15.64
  -5   4  -5  997.65   15.54
   5   4   5  966.75   15.39
  -5  -4   5  963.78   15.58
   5   4   5  909.94   15.25
   5   4   5  919.92   14.83
   5   4   6    6.81    1.11
   5   4   6    6.24    1.15
  -5  -4   6    6.72    1.14
  -5   4  -6    4.93    1.00
   5   4   6    6.20    1.09
   5  -4  -6    7.21    0.85
  -5  -4   6    6.01    1.17
   5   4   6    5.98    1.14
  -5   4  -7  182.00    6.04
   5   4   7  183.77    5.72
  -5  -4   7  190.34    5.77
   5  -4  -7  175.22    4.46
  -5   4  -7  185.17    5.77
   5   4   7  180.81    5.68
  -5  -4   7  192.72    5.58
   5   4   7  177.94    5.49
   5   4   7  180.21    5.33
  -5   4  -8  140.22    5.29
  -5  -4   8  144.53    5.07
   5  -4  -8  143.61    4.10
  -5   4  -8  136.48    5.05
   5   4   8  132.25    4.96
  -5  -4   8  146.46    4.80
   5   4   8  143.10    5.00
   5   4   8  139.07    4.73
   5  -4  -9  299.04    6.54
  -5  -4   9  285.21    7.05
   5   4   9  284.54    7.28
   5   4   9  289.36    7.60
   5  -4 -10   25.62    1.80
  -5  -4  10   22.55    1.87
   5   4  10   27.37    2.27
   5  -4 -11   77.79    3.32
  -5  -4  11   79.08    3.43
   5   4  11   82.95    4.01
   5  -4 -12   46.77    2.68
  -5  -4  12   41.86    2.50
   5   4  12   43.63    2.99
   5  -4 -13  122.29    4.58
   5   4  13  124.18    5.28
   5  -4 -14   47.59    2.90
   5   4  14   50.91    3.44
   5  -4 -15    2.35    0.83
   5   4  15    3.05    1.15
   5  -4 -16  138.79    5.38
   5   4  16  140.55    6.05
  -5   4 -17   20.92    2.32
   5  -4 -17   17.75    2.00
   5   4  17   16.93    2.31
  -5   4 -18   41.76    3.21
   5  -4 -18   45.93    3.25
   5   4  18   46.85    3.66
  -5   4 -19   26.61    2.67
   5  -4 -19   25.96    2.61
   5   4  19   25.15    2.88
  -5   4 -20   40.25    3.32
   5  -4 -20   36.09    3.13
   5   4  20   39.80    3.55
  -5   4 -21  185.02    7.38
   5  -4 -21  185.44    7.07
   5   4  21  192.42    7.91
  -5   4 -22   85.30    5.02
   5  -4 -22   96.34    5.08
   5   4  22   97.91    5.67
  -5   4 -23   58.89    4.26
   5  -4 -23   65.25    4.22
   5   4  23   66.73    4.79
   5  -4 -24  130.87    5.98
  -5   4 -24  115.76    5.84
   5   4  24  129.92    6.64
   5  -4 -25   43.90    3.49
  -5   4 -25   41.15    3.56
   5   4  25   45.47    3.93
   5  -4 -26   42.54    3.43
  -5   4 -26   33.30    3.18
   5   4  26   36.02    3.49
   5  -4 -27   54.53    3.82
  -5   4 -27   52.78    3.81
   5   4  27   55.97    4.18
  -5   4 -28   35.11    3.12
   5   4  28   45.37    3.68
   5   4  28   44.28    3.62
   5   4  29  115.86    5.62
   5   4  29  113.56    5.53
   5  -5  29  103.58    5.06
   5  -5  29   94.15    5.08
   5  -5  28  169.05    7.08
   5  -5  28  157.60    6.59
  -5  -5 -27  281.69    8.62
   5   5 -27  276.14    8.70
   5   5 -27  286.83   10.52
   5  -5  27  306.40   10.05
   5  -5  27  301.18    9.56
  -5  -5 -26  523.83   12.80
   5   5 -26  541.12   15.17
   5  -5  26  564.54   13.99
   5  -5  26  547.63   14.25
   5  -5  25   15.67    2.62
  -5  -5 -25   16.78    2.28
   5   5 -25   17.33    2.35
   5   5 -25   16.47    2.79
   5  -5  25   15.76    2.47
   5  -5  24    0.20    1.22
  -5  -5 -24    1.56    1.13
   5   5 -24    0.80    1.07
   5   5 -24    0.47    1.44
   5  -5  24    1.46    1.18
  -5  -5 -23  108.87    5.52
   5   5 -23  113.40    5.75
   5   5 -23  127.02    7.12
   5  -5  23  116.67    6.34
   5  -5  23  126.71    6.39
  -5  -5 -22  814.29   16.86
   5   5 -22  770.46   16.92
   5   5 -22  804.21   19.59
   5   5 -22  805.88   19.87
   5  -5  22  795.49   17.85
  -5  -5 -21  206.40    7.58
   5   5 -21  213.45    7.92
   5   5 -21  223.58    9.44
   5   5 -21  219.15    9.60
   5  -5  21  214.16    8.39
  -5  -5 -20  114.17    5.47
   5   5 -20  124.98    5.87
   5   5 -20  124.66    6.94
   5   5 -20  131.84    7.35
   5  -5  20  123.35    6.18
  -5  -5 -19  263.11    8.39
   5   5 -19  258.33    8.57
   5   5 -19  269.09   10.14
   5   5 -19  261.96   10.38
   5  -5  19  270.24    9.18
  -5  -5 -18  638.74   13.84
   5   5 -18  603.86   13.85
   5   5 -18  661.80   16.39
   5   5 -18  619.56   16.46
   5  -5  18  635.94   14.75
  -5  -5 -17  411.73   10.48
   5   5 -17  429.58   12.54
   5   5 -17  417.57   12.91
   5  -5  17  419.37   11.32
  -5  -5 -16  100.85    4.74
   5   5 -16   94.58    5.50
   5   5 -16   97.71    5.85
   5  -5  16  110.36    5.33
  -5  -5 -15  118.08    5.00
   5   5 -15  120.99    6.06
   5   5 -15  106.98    6.03
   5  -5  15  125.90    5.57
  -5  -5 -14 1055.56   17.82
   5   5 -14 1000.62   19.67
  -5  -5 -14  960.59   16.15
   5  -5  14 1022.92   18.53
   5   5 -14  984.18   20.45
   5  -5  14 1017.80   19.00
  -5  -5 -13  640.02   12.57
   5   5 -13  589.84   13.84
  -5  -5 -13  602.49   11.69
   5  -5  13  608.43   13.49
   5   5 -13  641.80   15.06
   5  -5  13  619.49   13.17
  -5  -5 -12  124.78    4.76
   5   5 -12  111.81    5.27
  -5  -5 -12  116.26    4.45
   5  -5  12  123.85    5.35
   5   5 -12  107.21    5.60
   5  -5  12  114.14    4.87
   5   5 -11  373.88    9.93
  -5  -5 -11  378.71    8.81
   5  -5  11  387.52    9.89
   5  -5  11  396.11    9.52
  -5  -5 -10  305.01    7.35
   5   5 -10  291.86    8.24
  -5  -5 -10  288.98    7.50
   5  -5  10  293.91    7.81
   5  -5  10  289.90    8.22
  -5  -5  -9 1335.71   19.36
  -5  -5  -9 1297.70   20.14
   5   5  -9 1334.05   21.11
   5  -5   9 1333.73   20.45
   5  -5   9 1318.36   21.23
  -5   5   8  254.85    6.63
  -5  -5  -8  234.62    6.11
  -5  -5  -8  251.63    6.13
   5   5  -8  237.25    4.96
  -5  -5  -8  260.02    6.91
   5   5  -8  253.72    7.10
   5   5  -8  251.02    7.80
   5  -5   8  261.83    6.92
   5  -5   8  252.39    7.22
  -5   5   7   74.90    3.41
  -5  -5  -7   71.39    3.19
  -5  -5  -7   76.70    3.07
  -5  -5  -7   79.36    3.82
   5   5  -7   73.08    2.48
  -5  -5  -7   78.34    3.60
   5   5  -7   78.60    3.61
   5  -5   7   76.97    3.49
   5   5  -7   76.73    4.04
   5  -5   7   78.97    3.79
  -5   5   6  806.37   13.91
  -5  -5  -6  757.02   13.42
   5   5  -6  785.44   11.69
  -5  -5  -6  784.72   14.26
  -5  -5  -6  779.69   13.97
   5   5  -6  778.37   13.68
   5  -5   6  812.04   13.75
   5   5  -6  794.19   14.98
   5  -5   6  811.00   14.42
  -5   5   5 2756.81   36.71
   5  -5   5 2818.67   33.65
  -5  -5  -5 2678.81   36.32
  -5  -5  -5 2941.15   37.33
  -5   5   5 2807.17   34.14
   5   5  -5 2724.03   34.06
  -5  -5  -5 2668.95   36.86
   5   5  -5 2777.94   36.05
   5  -5   5 2786.50   36.20
   5   5  -5 2799.23   37.84
   5  -5   5 2799.89   37.13
   5  -5   4  201.17    4.05
  -5  -5  -4  200.65    5.84
  -5   5   4  217.13    6.12
  -5   5   4  199.90    4.73
   5   5  -4  206.36    4.74
  -5  -5  -4  195.10    5.98
   5   5  -4  208.18    5.48
   5   5  -4  200.26    6.24
   5  -5   4  196.81    5.52
   5  -5   4  198.76    5.93
  -5   5   3 2474.11   33.87
   5  -5   3 2452.30   29.65
   5  -5   3 2450.59   34.83
  -5  -5  -3 2577.26   34.10
   5   5  -3 2553.69   31.60
  -5  -5  -3 2560.80   34.00
   5   5  -3 2605.55   32.63
   5   5  -3 2552.98   34.36
   5  -5   3 2526.41   33.88
   5  -5   3 2546.44   33.06
  -5   5   2 3005.15   37.49
   5  -5   2 2692.99   31.99
   5  -5   2 2954.47   38.30
   5  -5   2 2598.62   32.07
   5   5  -2 2880.37   34.93
   5   5  -2 3040.75   35.78
   5   5  -2 2967.14   37.70
   5  -5   2 2966.51   37.19
   5  -5   2 2967.59   36.23
   5   5  -2 2975.54   36.59
   5   5  -1  660.26   10.99
   5  -5   1  685.22   12.43
  -5   5   1  658.75   12.55
   5   5  -1  675.10   11.19
   5  -5   1  674.26   12.95
   5  -5   1  662.79   11.71
   5   5  -1  679.84   11.91
   5  -5   0   30.81    2.23
   5   5   0   36.45    2.01
  -5   5   0   33.07    2.37
   5   5   0   30.33    2.22
   5  -5   0   30.91    2.34
   5   5   0   31.66    1.92
  -5  -5   0   33.34    2.42
   5  -5   0   33.02    2.13
   5   5   0   34.12    2.15
   5   5   1  680.26   11.23
   5  -5  -1  698.08   12.69
  -5   5  -1  666.71   12.84
  -5  -5   1  682.57   12.53
   5   5   1  691.01   12.63
   5  -5  -1  671.31   12.84
   5   5   1  670.50   11.54
  -5  -5   1  663.89   12.58
   5   5   1  672.41   11.87
   5  -5  -1  697.91   12.08
  -5   5  -2 2871.18   38.71
   5  -5  -2 3010.64   38.49
   5   5   2 2809.93   36.33
  -5  -5   2 2849.47   38.06
   5   5   2 2978.76   38.34
   5   5   2 2939.66   37.12
  -5  -5   2 2841.67   38.19
   5  -5  -2 2960.36   37.60
   5   5   2 2887.99   37.27
  -5   5  -3 2547.46   34.78
   5  -5  -3 2620.93   34.51
  -5  -5   3 2487.27   33.95
   5   5   3 2615.22   34.20
  -5  -5   3 2547.43   32.22
  -5   5  -3 2608.79   33.27
   5   5   3 2488.45   33.12
   5  -5  -3 2445.13   31.36
  -5  -5   3 2530.95   34.10
   5   5   3 2461.41   32.21
   5   5   3 2524.63   33.19
  -5   5  -4  202.29    6.28
   5  -5  -4  203.51    6.21
  -5  -5   4  200.42    5.97
   5   5   4  203.70    6.04
  -5   5  -4  196.52    5.70
   5   5   4  201.16    5.76
   5  -5  -4  198.70    4.74
  -5  -5   4  197.29    5.98
   5   5   4  190.50    5.09
   5   5   4  198.75    5.58
  -5   5  -5 2697.79   37.64
  -5  -5   5 2776.76   37.11
   5   5   5 2865.92   37.26
  -5   5  -5 2950.35   36.87
   5  -5  -5 2767.66   34.55
   5   5   5 2839.14   36.64
  -5  -5   5 2701.72   36.81
   5   5   5 2677.88   36.02
   5   5   5 2718.92   35.37
  -5   5  -6  863.15   14.88
   5  -5  -6  820.52   12.80
   5   5   6  819.79   14.55
  -5  -5   6  852.66   14.58
   5   5   6  801.52   14.00
   5   5   6  807.89   13.44
  -5   5  -7   84.02    3.96
   5  -5  -7   83.21    3.15
   5   5   7   80.56    3.85
  -5  -5   7   82.58    3.72
   5   5   7   77.08    3.52
   5   5   7   78.04    3.33
   5  -5  -8  245.15    5.94
  -5  -5   8  253.22    6.77
   5   5   8  257.34    6.88
   5   5   8  243.51    6.43
   5  -5  -9 1313.88   19.23
  -5  -5   9 1307.27   20.27
   5   5   9 1313.43   20.66
   5   5   9 1353.02   20.25
   5  -5 -10  271.28    6.63
  -5  -5  10  245.70    6.73
   5   5  10  246.77    6.82
   5   5  10  254.58    7.22
   5  -5 -11  405.11    8.96
  -5  -5  11  399.91    8.88
   5   5  11  402.14    9.68
   5   5  11  394.04    9.17
   5  -5 -12  104.52    4.21
  -5  -5  12  102.83    4.09
   5   5  12   98.79    4.55
   5  -5 -13  630.35   12.35
   5   5  13  622.59   13.24
   5  -5 -14  996.63   17.20
   5   5  14  981.87   18.20
   5  -5 -15  120.34    4.98
   5   5  15  121.77    5.46
   5  -5 -16  104.75    4.78
   5   5  16  109.55    5.31
   5  -5 -17  438.87   10.76
   5   5  17  431.84   11.54
   5  -5 -18  614.84   13.47
  -5   5 -18  603.11   13.90
   5   5  18  619.43   14.50
   5  -5 -19  241.26    7.94
   5   5  19  258.07    8.92
   5  -5 -20  114.78    5.45
  -5   5 -20  105.98    5.48
   5   5  20  113.97    5.88
   5  -5 -21  249.30    8.36
  -5   5 -21  246.90    8.66
   5   5  21  241.00    8.92
   5  -5 -22  758.86   16.18
  -5   5 -22  755.73   16.74
   5   5  22  780.74   17.49
   5  -5 -23  130.77    6.00
  -5   5 -23  131.12    6.26
   5   5  23  123.81    6.35
   5  -5 -24    2.01    1.22
  -5   5 -24    2.14    1.31
   5   5  24    1.28    1.17
   5  -5 -25   17.58    2.29
  -5   5 -25   15.48    2.26
   5   5  25   16.48    2.53
   5  -5 -26  541.82   13.02
  -5   5 -26  534.21   13.00
   5   5  26  545.10   13.58
   5   5  26  516.05   13.58
   5  -5 -27  273.01    8.47
  -5   5 -27  272.87    8.65
   5   5  27  285.07    9.39
   5   5  27  278.37    9.09
  -5   5 -28  150.76    6.06
   5   5  28  168.91    6.70
   5   5  28  169.05    6.85
   5   5  29   81.47    4.57
   5  -6  28   87.48    4.67
   5  -6  28   84.70    4.80
  -5  -6 -27   47.04    3.38
   5   6 -27   54.67    4.45
   5  -6  27   52.40    3.73
   5  -6  27   49.66    3.89
  -5  -6 -26   21.35    2.52
   5   6 -26   24.81    2.75
   5   6 -26   27.09    3.40
   5  -6  26   24.05    2.93
   5  -6  26   29.79    2.93
  -5  -6 -25   68.34    4.24
   5   6 -25   70.70    4.43
   5   6 -25   74.14    5.41
   5  -6  25   69.99    4.59
   5  -6  25   75.47    4.98
  -5  -6 -24   25.22    2.87
   5   6 -24   28.01    2.96
   5   6 -24   35.83    3.91
   5  -6  24   33.82    3.52
   5  -6  24   34.12    3.26
  -5  -6 -23   82.16    4.82
   5   6 -23   83.46    4.90
   5   6 -23   77.99    5.64
   5   6 -23   80.27    5.77
   5  -6  23   82.45    5.29
   5  -6  23   83.94    5.07
  -5  -6 -22   93.47    5.10
   5   6 -22   86.19    5.03
   5   6 -22   94.68    6.18
   5   6 -22   86.31    6.04
   5  -6  22   87.69    5.46
   5  -6  22   83.54    5.09
  -5  -6 -21   86.84    4.96
   5   6 -21   83.01    4.92
   5   6 -21   85.44    5.81
   5  -6  21   96.56    5.42
   5  -6  21   88.18    5.46
   5   6 -21   83.06    5.90
  -5  -6 -20   51.82    3.75
   5   6 -20   42.03    3.45
   5   6 -20   53.19    4.58
   5   6 -20   47.57    4.44
   5  -6  20   45.76    3.91
   5  -6  20   48.05    3.82
  -5  -6 -19  272.04    8.74
   5   6 -19  245.76    9.86
   5   6 -19  271.56   10.59
   5  -6  19  255.94    8.86
   5  -6  19  278.16    9.62
  -5  -6 -18  343.82    9.82
   5   6 -18  321.13   11.10
   5   6 -18  338.44   11.78
   5  -6  18  322.25   10.36
   5  -6  18  327.19    9.97
  -5  -6 -17  196.59    7.12
   5   6 -17  165.45    7.68
   5  -6  17  177.78    7.34
   5   6 -17  179.26    8.31
   5  -6  17  175.08    6.95
  -5  -6 -16  104.78    5.02
   5   6 -16   97.14    5.65
   5   6 -16   95.17    5.91
   5  -6  16   93.00    5.16
   5  -6  16   98.35    5.03
  -5  -6 -15   95.63    4.67
   5   6 -15   84.69    5.20
   5  -6  15   88.78    4.94
   5   6 -15   87.08    5.53
   5  -6  15   90.71    4.70
  -5  -6 -14  122.96    5.19
   5   6 -14  111.72    5.77
  -5  -6 -14  112.55    4.48
   5   6 -14  119.07    6.30
   5  -6  14  107.68    5.02
   5  -6  14  113.09    5.48
  -5  -6 -13  202.84    6.61
   5   6 -13  192.60    7.44
  -5  -6 -13  199.83    6.17
   5  -6  13  203.89    7.27
   5   6 -13  201.12    8.14
   5  -6  13  205.68    6.86
  -5  -6 -12   49.58    3.10
   5   6 -12   44.89    3.47
  -5  -6 -12   47.25    2.90
   5  -6  12   44.68    3.27
   5   6 -12   50.15    3.90
   5  -6  12   44.58    3.04
   5  -6  11    2.54    1.14
  -5  -6 -11    4.08    1.11
   5   6 -11    2.06    1.14
  -5  -6 -11    4.62    1.04
   5  -6  11    3.17    1.02
   5   6 -11    2.88    1.39
   5  -6  10    6.39    1.43
  -5  -6 -10    3.17    0.97
   5   6 -10    3.83    1.27
  -5  -6 -10    3.09    1.09
   5  -6  10    4.66    1.13
  -5  -6  -9  256.23    6.73
  -5  -6  -9  252.43    7.16
   5   6  -9  247.09    7.51
   5  -6   9  245.75    7.40
   5  -6   9  252.93    6.99
  -5  -6  -8   68.27    3.07
   5  -6   8   69.76    2.87
  -5  -6  -8   75.33    3.36
  -5  -6  -8   75.89    3.76
   5   6  -8   77.11    3.88
   5  -6   8   71.26    3.44
   5  -6   8   75.30    3.83
  -5   6   7  203.84    5.97
  -5  -6  -7  190.92    5.55
   5  -6   7  189.11    4.74
  -5  -6  -7  199.38    5.56
   5   6  -7  203.18    5.06
  -5  -6  -7  212.77    6.39
   5   6  -7  206.83    6.33
   5   6  -7  208.95    7.10
   5  -6   7  210.42    6.46
   5  -6   7  213.78    6.02
  -5   6   6   27.24    2.13
  -5  -6  -6   23.40    1.92
   5  -6   6   26.05    1.48
  -5  -6  -6   26.24    1.88
   5   6  -6   27.46    1.76
  -5  -6  -6   27.62    2.30
   5   6  -6   27.09    2.21
   5  -6   6   30.76    2.15
   5  -6   6   28.70    2.29
   5   6  -6   29.58    2.57
  -5   6   5  582.48   11.29
   5  -6   5  552.45    8.31
  -5  -6  -5  525.21   10.77
   5  -6   5  528.29    8.35
   5   6  -5  557.04    9.82
  -5  -6  -5  539.72    9.88
  -5  -6  -5  591.98   11.62
   5   6  -5  585.55   11.45
   5  -6   5  568.24   10.65
   5   6  -5  602.40   12.46
   5  -6   5  559.66   11.33
  -5   6   4    8.94    1.31
   5  -6   4    8.65    1.37
   5  -6   4    9.37    0.66
  -5  -6  -4    8.99    1.31
   5  -6   4   10.76    0.73
  -5   6   4    8.18    1.02
   5   6  -4   10.37    1.16
  -5  -6  -4    7.62    1.02
   5   6  -4    9.57    1.73
  -5  -6  -4   10.09    1.52
   5   6  -4   10.26    1.60
   5  -6   4    8.75    1.22
  -5   6   3  196.61    5.82
   5   6  -3  196.96    4.97
  -5  -6  -3  189.66    5.83
   5   6  -3  167.17    5.98
   5   6  -3  190.52    6.23
   5  -6   3  189.05    5.18
   5  -6   3  195.20    5.74
   5  -6   2  254.09    6.65
  -5   6   2  262.90    6.93
   5  -6   2  245.91    7.23
   5   6  -2  257.64    5.95
   5  -6   2  244.42    6.02
   5   6  -1  121.72    4.11
   5  -6   1  131.54    4.72
  -5   6   1  129.36    4.84
   5  -6   1  130.69    5.14
   5   6  -1  133.67    4.39
   5  -6   1  126.01    4.23
  -5   6   0   96.78    4.20
   5  -6   0  102.82    4.17
   5  -6   0   99.67    4.37
   5   6   0   95.83    3.68
  -5  -6   0  100.96    4.24
   5   6   0   89.60    3.55
   5  -6   0   95.36    3.66
   5  -6  -1  133.59    4.82
  -5   6  -1  129.79    4.92
   5  -6  -1  121.59    4.85
  -5  -6   1  130.02    4.44
   5   6   1  127.81    4.39
  -5  -6   1  128.15    4.89
   5  -6  -1  134.07    4.43
   5   6   1  126.99    4.25
  -5  -6   2  255.04    6.37
  -5   6  -2  247.57    7.13
   5  -6  -2  261.89    7.06
   5  -6  -2  250.20    7.10
   5   6   2  238.25    6.43
  -5  -6   2  255.97    7.07
   5   6   2  242.63    6.22
   5  -6  -3  204.50    6.22
  -5  -6   3  192.08    5.35
   5  -6  -3  192.07    5.77
   5   6   3  190.67    5.73
  -5  -6   3  204.37    6.24
   5   6   3  198.17    5.49
  -5  -6   4   10.11    1.26
   5  -6  -4   10.06    1.36
   5  -6  -4    9.45    1.13
   5   6   4    9.14    1.33
  -5  -6   4   10.01    1.50
   5   6   4   10.52    1.28
  -5   6  -5  574.00   11.56
   5  -6  -5  564.95   10.81
   5  -6  -5  565.39   10.15
   5   6   5  579.50   11.67
  -5  -6   5  563.17   11.54
   5   6   5  567.25   10.75
   5  -6  -6   23.96    1.90
   5  -6  -6   26.03    1.84
  -5  -6   6   30.02    2.36
   5   6   6   26.25    2.02
   5  -6  -7  201.24    5.48
   5  -6  -7  196.87    5.40
  -5  -6   7  201.29    6.25
   5   6   7  201.34    5.86
   5  -6  -8   79.85    3.36
  -5  -6   8   81.58    3.83
   5   6   8   81.27    3.69
   5  -6  -9  248.18    6.44
  -5  -6   9  249.02    7.01
   5   6   9  253.53    7.00
   5   6   9  254.68    6.57
   5   6  10    3.82    1.02
   5  -6 -10    4.12    1.01
  -5  -6  10    4.47    1.14
   5   6  10    3.74    1.07
   5   6  11    3.81    1.06
   5  -6 -11    1.88    0.90
  -5  -6  11    3.95    0.94
   5   6  11    4.29    1.04
   5  -6 -12   40.68    2.72
  -5  -6  12   38.67    2.58
   5   6  12   40.21    2.74
   5   6  12   42.42    2.94
   5  -6 -13  213.88    6.64
   5   6  13  199.74    6.45
   5   6  13  195.36    6.71
   5  -6 -14  106.70    4.75
   5   6  14  105.78    4.96
   5  -6 -15   92.99    4.58
   5   6  15   86.83    4.59
   5  -6 -16   93.69    4.72
   5   6  16   94.48    4.93
   5  -6 -17  192.37    6.97
   5   6  17  174.36    6.92
   5  -6 -18  348.63    9.85
   5   6  18  337.11   10.10
   5  -6 -19  271.18    8.72
   5   6  19  269.21    9.01
   5  -6 -20   45.95    3.50
  -5   6 -20   44.14    3.64
   5   6  20   46.83    3.76
   5  -6 -21   90.83    5.02
  -5   6 -21   84.67    5.03
   5   6  21   91.79    5.27
   5  -6 -22   90.34    5.05
  -5   6 -22   84.08    5.03
   5   6  22   88.89    5.20
   5  -6 -23   79.79    4.71
  -5   6 -23   71.95    4.63
   5   6  23   76.94    4.84
   5  -6 -24   32.89    3.08
  -5   6 -24   32.80    3.17
   5   6  24   31.05    3.07
   5   6  24   32.27    3.16
   5  -6 -25   66.19    4.19
  -5   6 -25   59.64    4.14
   5   6  25   64.80    4.31
   5   6  25   72.24    4.62
   5  -6 -26   17.01    2.32
  -5   6 -26   23.34    2.64
   5   6  26   21.74    2.60
   5   6  26   24.34    2.74
  -5   6 -27   50.57    3.66
   5   6  27   58.42    4.00
   5   6  28   90.31    4.83
   5   7 -28   47.57    3.93
   5   7 -27  144.75    6.94
   5  -7  27  133.21    5.92
  -5  -7 -26  708.22   15.37
   5   7 -26  752.94   17.82
   5  -7  26  718.57   15.74
   5  -7  25    7.98    1.93
  -5  -7 -25    7.22    1.70
   5   7 -25   11.27    1.97
   5   7 -25   12.11    2.47
   5  -7  25    9.96    1.96
   5  -7  24    6.76    1.84
  -5  -7 -24    7.55    1.77
   5   7 -24   12.04    1.93
   5   7 -24    8.42    2.26
   5  -7  24    9.20    1.92
  -5  -7 -23  108.89    5.46
   5   7 -23  108.20    5.61
   5   7 -23  107.30    6.58
   5   7 -23  111.76    6.74
   5  -7  23  109.30    5.94
   5  -7  23  107.70    5.52
  -5  -7 -22  429.67   11.54
   5   7 -22  430.80   11.96
   5   7 -22  450.94   14.02
   5  -7  22  451.99   12.08
   5   7 -22  463.15   14.33
   5  -7  22  476.49   13.06
  -5  -7 -21  163.94    6.73
   5   7 -21  166.60    7.05
   5   7 -21  173.00    8.33
   5   7 -21  160.22    8.23
   5  -7  21  175.23    7.62
   5  -7  21  173.54    7.12
  -5  -7 -20   65.89    4.24
   5   7 -20   57.89    4.18
   5   7 -20   56.77    4.80
   5   7 -20   67.02    5.24
   5  -7  20   68.67    4.73
   5  -7  20   65.98    4.31
  -5  -7 -19  440.28   11.54
   5   7 -19  440.97   13.63
   5   7 -19  445.13   14.04
   5  -7  19  456.86   11.93
   5  -7  19  449.56   12.52
  -5  -7 -18  390.42   10.58
   5   7 -18  366.67   12.12
   5  -7  18  375.52   11.20
   5   7 -18  366.54   12.59
   5  -7  18  379.20   10.62
  -5  -7 -17   73.37    4.30
   5   7 -17   64.14    4.88
   5   7 -17   71.27    5.29
   5  -7  17   75.39    4.75
   5  -7  17   70.76    4.29
  -5  -7 -16   24.82    2.49
   5   7 -16   23.59    3.08
   5  -7  16   24.70    2.57
   5   7 -16   26.02    3.28
   5  -7  16   22.80    2.66
  -5  -7 -15  144.01    5.90
   5   7 -15  140.94    6.83
   5   7 -15  137.96    7.21
   5  -7  15  147.76    6.42
   5  -7  15  143.62    5.89
  -5  -7 -14 3269.03   43.85
   5   7 -14 3153.66   46.27
   5  -7  14 3190.45   43.60
   5  -7  14 3249.13   45.08
   5   7 -14 3225.47   47.96
  -5  -7 -13  223.97    7.25
  -5  -7 -13  226.04    6.94
   5   7 -13  226.31    8.35
   5  -7  13  236.35    7.35
   5  -7  13  239.00    7.98
   5   7 -13  242.44    9.19
  -5  -7 -12  184.02    6.32
  -5  -7 -12  172.49    6.02
   5   7 -12  169.44    6.93
   5  -7  12  176.40    6.14
   5   7 -12  165.55    7.40
   5  -7  12  186.39    6.78
  -5  -7 -11  938.53   16.70
  -5  -7 -11  927.51   16.86
   5   7 -11  910.68   18.05
   5  -7  11  944.92   17.61
   5  -7  11  950.45   16.68
   5   7 -11  950.55   19.44
  -5  -7 -10 1212.19   19.60
  -5  -7 -10 1196.37   19.98
   5   7 -10 1166.67   20.97
   5  -7  10 1214.68   19.48
   5  -7  10 1210.13   20.48
  -5  -7  -9 1501.22   22.46
  -5  -7  -9 1457.12   23.11
   5   7  -9 1446.99   23.93
   5  -7   9 1463.76   23.34
   5  -7   9 1437.25   22.17
  -5  -7  -8  238.77    6.66
  -5  -7  -8  239.51    7.26
   5   7  -8  231.19    7.31
   5  -7   8  234.74    6.52
   5  -7   8  239.25    7.19
  -5  -7  -7  310.70    7.59
  -5  -7  -7  303.36    8.31
   5   7  -7  327.16    8.79
   5  -7   7  309.40    7.50
   5  -7   7  316.51    8.29
  -5  -7  -6 1573.02   23.01
   5   7  -6 1561.61   22.52
  -5  -7  -6 1622.85   24.67
   5   7  -6 1663.16   25.45
   5   7  -6 1637.65   26.16
   5  -7   6 1603.21   22.97
   5  -7   6 1656.17   24.29
  -5   7   5  821.29   14.69
  -5  -7  -5  787.34   14.35
   5   7  -5  809.75   13.73
  -5  -7  -5  821.64   13.94
  -5  -7  -5  838.79   15.41
   5   7  -5  830.55   16.53
   5   7  -5  854.54   16.48
   5  -7   5  846.27   13.95
   5  -7   5  850.09   14.93
  -5   7   4  325.08    8.08
  -5  -7  -4  291.83    7.72
   5   7  -4  307.98    7.24
  -5  -7  -4  302.56    7.09
  -5  -7  -4  317.03    8.35
   5   7  -4  331.02    9.19
   5  -7   4  330.86    7.29
   5  -7   4  335.20    8.09
  -5   7   3  645.90   11.67
   5  -7   3  651.92   11.43
   5   7  -3  622.64   10.58
  -5  -7  -3  656.12   12.09
   5  -7   3  652.28   10.38
   5   7  -2 1013.15   16.61
  -5   7   2 1036.86   17.69
   5  -7   2 1067.41   17.43
   5  -7   2 1088.31   16.33
   5   7  -1 1022.99   16.73
   5  -7   1 1063.85   17.36
  -5  -7  -1 1038.57   17.48
   5  -7   1 1047.23   16.16
   5  -7   0  169.61    5.54
  -5  -7   0  168.93    5.50
   5   7   0  154.94    5.17
  -5  -7   0  163.06    5.76
   5   7   0  164.37    4.88
   5  -7   0  164.12    4.88
  -5  -7   1 1051.41   17.28
   5  -7  -1 1105.97   17.77
   5   7   1 1026.95   17.20
   5  -7  -1 1045.93   18.14
  -5  -7   1 1067.95   18.17
   5   7   1 1044.34   16.23
  -5  -7   2 1052.69   16.94
   5  -7  -2 1009.98   17.87
   5   7   2 1044.19   17.30
   5  -7  -2 1025.70   17.79
  -5  -7   2 1029.56   17.88
   5   7   2 1009.64   15.96
   5  -7  -3  664.32   12.91
  -5  -7   3  670.31   12.22
   5   7   3  627.95   12.66
   5  -7  -3  640.05   12.83
  -5  -7   3  684.36   13.38
   5   7   3  666.69   11.65
  -5  -7   4  324.55    7.65
   5  -7  -4  333.74    8.37
   5  -7  -4  329.20    7.49
  -5  -7   4  318.75    8.50
   5   7   4  331.00    7.46
  -5  -7   5  806.54   13.73
   5  -7  -5  778.47   14.42
   5  -7  -5  819.60   13.76
  -5  -7   5  812.80   15.17
   5   7   5  826.26   13.74
   5  -7  -6 1606.00   23.58
   5  -7  -6 1573.56   22.79
  -5  -7   6 1592.94   24.42
   5   7   6 1546.26   22.69
   5  -7  -7  324.73    7.92
   5  -7  -7  337.55    7.84
  -5  -7   7  333.84    8.70
   5   7   7  334.30    7.82
   5  -7  -8  216.95    6.14
   5  -7  -8  228.74    6.34
  -5  -7   8  237.07    7.09
   5   7   8  227.60    6.37
   5  -7  -9 1388.32   21.20
  -5  -7   9 1389.39   22.14
   5   7   9 1394.20   21.35
   5  -7 -10 1148.07   18.66
  -5  -7  10 1142.26   19.24
   5   7  10 1155.48   18.82
   5  -7 -11  906.77   16.11
  -5  -7  11  932.77   16.53
   5   7  11  915.28   16.29
   5  -7 -12  164.23    5.59
  -5  -7  12  162.27    5.56
   5   7  12  158.54    5.55
   5  -7 -13  255.30    7.56
  -5   7 -13  253.03    9.44
  -5  -7  13  257.43    7.39
   5   7  13  250.98    7.62
   5  -7 -14 3121.94   42.80
  -5   7 -14 3180.98   44.46
   5   7  14 3137.52   43.07
   5  -7 -15  148.94    5.90
   5   7  15  139.34    5.77
   5  -7 -16   25.16    2.52
   5   7  16   21.51    2.39
   5  -7 -17   67.66    4.09
   5   7  17   67.03    4.16
   5  -7 -18  355.77   10.01
   5   7  18  346.29   10.04
   5  -7 -19  428.82   11.32
   5   7  19  432.97   11.53
   5  -7 -20   63.64    4.13
  -5   7 -20   64.52    4.36
   5   7  20   64.37    4.26
   5  -7 -21  172.18    6.88
  -5   7 -21  163.12    7.07
   5   7  21  185.62    7.31
   5  -7 -22  465.97   12.01
  -5   7 -22  467.19   12.50
   5   7  22  467.97   12.31
   5  -7 -23  114.09    5.54
  -5   7 -23  107.87    5.65
   5   7  23  106.70    5.56
   5  -7 -24    8.58    1.82
  -5   7 -24    6.58    1.49
   5   7  24    9.84    1.97
   5  -7 -25    3.62    1.42
  -5   7 -25    5.61    1.60
   5   7  25    4.30    1.51
   5  -7 -26  685.83   14.35
  -5   7 -26  672.25   14.57
   5   8 -27   29.23    3.20
  -5  -8 -26   48.36    3.62
   5   8 -26   52.83    4.33
  -5  -8 -25   48.10    3.75
  -5  -8 -25   51.04    3.54
   5   8 -25   53.79    3.77
   5   8 -25   56.54    4.58
   5  -8  25   47.28    3.64
  -5  -8 -24   50.75    3.99
  -5  -8 -24   42.71    3.35
   5   8 -24   44.49    3.57
   5   8 -24   57.89    4.76
   5  -8  24   49.23    3.81
   5   8 -24   53.11    4.45
  -5  -8 -23  118.67    5.58
   5   8 -23  133.58    6.14
   5   8 -23  129.19    7.16
   5  -8  23  123.31    6.04
   5   8 -23  120.85    6.88
  -5  -8 -22   58.86    4.02
   5   8 -22   59.12    4.19
   5   8 -22   63.45    5.09
   5  -8  22   56.85    4.20
   5  -8  22   59.64    3.94
   5   8 -22   64.36    5.11
   5   8 -21   26.18    2.77
  -5  -8 -21   22.63    2.66
   5   8 -21   29.54    3.59
   5  -8  21   25.94    2.78
   5   8 -21   26.96    3.42
   5  -8  21   25.39    2.94
  -5  -8 -20   50.49    3.71
   5   8 -20   56.79    4.75
   5  -8  20   49.66    3.63
   5   8 -20   52.76    4.71
   5  -8  20   54.96    4.16
  -5  -8 -19   34.87    3.04
   5   8 -19   40.16    4.12
   5  -8  19   35.04    3.12
   5   8 -19   28.19    3.61
   5  -8  19   29.56    3.10
  -5  -8 -18   62.04    4.12
   5   8 -18   59.11    4.89
   5  -8  18   57.98    3.91
   5   8 -18   71.02    5.46
   5  -8  18   74.39    4.68
  -5  -8 -17   37.08    3.19
   5   8 -17   35.92    3.84
   5   8 -17   43.05    4.30
   5  -8  17   44.99    3.65
   5  -8  17   40.10    3.19
   5  -8  16    8.38    1.85
  -5  -8 -16   10.54    1.95
   5   8 -16   11.69    2.18
   5  -8  16   10.48    1.70
   5   8 -16   10.85    2.40
  -5  -8 -15   96.44    4.93
   5   8 -15   91.64    5.67
   5  -8  15   99.34    5.18
   5  -8  15   86.13    4.43
   5   8 -15   85.59    5.80
  -5  -8 -14   36.92    3.07
   5   8 -14   32.77    3.36
  -5  -8 -14   35.31    2.79
   5  -8  14   29.37    2.59
   5   8 -14   33.20    3.67
   5  -8  14   37.96    3.21
  -5  -8 -13  341.22    9.44
  -5  -8 -13  331.41    8.94
   5   8 -13  316.86   10.31
   5  -8  13  338.22    8.91
   5   8 -13  342.14   11.37
   5  -8  13  342.88    9.71
  -5  -8 -12  518.36   11.82
  -5  -8 -12  514.95   11.65
   5   8 -12  464.75   12.61
   5  -8  12  503.76   11.99
   5   8 -12  507.47   14.06
   5  -8  12  499.63   11.06
  -5  -8 -11   34.45    2.82
  -5  -8 -11   34.46    2.82
   5   8 -11   34.95    3.22
   5   8 -11   35.39    3.47
   5  -8  11   36.25    2.95
   5  -8  11   36.27    2.61
  -5  -8 -10   24.97    2.32
  -5  -8 -10   24.57    2.51
   5   8 -10   22.32    2.62
   5  -8  10   24.12    2.11
   5  -8  10   23.53    2.37
   5   8 -10   25.78    3.01
  -5  -8  -9   96.43    4.37
  -5  -8  -9   98.17    4.69
   5   8  -9   95.48    4.96
   5  -8   9   93.16    3.96
   5  -8   9   94.18    4.47
  -5  -8  -8  255.26    7.35
  -5  -8  -8  272.75    8.13
   5   8  -8  269.09    8.57
   5  -8   8  268.10    7.69
   5  -8   8  268.95    6.91
  -5  -8  -7   57.71    3.28
  -5  -8  -7   62.09    3.77
   5   8  -7   67.76    4.43
   5  -8   7   55.49    3.29
   5  -8   7   62.77    3.08
  -5  -8  -6   17.17    1.74
  -5  -8  -6   16.16    2.04
   5  -8   6   12.83    1.68
   5  -8   6   14.66    1.51
  -5  -8  -5  643.63   12.23
  -5  -8  -5  670.82   13.61
   5   8  -5  677.74   14.81
   5  -8   5  678.92   12.71
   5  -8   4  326.78    7.96
   5   8  -4  339.40    9.71
  -5  -8  -4  318.46    8.73
   5   8  -4  313.13    7.73
   5  -8   3   55.91    3.15
  -5  -8  -3   57.27    3.46
  -5  -8  -3   55.93    3.52
   5   8  -3   53.52    3.08
   5  -8   2    9.58    1.46
  -5  -8  -2   10.55    1.62
  -5  -8  -1  308.26    8.35
   5  -8   1  318.49    8.00
   5  -8   0  126.11    4.78
  -5  -8   0  124.00    4.97
  -5  -8   0  122.51    5.23
   5  -8   0  123.43    5.43
  -5  -8   1  338.03    8.50
   5  -8  -1  319.88    8.18
  -5  -8   1  322.08    8.84
   5  -8  -1  308.46    8.86
  -5  -8   2    7.72    1.53
  -5  -8   2    8.34    1.45
   5  -8  -2    5.60    1.42
  -5  -8   3   51.81    3.11
  -5  -8   3   55.50    3.51
   5  -8  -3   55.97    3.47
  -5  -8   4  328.03    8.19
  -5  -8   4  326.17    8.96
   5  -8  -4  328.34    8.80
  -5  -8   5  661.54   12.73
   5  -8  -5  665.33   13.45
   5  -8  -5  661.76   12.60
  -5  -8   6   15.37    2.06
   5  -8  -6   11.82    1.66
   5  -8  -6   15.66    1.63
  -5  -8   7   60.55    3.65
   5  -8  -7   55.69    3.30
   5  -8  -7   62.40    3.32
  -5  -8   8  255.24    7.74
   5  -8  -8  247.54    7.06
   5  -8  -8  243.47    6.93
  -5  -8   9   95.18    4.57
   5  -8  -9   93.99    4.21
  -5  -8  10   22.14    2.27
   5  -8 -10   23.01    2.15
  -5  -8  11   30.47    2.61
   5  -8 -11   35.78    2.75
  -5  -8  12  512.68   11.56
   5  -8 -12  498.95   11.43
  -5  -8  13  331.31    8.71
   5  -8 -13  341.27    9.09
  -5   8 -14   35.30    3.66
   5  -8 -14   42.74    3.19
  -5   8 -15   93.21    5.18
   5  -8 -15   94.20    4.79
   5  -8 -16   10.49    1.85
   5  -8 -17   46.94    3.52
   5  -8 -18   64.05    4.14
   5  -8 -19   36.77    3.10
   5  -8 -20   55.94    3.87
  -5   8 -21   25.31    2.73
   5  -8 -21   20.16    2.54
   5  -8 -22   50.10    3.71
  -5   8 -22   48.71    3.83
   5  -8 -23  119.12    5.59
  -5   8 -23  120.12    5.87
   5  -8 -24   47.46    3.50
  -5   8 -24   43.07    3.52
   5  -8 -25   45.76    3.42
  -5   8 -25   51.85    3.67
  -5  -9 -26  243.55    7.83
   5   9 -26  283.30    9.59
  -5  -9 -25   97.29    5.09
   5   9 -25  107.11    6.05
  -5  -9 -24   12.23    2.24
  -5  -9 -24   14.04    2.05
   5   9 -24   13.88    2.56
   5   9 -24   15.24    2.58
  -5  -9 -23  137.95    6.47
   5   9 -23  135.84    6.18
  -5  -9 -23  145.49    6.04
   5   9 -23  145.25    7.39
   5   9 -23  140.22    7.21
  -5  -9 -22  237.17    8.79
   5   9 -22  234.03    8.34
  -5  -9 -22  222.22    7.77
   5   9 -22  242.42    9.82
   5   9 -22  236.21    9.69
   5  -9  22  223.94    7.89
  -5  -9 -21   98.61    5.69
   5   9 -21  102.76    5.49
  -5  -9 -21   88.58    4.95
   5   9 -21   97.17    6.22
   5   9 -21   96.59    6.27
   5  -9  21  105.35    5.38
  -5  -9 -20  141.72    6.93
  -5  -9 -20  146.00    6.31
   5   9 -20  148.49    7.70
   5  -9  20  146.47    6.41
   5   9 -20  147.04    7.80
  -5  -9 -19  297.59    9.34
   5   9 -19  311.41   11.35
   5  -9  19  292.92    9.31
   5   9 -19  309.43   11.59
  -5  -9 -18  369.78   10.54
   5   9 -18  370.67   12.47
   5  -9  18  354.75   10.38
   5   9 -18  372.34   12.82
  -5  -9 -17  372.80   10.71
   5   9 -17  402.99   12.83
   5  -9  17  407.91   11.03
   5   9 -17  386.19   13.16
  -5  -9 -16   77.97    4.61
   5   9 -16   70.71    5.18
   5  -9  16   73.63    4.42
   5   9 -16   76.21    5.62
  -5  -9 -15  330.92    9.77
   5   9 -15  336.58   11.26
   5   9 -15  318.26   11.62
   5  -9  15  312.01    9.38
  -5  -9 -14  509.42   12.43
  -5  -9 -14  488.85   11.53
   5   9 -14  513.17   14.05
   5  -9  14  520.95   12.39
   5   9 -14  502.64   14.84
  -5  -9 -13   17.58    2.25
   5   9 -13   12.50    2.42
  -5  -9 -13   11.50    1.91
   5  -9  13   13.60    2.03
   5   9 -13   12.51    2.45
  -5  -9 -12   65.24    4.02
  -5  -9 -12   58.08    3.78
   5   9 -12   66.04    4.59
   5   9 -12   65.87    5.00
   5  -9  12   59.24    3.80
  -5  -9 -11   75.48    4.24
  -5  -9 -11   82.28    4.50
   5   9 -11   88.41    5.15
   5  -9  11   81.46    4.31
   5   9 -11   82.68    5.47
  -5  -9 -10  204.88    7.06
  -5  -9 -10  214.99    7.44
   5   9 -10  225.39    8.26
   5  -9  10  214.39    7.00
   5   9 -10  213.81    8.74
  -5  -9  -9  933.59   17.32
  -5  -9  -9  938.72   17.98
   5   9  -9  947.55   19.10
   5   9  -9  930.23   19.99
   5  -9   9  923.68   16.89
  -5  -9  -8  458.41   10.93
  -5  -9  -8  479.14   11.73
   5   9  -8  485.73   12.88
   5  -9   8  449.31   10.49
  -5  -9  -7  496.37   11.36
  -5  -9  -7  501.66   12.17
   5   9  -7  533.67   14.08
   5  -9   7  506.25   11.02
   5  -9   6  534.77   11.23
  -5  -9  -6  525.66   12.66
  -5  -9  -6  542.37   12.55
  -5  -9  -6  533.20   11.58
   5  -9   5  804.85   13.61
  -5  -9  -5  809.40   15.39
  -5  -9  -5  813.78   15.32
   5  -9   4  116.61    4.61
  -5  -9  -4  107.28    5.16
   5   9  -4  120.82    6.00
  -5  -9  -4  110.62    5.25
  -5  -9  -3  208.58    7.19
   5  -9   3  211.35    6.33
  -5  -9  -3  205.89    7.26
  -5  -9  -2  571.90   12.71
   5  -9   2  563.59   11.44
  -5  -9  -1  614.59   13.38
   5  -9   1  654.11   12.50
  -5  -9   0  110.43    4.97
   5  -9   0  102.64    4.31
  -5  -9   0  103.00    5.04
   5  -9   0  106.35    5.35
  -5  -9   1  632.52   13.26
  -5  -9   1  627.90   13.72
   5  -9  -1  601.47   13.87
  -5  -9   2  559.12   12.25
  -5  -9   2  561.83   12.95
   5  -9  -2  571.81   13.15
  -5  -9   3  208.79    6.83
  -5  -9   3  210.11    7.33
   5  -9  -3  202.29    7.18
  -5  -9   4  112.17    4.85
  -5  -9   4  114.61    5.32
   5  -9  -4   99.27    4.91
  -5  -9   5  771.20   14.72
  -5  -9   5  785.37   15.84
   5  -9  -5  758.85   15.35
  -5  -9   6  542.57   11.67
  -5  -9   6  563.67   12.79
   5  -9  -6  540.80   11.54
  -5  -9   7  482.75   11.75
   5  -9  -7  466.57   11.14
   5  -9  -7  492.18   10.95
  -5  -9   8  449.56   11.23
   5  -9  -8  424.09   10.34
   5  -9  -8  436.34   10.27
  -5  -9   9  942.19   17.80
   5  -9  -9  911.40   16.68
   5  -9  -9  933.20   16.95
  -5  -9  10  214.06    7.33
   5  -9 -10  205.50    6.82
  -5  -9  11   80.70    4.37
   5  -9 -11   78.25    4.18
  -5  -9  12   60.57    3.83
   5  -9 -12   65.09    3.92
  -5  -9  13   17.79    2.20
   5  -9 -13   17.39    2.18
  -5   9 -14  495.35   14.96
   5  -9 -14  492.30   12.01
  -5   9 -15  333.50   10.69
   5  -9 -15  316.32    9.43
  -5   9 -16   72.13    4.73
   5  -9 -16   78.14    4.50
   5  -9 -17  367.37   10.42
   5  -9 -18  344.58   10.06
   5  -9 -19  309.63    9.48
   5  -9 -20  132.15    5.99
   5  -9 -21  101.13    5.18
  -5   9 -22  218.83    8.11
   5  -9 -22  228.85    7.84
  -5   9 -23  146.01    6.40
   5  -9 -23  143.73    6.05
  -5   9 -24   16.64    2.26
   5  -9 -24   18.98    2.32
  -5   9 -25   91.78    4.79
  -5 -10 -25   88.55    4.66
   5  10 -25   96.76    5.50
  -5 -10 -24   17.43    2.35
   5  10 -24   20.42    2.81
   5  10 -24   18.71    2.68
  -5 -10 -23   13.14    2.20
  -5 -10 -23   13.10    1.81
   5  10 -23   13.61    2.50
   5  10 -23   11.06    2.31
  -5 -10 -22   38.34    3.53
   5  10 -22   38.47    3.39
  -5 -10 -22   36.74    3.14
   5  10 -22   37.08    3.82
   5  10 -22   36.89    3.86
  -5 -10 -21    2.33    1.35
  -5 -10 -21    0.29    1.08
   5  10 -21    0.44    1.48
   5  10 -21    1.31    1.35
  -5 -10 -20    9.45    1.97
  -5 -10 -20    8.40    1.81
   5  10 -20    8.14    1.89
   5  10 -20    6.58    2.04
  -5 -10 -19   24.10    3.03
  -5 -10 -19   18.14    2.43
   5  10 -19   22.09    3.24
   5  10 -19   21.47    3.35
  -5 -10 -18    3.85    1.75
  -5 -10 -18    5.62    1.47
   5  10 -18    1.36    2.02
   5  10 -18    2.85    1.77
  -5 -10 -17  124.13    6.56
  -5 -10 -17  126.41    5.95
   5  10 -17  117.89    6.84
   5  10 -17  115.76    7.08
   5 -10  17  109.81    5.23
  -5 -10 -16   21.73    2.47
   5  10 -16   13.36    2.71
   5 -10  16   18.81    2.27
   5  10 -16   20.04    3.13
  -5 -10 -15   19.52    2.46
   5  10 -15   17.54    2.91
   5 -10  15   14.54    1.99
   5  10 -15   16.77    2.82
  -5 -10 -14  226.52    7.97
  -5 -10 -14  212.83    7.30
   5  10 -14  211.27    8.82
   5 -10  14  200.46    6.99
   5  10 -14  223.53    9.65
  -5 -10 -13   30.79    3.41
  -5 -10 -13   30.24    2.88
  -5 -10 -13   29.88    2.81
   5  10 -13   33.25    3.55
   5  10 -13   27.87    3.54
   5 -10  13   29.20    2.66
  -5 -10 -12  141.28    6.94
  -5 -10 -12  151.82    6.37
  -5 -10 -12  147.01    6.22
   5  10 -12  148.86    7.13
   5  10 -12  168.62    8.10
   5 -10  12  145.34    5.70
  -5 -10 -11  300.37   10.22
  -5 -10 -11  326.89    9.60
  -5 -10 -11  304.81    9.35
   5  10 -11  320.63   10.58
   5 -10  11  298.08    8.39
   5  10 -11  328.55   11.44
  -5 -10 -10   21.29    2.83
  -5 -10 -10   20.00    2.47
  -5 -10 -10   23.13    2.61
   5  10 -10   23.97    3.06
   5  10 -10   18.07    2.84
   5 -10  10   20.22    2.14
  -5 -10  -9   18.81    2.65
  -5 -10  -9   17.87    2.26
  -5 -10  -9   21.85    2.58
   5  10  -9   20.62    2.89
   5 -10   9   20.53    2.12
  -5 -10  -8   67.79    4.59
  -5 -10  -8   83.71    4.46
   5  10  -8   92.48    6.00
  -5 -10  -8   80.23    4.68
   5  10  -8   72.93    5.16
  -5 -10  -7  541.85   13.54
   5  10  -7  571.36   15.79
  -5 -10  -7  547.92   13.30
  -5 -10  -6  136.11    6.27
  -5 -10  -6  137.85    6.17
  -5 -10  -5   15.25    2.21
  -5 -10  -5   12.81    2.25
  -5 -10  -4   22.31    2.56
  -5 -10  -4   27.61    2.89
  -5 -10  -3  173.63    6.82
  -5 -10  -3  168.30    6.85
  -5 -10  -2   27.26    2.72
  -5 -10  -1    9.50    1.82
  -5 -10   0   10.67    2.03
  -5 -10   0    8.40    1.70
   5 -10   0   11.31    2.11
  -5 -10   1   14.52    2.12
  -5 -10   1   10.11    1.98
   5 -10  -1   11.54    2.13
  -5 -10   2   25.85    2.62
  -5 -10   2   27.85    2.90
   5 -10  -2   26.21    2.83
  -5 -10   3  174.26    6.57
  -5 -10   3  169.08    6.88
   5 -10  -3  168.74    6.87
  -5 -10   4   25.81    2.60
  -5 -10   4   29.46    2.91
   5 -10  -4   23.72    2.68
  -5 -10   5   12.09    1.90
  -5 -10   5   14.25    2.25
   5 -10  -5   12.07    2.10
  -5 -10   6  142.89    5.80
  -5 -10   6  145.25    6.32
   5 -10  -6  148.35    6.21
  -5 -10   7  545.98   13.09
   5 -10  -7  528.57   12.57
  -5 -10   8   71.79    4.41
   5 -10  -8   79.24    4.37
   5 -10  -8   74.72    4.11
  -5 -10   9   21.21    2.48
   5 -10  -9   18.47    2.23
   5 -10  -9   15.99    2.10
  -5 -10  10   24.40    2.58
   5 -10 -10   21.87    2.39
  -5 -10  11  324.92    9.54
   5 -10 -11  312.41    9.14
  -5 -10  12  146.80    6.16
   5 -10 -12  148.38    6.14
  -5 -10  13   27.36    2.74
   5 -10 -13   27.87    2.68
  -5  10 -14  203.23   10.08
   5 -10 -14  198.81    7.35
  -5  10 -15   18.97    3.13
   5 -10 -15   21.30    2.53
  -5  10 -16   17.59    2.64
   5 -10 -16   19.87    2.33
   5 -10 -17  107.59    5.40
   5 -10 -18    4.44    1.24
   5 -10 -19   19.39    2.50
   5 -10 -20    9.65    1.95
   5 -10 -21    0.72    1.20
  -5  10 -22   29.51    3.08
   5 -10 -22   35.57    3.12
  -5  10 -23   12.88    1.87
   5 -10 -23   12.64    1.84
  -5 -11 -24   26.34    2.66
   5  11 -24   37.18    3.47
  -5 -11 -23  128.53    5.95
   5  11 -23  146.49    6.88
   5  11 -23  129.69    6.43
  -5 -11 -22    8.29    1.66
  -5 -11 -22   12.51    2.20
   5  11 -22   10.94    2.22
   5  11 -22   13.21    2.42
  -5 -11 -21   63.54    4.47
  -5 -11 -21   62.86    3.97
   5  11 -21   79.51    5.36
   5  11 -21   77.44    5.30
  -5 -11 -20   15.69    2.50
  -5 -11 -20   16.73    2.29
   5  11 -20   18.90    2.85
   5  11 -20   15.28    2.66
  -5 -11 -19   25.55    3.15
  -5 -11 -19   25.31    2.71
   5  11 -19   19.75    3.13
   5  11 -19   24.49    3.37
  -5 -11 -18   68.44    4.87
  -5 -11 -18   75.21    4.57
   5  11 -18   79.11    5.59
   5  11 -18   67.75    5.31
  -5 -11 -17 1782.89   31.18
  -5 -11 -17 1779.49   29.26
   5  11 -17 1858.36   32.62
   5  11 -17 1806.17   33.24
  -5 -11 -16  383.65   10.89
   5  11 -16  396.87   12.67
   5  11 -16  368.42   12.88
  -5 -11 -15  295.53    9.45
   5  11 -15  280.75   10.57
   5  11 -15  294.04   11.35
  -5 -11 -14  562.40   13.70
  -5 -11 -14  551.13   12.89
   5  11 -14  549.08   15.04
   5  11 -14  546.76   15.95
  -5 -11 -13   68.41    4.95
  -5 -11 -13   70.96    4.45
  -5 -11 -13   68.66    4.30
   5  11 -13   68.88    5.05
   5  11 -13   65.59    5.26
  -5 -11 -12   29.58    3.38
  -5 -11 -12   32.39    3.13
   5  11 -12   27.90    3.30
  -5 -11 -12   29.80    3.01
   5  11 -12   28.66    3.55
  -5 -11 -11   71.82    5.03
  -5 -11 -11   72.23    4.49
   5  11 -11   81.60    5.33
  -5 -11 -11   77.47    4.73
   5  11 -11   78.70    5.67
  -5 -11 -10  135.79    6.84
  -5 -11 -10  132.01    6.06
   5  11 -10  141.72    6.97
  -5 -11 -10  133.20    6.24
   5  11 -10  139.07    7.43
  -5 -11  -9 1145.95   22.83
  -5 -11  -9 1151.07   21.94
   5  11  -9 1193.20   24.45
  -5 -11  -8  110.41    6.04
  -5 -11  -8  114.29    5.82
   5  11  -8  115.16    6.59
  -5 -11  -7  593.20   14.85
  -5 -11  -7  612.52   14.66
   5  11  -7  610.85   16.08
  -5 -11  -6  859.23   17.87
  -5 -11  -6  827.13   17.36
  -5 -11  -5  126.28    6.20
  -5 -11  -5  129.33    6.22
  -5 -11  -4   29.89    3.03
  -5 -11  -4   22.45    2.73
  -5 -11  -3  123.70    5.98
  -5 -11  -3  118.85    5.91
  -5 -11  -2  378.00   10.89
  -5 -11  -1 1836.89   29.86
  -5 -11   0  416.76   11.38
  -5 -11   0  414.95   11.68
   5 -11   0  398.41   11.91
  -5 -11   1 1836.77   29.65
  -5 -11   1 1849.43   30.25
   5 -11  -1 1783.77   30.59
  -5 -11   2  382.90   10.75
  -5 -11   2  374.93   11.06
   5 -11  -2  382.34   11.36
  -5 -11   3  123.11    5.79
  -5 -11   3  115.28    5.95
   5 -11  -3  105.58    5.72
  -5 -11   4   22.73    2.61
  -5 -11   4   25.52    2.95
   5 -11  -4   22.54    2.77
  -5 -11   5  119.95    5.68
  -5 -11   5  123.83    6.12
   5 -11  -5  128.94    6.14
  -5 -11   6  855.76   17.06
   5 -11  -6  828.19   17.50
  -5 -11   6  839.50   17.86
   5 -11  -7  592.58   14.01
  -5 -11   7  607.83   14.56
   5 -11  -8  109.70    5.46
  -5 -11   8  124.27    6.01
   5 -11  -9 1102.36   20.34
   5 -11  -9 1090.37   20.12
  -5 -11   9 1123.39   21.11
   5 -11 -10  110.47    5.30
   5 -11 -10  120.15    5.57
  -5 -11  10  124.14    5.92
   5 -11 -11   78.68    4.59
  -5 -11  11   76.86    4.64
   5 -11 -12   23.55    2.62
  -5 -11  12   28.35    2.87
   5 -11 -13   75.85    4.47
  -5 -11  13   69.59    4.29
   5 -11 -14  519.38   12.85
  -5  11 -14  496.61   16.71
   5 -11 -15  308.03    9.54
  -5  11 -15  313.77   11.22
   5 -11 -16  346.93   10.16
  -5  11 -16  334.07   10.88
   5 -11 -17 1755.05   28.64
   5 -11 -18   60.95    4.08
   5 -11 -19   28.37    2.82
   5 -11 -20   16.17    2.21
   5 -11 -21   67.39    4.12
  -5  11 -22    5.26    1.67
   5  12 -23   63.46    4.32
  -5 -12 -22   33.82    3.09
   5  12 -22   34.48    3.40
   5  12 -22   32.04    3.27
  -5 -12 -21    4.11    1.56
   5  12 -21    4.51    1.66
   5  12 -21    2.97    1.48
  -5 -12 -20   11.58    1.76
  -5 -12 -20    9.92    2.11
   5  12 -20    7.69    1.99
   5  12 -20    9.32    2.14
  -5 -12 -19   18.40    2.66
  -5 -12 -19   18.48    2.43
   5  12 -19   16.37    2.79
   5  12 -19   18.94    2.90
  -5 -12 -18    2.22    1.25
  -5 -12 -18    1.10    1.45
   5  12 -18   -0.21    1.92
   5  12 -18    1.99    1.50
  -5 -12 -17   35.18    3.53
  -5 -12 -17   28.53    2.97
   5  12 -17   35.91    3.87
   5  12 -17   31.26    3.70
  -5 -12 -16   59.19    4.10
   5  12 -16   57.67    4.74
   5  12 -16   52.78    4.76
  -5 -12 -15   10.46    1.87
   5  12 -15    3.41    1.92
   5  12 -15    7.10    2.17
  -5 -12 -14  157.25    6.77
  -5 -12 -14  140.56    6.12
   5  12 -14  156.54    7.60
   5  12 -14  157.82    8.12
  -5 -12 -13  172.76    7.95
  -5 -12 -13  182.03    7.34
   5  12 -13  185.05    8.19
  -5 -12 -13  174.62    6.98
   5  12 -13  177.31    8.68
  -5 -12 -12   22.96    3.11
   5  12 -12   24.54    3.18
  -5 -12 -12   24.29    2.82
   5  12 -12   24.09    3.43
  -5 -12 -11   36.50    3.69
   5  12 -11   47.05    4.25
  -5 -12 -11   36.39    3.39
   5  12 -11   38.84    4.15
  -5 -12 -10    3.55    1.70
   5  12 -10    7.07    2.31
  -5 -12 -10    4.45    1.75
   5  12 -10    3.24    1.73
  -5 -12  -9    5.83    1.91
  -5 -12  -9    4.53    1.77
   5  12  -9    8.90    2.28
  -5 -12  -8   46.06    4.09
  -5 -12  -8   51.48    4.14
   5  12  -8   48.38    4.45
  -5 -12  -7   21.60    2.87
  -5 -12  -7   21.14    2.69
   5  12  -7   20.48    3.07
  -5 -12  -6   22.53    2.88
  -5 -12  -6   26.51    3.00
   5  12  -6   28.48    3.61
  -5 -12  -5   18.99    2.75
  -5 -12  -5   16.74    2.55
  -5 -12  -4   42.72    3.76
  -5 -12  -4   45.18    3.83
  -5 -12  -3  106.86    5.83
  -5 -12  -2   62.89    4.45
  -5 -12  -1    2.09    1.39
  -5 -12   0    6.08    1.85
  -5 -12   0    8.10    2.00
   5 -12   0    3.97    1.66
  -5 -12   1    3.05    1.58
  -5 -12   1    1.72    1.30
   5 -12  -1    2.34    1.52
  -5 -12   2   54.76    4.13
  -5 -12   2   56.56    4.36
   5 -12  -2   54.06    4.36
  -5 -12   3  123.93    6.06
  -5 -12   3  112.33    6.05
   5 -12  -3  110.10    6.02
  -5 -12   4   41.39    3.59
  -5 -12   4   43.90    3.85
   5 -12  -4   39.94    3.74
  -5 -12   5   17.28    2.45
  -5 -12   5   14.65    2.49
   5 -12  -5   13.97    2.35
  -5 -12   6   19.35    2.53
   5 -12  -6   18.86    2.63
  -5 -12   6   24.97    2.95
   5 -12  -7   17.66    2.53
  -5 -12   7   24.53    2.83
   5 -12  -8   46.84    3.79
  -5 -12   8   44.05    3.80
   5 -12  -9   11.07    2.00
  -5 -12   9   11.41    2.23
   5 -12 -10    2.72    1.36
  -5 -12  10    1.99    1.32
  -5 -12  11   40.38    3.48
  -5 -12  12   22.90    2.73
   5 -12 -13  176.10    6.96
  -5 -12  13  171.67    6.80
   5 -12 -14  144.88    6.40
  -5  12 -14  161.70    9.41
   5 -12 -15   10.01    1.73
  -5  12 -15    6.88    2.72
   5 -12 -16   53.92    3.82
  -5  12 -16   48.87    4.24
   5 -12 -17   41.55    3.40
   5 -12 -18    0.44    1.09
   5 -12 -19   17.05    2.31
   5 -12 -20   11.67    1.86
  -5 -13 -21   18.34    2.36
   5  13 -21   19.44    2.54
   5  13 -21   16.54    2.37
  -5 -13 -20   38.65    3.36
   5  13 -20   43.19    3.72
   5  13 -20   41.65    3.75
  -5 -13 -19    1.97    1.48
   5  13 -19    0.18    1.60
   5  13 -19    0.95    1.32
  -5 -13 -18   34.17    3.40
   5  13 -18   26.51    3.32
   5  13 -18   28.27    3.41
  -5 -13 -17  797.68   17.84
   5  13 -17  798.48   18.22
   5  13 -17  823.96   19.27
   5  13 -16  122.86    6.56
   5  13 -16  118.95    6.86
   5  13 -15  259.86    9.74
   5  13 -15  273.87   10.61
   5  13 -14  297.61   10.47
   5  13 -14  298.56   11.26
  -5 -13 -13   48.06    4.26
   5  13 -13   40.98    3.98
  -5 -13 -13   47.10    3.71
   5  13 -13   50.42    4.61
  -5 -13 -12   61.19    4.77
   5  13 -12   52.17    4.43
  -5 -13 -12   53.63    4.05
   5  13 -12   55.20    4.86
  -5 -13 -11   71.50    5.12
   5  13 -11   71.50    5.08
  -5 -13 -11   70.48    4.67
   5  13 -11   66.55    5.31
  -5 -13 -10   29.18    3.53
   5  13 -10   36.97    3.87
  -5 -13 -10   41.02    3.67
   5  13 -10   35.06    3.90
  -5 -13  -9  812.33   18.90
   5  13  -9  839.40   18.80
  -5 -13  -9  823.06   18.03
   5  13  -9  793.45   19.75
  -5 -13  -8  129.86    6.88
   5  13  -8  148.04    7.62
  -5 -13  -8  133.37    6.61
   5  13  -8  133.21    7.35
  -5 -13  -7  939.48   20.54
   5  13  -7  972.52   21.90
  -5 -13  -7  978.08   20.33
   5  13  -7  951.42   21.77
  -5 -13  -6  436.75   12.87
  -5 -13  -6  426.95   12.57
   5  13  -6  438.82   13.88
  -5 -13  -5   13.93    2.61
  -5 -13  -5   16.89    2.70
   5  13  -5   15.05    2.76
  -5 -13  -4   11.33    2.39
  -5 -13  -4   12.62    2.48
  -5 -13  -3   21.04    2.85
  -5 -13  -2  118.29    6.31
  -5 -13  -1  624.39   15.52
  -5 -13   0  107.84    5.97
  -5 -13   0  106.96    6.09
  -5 -13   1  649.63   15.80
  -5 -13   1  646.18   16.14
  -5 -13   2  119.54    6.26
  -5 -13   2  126.06    6.62
   5 -13  -2  114.80    6.44
  -5 -13   3   23.53    2.90
  -5 -13   3   23.57    3.05
   5 -13  -3   19.31    2.87
  -5 -13   4   15.10    2.66
  -5 -13   4   14.07    2.35
   5 -13  -4   12.66    2.38
  -5 -13   5   13.49    2.56
  -5 -13   5   12.88    2.27
   5 -13  -5   10.84    2.29
  -5 -13   6  420.30   11.89
   5 -13  -6  410.22   12.15
  -5 -13   6  436.35   12.57
   5 -13  -7  947.95   19.63
  -5 -13   7  904.86   19.53
   5 -13  -8  134.54    6.45
  -5 -13   8  122.89    6.33
   5 -13  -9  768.66   16.89
  -5 -13   9  829.93   17.86
   5 -13 -10   28.19    2.94
  -5 -13  10   29.22    3.18
  -5 -13  11   58.69    4.22
  -5 -13  12   49.49    3.85
  -5  13 -13   47.66    7.51
  -5  13 -14  293.79   11.90
  -5  13 -15  279.29   10.17
  -5  13 -16  111.19    6.01
  -5 -14 -19   16.22    2.32
   5  14 -19   16.41    2.31
   5  14 -19   16.91    2.39
  -5 -14 -18   11.85    2.11
   5  14 -18   12.37    2.32
   5  14 -18    8.46    1.97
  -5 -14 -17   52.04    4.07
   5  14 -17   57.64    4.37
   5  14 -17   60.28    4.59
   5  14 -16   12.57    2.36
   5  14 -16   15.66    2.64
   5  14 -15   27.32    3.26
   5  14 -15   33.48    3.69
   5  14 -14   26.32    3.22
   5  14 -14   25.32    3.34
  -5 -14 -13  136.73    6.88
   5  14 -13  128.77    6.52
   5  14 -13  128.50    7.17
  -5 -14 -12   34.40    3.59
  -5 -14 -12   27.02    3.00
   5  14 -12   28.43    3.33
   5  14 -12   33.06    3.75
  -5 -14 -11   13.21    2.48
   5  14 -11   17.32    2.77
  -5 -14 -11   14.56    2.42
   5  14 -11   17.87    2.92
  -5 -14 -10    7.69    2.00
  -5 -14 -10    6.56    1.97
   5  14 -10    8.60    2.29
   5  14 -10    8.08    2.24
  -5 -14  -9   31.54    3.51
   5  14  -9   36.22    3.71
  -5 -14  -9   36.46    3.41
   5  14  -9   32.04    3.80
  -5 -14  -8    6.29    1.95
  -5 -14  -8    5.13    1.84
   5  14  -8    4.39    1.80
  -5 -14  -7    3.44    1.86
  -5 -14  -7    2.61    1.70
   5  14  -7    2.77    1.82
  -5 -14  -6   14.67    2.68
  -5 -14  -6   14.74    2.46
   5  14  -6   13.89    2.88
  -5 -14  -5    3.79    1.67
  -5 -14  -5    2.86    1.65
   5  14  -5    2.94    1.96
  -5 -14  -4   12.71    2.38
   5  14  -4   12.44    2.75
  -5 -14  -3   10.70    2.36
  -5 -14  -3   12.22    2.38
  -5 -14  -2   17.41    2.78
  -5 -14  -1   33.51    3.62
  -5 -14   0    1.19    1.58
  -5 -14   0    1.74    1.56
  -5 -14   1   37.17    3.65
  -5 -14   1   36.65    3.74
  -5 -14   2   19.50    2.81
  -5 -14   2   17.82    2.94
  -5 -14   3   13.28    2.46
  -5 -14   3   13.40    2.68
  -5 -14   4   12.28    2.36
   5 -14  -4   12.62    2.35
  -5 -14   4   12.30    2.59
  -5 -14   5    5.10    1.72
   5 -14  -5    3.31    1.48
  -5 -14   5    4.05    1.90
  -5 -14   6   11.86    2.29
   5 -14  -6   10.57    2.31
  -5 -14   6   13.44    2.54
   5 -14  -7    2.36    1.47
  -5 -14   7    4.27    1.57
   5 -14  -8    4.51    1.59
  -5 -14   8    7.04    2.08
   5 -14  -9   23.95    2.85
  -5 -14   9   33.02    3.26
  -5 -14  10    8.07    2.05
  -5 -14  11   16.42    2.43
  -5 -14  12   25.65    2.95
  -5  14 -12   41.84    9.78
  -5  14 -13  140.42    9.32
  -5  14 -14   29.79    4.35
  -5  14 -15   39.51    3.83
  -5 -15 -17  441.29   11.47
   5  15 -17  442.44   12.11
  -5 -15 -16   86.09    4.95
   5  15 -16   75.68    4.60
   5  15 -16   85.08    5.20
   5  15 -15  344.57   10.33
   5  15 -15  393.63   11.85
   5  15 -14  140.81    6.44
   5  15 -14  151.25    7.29
   5  15 -13   37.69    3.57
   5  15 -13   40.54    3.95
  -5 -15 -12    5.23    1.78
   5  15 -12    4.49    1.77
   5  15 -12    3.16    1.66
  -5 -15 -11    4.41    1.86
  -5 -15 -11    6.18    1.65
   5  15 -11    3.14    1.59
   5  15 -11    6.89    2.05
  -5 -15 -10   46.98    4.15
  -5 -15 -10   45.54    3.74
   5  15 -10   38.95    3.67
   5  15 -10   50.18    4.48
  -5 -15  -9  404.73   12.40
   5  15  -9  412.60   11.85
  -5 -15  -9  413.47   11.79
   5  15  -9  405.02   13.12
  -5 -15  -8  190.68    8.26
   5  15  -8  190.56    7.85
  -5 -15  -8  175.18    7.54
   5  15  -8  180.65    8.50
  -5 -15  -7  435.59   13.03
   5  15  -7  469.46   12.89
  -5 -15  -7  456.86   12.81
   5  15  -7  453.73   13.95
  -5 -15  -6   27.51    3.27
  -5 -15  -6   28.42    3.13
   5  15  -6   26.17    3.47
  -5 -15  -5  132.31    6.89
  -5 -15  -5  138.22    6.90
   5  15  -5  135.26    7.43
  -5 -15  -4  127.19    6.72
  -5 -15  -4  127.26    6.65
   5  15  -4  128.88    7.25
  -5 -15  -3   62.59    4.71
  -5 -15  -3   59.23    4.65
  -5 -15  -2  165.91    7.65
  -5 -15  -1  465.71   13.38
  -5 -15   0  161.71    7.54
  -5 -15   0  160.11    7.62
  -5 -15   1  446.24   12.93
  -5 -15   1  444.12   13.11
  -5 -15   2  175.47    7.77
  -5 -15   2  180.19    8.03
  -5 -15   3   55.60    4.38
  -5 -15   3   57.50    4.54
  -5 -15   4  135.25    6.68
  -5 -15   4  134.64    6.84
  -5 -15   5  137.88    6.65
  -5 -15   5  132.45    6.75
  -5 -15   6   25.51    3.06
  -5 -15   7  439.20   12.52
  -5 -15   8  178.33    7.56
  -5 -15   9  406.10   11.59
  -5 -15  10   42.86    3.57
  -5 -15  11    5.99    1.69
  -5  15 -11   97.15   12.98
  -5  15 -12   33.15    6.99
  -5  15 -13   60.35    5.67
  -5  15 -14  145.92    6.87
   5  16 -14    3.75    1.50
  -5 -16 -13   25.61    2.91
   5  16 -13   30.35    3.25
  -5 -16 -12  124.17    6.12
   5  16 -12  130.61    6.59
  -5 -16 -11   60.44    4.46
   5  16 -11   54.65    4.40
  -5 -16 -10   28.33    3.21
  -5 -16 -10   26.73    2.81
   5  16 -10   27.42    3.24
  -5 -16  -9   35.77    3.61
  -5 -16  -9   32.25    3.16
   5  16  -9   31.69    3.55
  -5 -16  -8    3.53    1.62
  -5 -16  -8    3.75    1.61
   5  16  -8    0.83    1.48
  -5 -16  -7   21.21    2.82
  -5 -16  -7   14.55    2.47
   5  16  -7   19.06    2.89
  -5 -16  -6    5.30    1.89
  -5 -16  -6    5.23    1.80
   5  16  -6    6.79    2.16
  -5 -16  -5   -0.19    1.31
  -5 -16  -5    1.07    1.37
   5  16  -5    0.43    1.42
  -5 -16  -4   64.29    4.71
  -5 -16  -4   53.71    4.29
   5  16  -4   66.82    5.10
  -5 -16  -3   12.36    2.41
  -5 -16  -3    9.80    2.30
   5  16  -3   11.14    2.72
  -5 -16  -2   27.86    3.26
  -5 -16  -1    3.77    1.60
  -5 -16   0    0.19    1.53
  -5 -16   0   -0.38    1.32
  -5 -16   1    5.88    2.02
  -5 -16   1    5.76    1.78
  -5 -16   2   30.59    3.32
  -5 -16   2   31.17    3.48
  -5 -16   3   10.54    2.18
  -5 -16   3   14.05    2.60
  -5 -16   4   56.38    4.27
  -5 -16   4   63.65    4.67
  -5 -16   5    1.26    1.40
  -5 -16   6    4.20    1.69
  -5 -16   7   15.81    2.55
  -5 -16   8    3.21    1.57
  -5 -16   9   28.94    3.06
  -5 -16  10   23.88    2.70
  -5  16 -10  113.60   14.43
  -5 -16  11   52.35    3.66
  -5  16 -11   79.22    8.41
  -5  16 -12  132.62    7.56
  -5 -17 -11    6.23    1.71
   5  17 -11    9.68    2.00
  -5 -17 -10  159.06    6.71
   5  17 -10  162.81    7.07
  -5 -17  -9  116.27    5.80
  -5 -17  -9  114.07    5.31
   5  17  -9  114.28    6.02
  -5 -17  -8   87.60    5.11
  -5 -17  -8   85.31    4.78
   5  17  -8   88.88    5.39
  -5 -17  -7  179.31    7.39
  -5 -17  -7  179.42    7.03
   5  17  -7  171.95    7.63
  -5 -17  -6    0.17    1.35
  -5 -17  -6    0.31    1.28
   5  17  -6    0.38    1.33
  -5 -17  -5   80.26    5.03
  -5 -17  -5   75.00    4.71
   5  17  -5   86.89    5.44
  -5 -17  -4   28.15    3.12
  -5 -17  -4   26.47    2.97
   5  17  -4   30.82    3.40
  -5 -17  -3   66.34    4.53
  -5 -17  -3   66.84    4.56
   5  17  -3   65.88    4.85
  -5 -17  -2   74.69    4.88
   5  17  -2   84.75    5.48
  -5 -17  -1  179.82    7.47
  -5 -17   0   71.44    4.70
  -5 -17   0   79.15    4.94
  -5 -17   1  184.82    7.49
  -5 -17   1  189.98    7.73
  -5 -17   2   79.51    4.90
  -5 -17   2   90.76    5.31
   5  17   2   85.16    5.49
  -5 -17   3   57.70    4.11
  -5 -17   3   60.57    4.39
   5  17   3   70.44    5.08
   5  17   4   31.50    3.65
  -5 -17   4   26.64    3.02
  -5 -17   5   72.63    4.63
  -5 -17   6    1.24    1.31
  -5 -17   7  179.72    7.02
  -5 -17   8   73.80    4.36
  -5 -17   9  123.59    5.46
  -5  17  -9  111.68   13.13
   5  18  -5    9.38    1.89
  -5 -18  -4   41.66    3.35
   5  18  -4   39.48    3.52
  -5 -18  -3    8.12    1.88
   5  18  -3   10.59    2.11
   5  18  -2   20.90    2.66
   5  18  -1  144.29    6.58
  -5 -18   0   39.32    3.37
  -5 -18   1  135.80    6.08
  -5 -18   2   19.74    2.54
  -5 -18   3   13.37    2.13
   5  18   3   11.56    2.33
  -5 -18   4   39.43    3.31
   5  18   4   40.37    3.61
   6   0   0  503.93   10.34
   6   0   0  511.03    9.17
   6   0   0  525.15   10.48
  -6   0  -1    1.17    0.44
  -6   0   1    1.92    0.39
   6   0   1    1.11    0.76
   6   0  -1    3.35    0.96
  -6   0   1    0.11    0.63
   6   0   1    1.05    0.55
   6   0  -1    1.34    0.56
   6   0  -1    1.11    0.67
   6   0   1    1.10    0.64
   6   0  -1    0.78    0.50
  -6   0  -2  486.40    8.43
   6   0  -2  507.84   10.49
  -6   0  -2  491.28   10.77
   6   0   2  483.33    9.17
  -6   0   2  475.43   10.74
   6   0  -2  504.92    9.08
   6   0   2  503.68   10.42
   6   0   2  508.78   10.41
   6   0  -2  497.24    9.22
   6   0  -2  512.20   10.46
  -6   0  -3  254.82    5.71
   6   0  -3  260.06    7.05
  -6   0  -3  247.54    7.15
   6   0   3  261.21    6.17
  -6   0   3  241.63    7.14
   6   0  -3  260.85    5.99
   6   0   3  256.93    6.97
   6   0  -3  241.55    6.14
   6   0   3  266.28    7.08
   6   0  -3  258.06    7.04
  -6   0  -4 2229.27   29.17
   6   0  -4 2203.83   31.26
  -6   0   4 2308.75   29.24
  -6   0  -4 2252.53   31.54
   6   0   4 2249.99   29.65
   6   0  -4 2277.51   29.31
   6   0   4 2235.82   31.19
   6   0  -4 2250.05   30.14
   6   0  -4 2179.64   31.31
   6   0   4 2276.57   31.33
  -6   0  -5  397.04    8.23
   6   0  -5  404.44    9.58
  -6   0  -5  396.98    9.41
  -6   0   5  408.42    8.04
   6   0   5  411.36    8.43
   6   0  -5  422.60    8.30
   6   0   5  407.66    9.33
   6   0  -5  412.01    8.95
   6   0   5  414.79    9.46
  -6   0  -6  462.29    9.23
  -6   0  -6  451.31   10.08
  -6   0   6  441.75    8.64
   6   0   6  455.68    9.16
   6   0  -6  468.45    9.05
   6   0   6  445.60   10.04
   6   0   6  457.04   10.16
   6   0  -6  446.19    9.72
  -6   0  -7    8.90    1.25
  -6   0  -7   10.22    1.45
   6   0   7   10.00    1.30
  -6   0   7    8.54    1.12
  -6   0   7    8.24    1.35
   6   0  -7    7.39    1.12
   6   0   7   10.74    1.56
   6   0   7   11.34    1.61
   6   0  -7    9.56    1.43
  -6   0  -8  267.93    7.12
  -6   0  -8  270.12    7.48
   6   0   8  272.57    6.96
  -6   0   8  270.75    6.55
  -6   0   8  242.53    7.27
   6   0  -8  267.27    6.77
   6   0   8  270.73    7.69
   6   0  -8  249.72    7.42
   6   0   8  266.96    7.69
  -6   0  -9   53.78    3.12
  -6   0  -9   53.57    3.23
  -6   0   9   58.52    2.89
   6   0   9   60.48    3.53
   6   0  -9   57.57    3.49
   6   0   9   57.70    3.45
  -6   0 -10  267.77    7.64
  -6   0  10  288.90    7.12
   6   0 -10  289.26    7.92
   6   0 -10  274.76    8.31
   6   0  10  280.27    8.17
   6   0  10  274.16    8.08
  -6   0  11 1046.74   17.16
   6   0 -11 1094.94   18.77
   6   0 -11 1057.48   19.49
   6   0  11 1072.11   19.05
   6   0  11 1012.64   18.70
   6   0 -12 4426.13   57.71
   6   0  12 4362.91   57.81
   6   0 -12 4428.44   58.90
   6   0  12 4458.17   57.92
   6   0 -13  488.12   11.89
   6   0  13  494.33   11.94
   6   0  13  486.00   11.97
   6   0 -13  472.70   12.38
   6   0 -14 1671.31   24.25
  -6   0 -14 1729.93   24.77
   6   0 -14 1717.65   27.94
   6   0 -14 1703.52   28.75
   6   0  14 1685.76   27.66
   6   0 -15   24.75    2.06
   6   0  15   26.25    2.72
   6   0 -16    3.81    1.14
   6   0  16    3.38    1.35
   6   0 -17   89.58    4.16
   6   0  17   89.52    5.16
   6   0 -18  529.88   11.63
   6   0  18  531.91   13.94
   6   0 -19   65.26    3.78
   6   0  19   68.71    4.78
   6   0 -20 1124.85   19.89
   6   0  20 1184.61   23.12
   6   0 -21  303.15    8.83
   6   0  21  319.46   10.87
   6   0 -22  466.50   11.54
   6   0  22  514.65   14.27
   6   0 -23   92.05    4.71
   6   0  23   97.39    5.93
   6   0 -24   29.50    2.69
   6   0  24   39.00    3.90
   6   0  24   31.01    3.45
   6   0  25   31.58    3.54
   6   0  25   36.03    3.67
   6   0  26   14.03    2.47
   6   0  26   14.38    2.40
   6   0  27   33.89    3.56
   6   0  27   35.23    3.45
   6   0  28  504.25   13.34
   6   0  28  490.25   13.31
   6   0  29   22.01    2.71
   6   0  29   20.56    2.69
   6   0  30   63.19    4.10
   6   0  30   60.00    4.05
   6  -1  30    8.00    1.77
   6  -1  29  145.20    6.60
   6  -1  28  119.05    6.22
   6  -1  27    0.58    1.26
   6  -1  26    4.02    1.70
   6  -1  25   72.81    5.15
   6  -1  24   16.63    2.78
   6   1 -24   15.18    2.02
   6   1 -23  224.86    7.58
   6   1 -22    9.95    1.61
   6   1 -21  239.56    7.76
   6   1 -20  206.96    7.05
   6   1 -19  122.63    5.26
   6   1 -19  134.79    6.93
   6   1 -18  101.21    4.58
   6   1 -18   96.62    5.74
   6   1 -17  180.13    6.11
   6   1 -17  199.27    8.09
   6   1 -16   29.92    2.38
   6   1 -16   26.78    2.90
   6   1 -15  329.24    8.06
   6   1 -15  341.10   10.26
   6   1 -14   19.11    1.77
  -6  -1 -14   20.81    2.00
   6   1 -14   20.45    2.47
   6   1 -14   20.00    2.59
  -6  -1 -13  321.07    7.86
   6   1 -13  322.67    9.35
   6  -1  13  313.07    9.30
   6   1 -13  318.79   10.00
   6   1 -12  292.31    8.59
  -6  -1 -12  305.29    7.84
   6  -1  12  284.99    8.75
   6   1 -12  302.34    9.32
  -6  -1 -11  390.95    9.41
   6   1 -11  401.04    9.95
   6  -1  11  429.58   10.61
   6   1 -11  409.24   10.86
  -6  -1 -10  345.29    8.69
   6   1 -10  351.13    8.89
   6   1 -10  364.39    9.77
   6  -1  10  360.07    9.48
  -6  -1  -9  204.14    6.41
   6  -1   9  215.33    6.15
  -6   1   9  213.27    5.58
  -6   1   9  214.41    6.98
   6   1  -9  215.35    6.39
   6   1  -9  227.18    6.62
   6   1  -9  219.27    7.16
   6  -1   9  228.98    7.15
  -6  -1  -8    9.97    1.42
   6  -1   8    9.62    1.53
   6  -1   8   11.43    1.38
  -6   1   8    9.39    1.14
  -6   1   8   10.06    1.49
   6   1  -8   10.05    1.37
  -6  -1  -8   12.40    1.51
   6   1  -8   13.84    1.56
   6   1  -8   12.85    1.74
  -6  -1  -7   25.32    2.16
   6  -1   7   24.67    1.88
  -6   1   7   26.75    1.75
  -6   1   7   26.11    2.25
   6   1  -7   25.81    1.98
  -6  -1  -7   25.81    2.01
   6   1  -7   25.37    1.98
   6  -1   7   24.52    2.24
   6   1  -7   25.29    2.24
  -6  -1  -6  477.56   10.32
  -6   1   6  465.62    8.53
   6  -1   6  463.47    9.13
  -6   1   6  432.39   10.04
   6   1  -6  472.20    9.49
  -6  -1  -6  469.14    9.42
   6   1  -6  477.44    9.18
   6   1  -6  456.80   10.10
   6  -1   6  453.36   10.39
   6   1  -5  377.99    9.06
  -6   1   5  371.65    7.26
  -6  -1  -5  354.07    8.73
   6  -1   5  367.46    7.69
  -6   1   5  349.23    8.78
   6   1  -5  377.00    8.07
  -6  -1  -5  385.37    7.98
   6   1  -5  364.11    7.44
   6  -1   5  388.75    9.17
   6   1  -5  377.98    8.64
  -6  -1  -4  582.98   10.30
   6   1  -4  578.55   11.76
   6  -1   4  589.93   10.34
  -6  -1  -4  564.88   11.73
  -6   1   4  582.27   11.96
   6   1  -4  597.36   10.73
   6   1  -4  561.01   11.04
   6  -1   4  617.09   12.03
   6   1  -4  605.18   11.98
  -6  -1  -3  229.83    5.41
   6   1  -3  218.01    6.43
   6  -1   3  233.13    5.58
  -6  -1  -3  229.80    6.78
  -6   1   3  229.18    6.86
   6   1  -3  234.94    5.89
   6  -1   3  236.74    6.71
   6   1  -3  231.84    6.06
   6   1  -3  226.32    6.58
  -6  -1  -2  133.36    3.67
   6   1  -2  143.07    4.90
   6  -1   2  143.22    4.02
  -6   1   2  135.19    5.09
  -6  -1  -2  137.54    5.08
   6   1  -2  137.25    4.23
   6  -1   2  139.89    4.97
   6   1  -2  136.74    4.29
   6   1  -2  139.30    4.86
  -6  -1  -1   10.49    0.99
  -6   1   1    7.79    0.65
   6   1  -1   12.57    1.50
   6  -1   1    7.31    1.24
   6  -1   1   11.61    1.12
  -6  -1  -1    9.95    1.48
   6   1  -1    8.19    1.08
  -6   1   1    6.52    1.24
   6   1  -1    8.44    1.08
   6   1  -1   10.24    1.38
  -6   1   0   36.72    1.56
  -6  -1   0   33.25    1.55
   6  -1   0   36.46    2.53
   6   1   0   36.85    2.45
  -6   1   0   36.39    2.66
   6   1   0   37.09    2.16
   6  -1   0   37.29    1.94
   6   1   0   34.90    1.93
   6   1   0   37.29    2.48
  -6   1  -1    7.70    0.83
   6  -1  -1    9.76    1.38
  -6   1  -1    9.44    1.44
   6   1   1    8.11    1.08
   6  -1  -1    9.99    1.04
   6   1   1    8.90    1.29
   6   1   1    9.49    1.31
  -6   1  -2  127.61    3.62
   6  -1  -2  126.77    4.82
   6   1   2  129.20    4.23
   6  -1  -2  129.29    3.73
  -6  -1   2  132.71    5.14
   6   1   2  133.80    4.72
   6   1   2  133.57    4.78
   6  -1  -2  125.62    3.95
  -6   1  -3  231.18    5.40
   6  -1  -3  226.17    6.66
  -6  -1   3  227.49    5.76
  -6   1  -3  214.68    6.66
   6   1   3  236.86    6.03
  -6  -1   3  216.04    6.74
   6  -1  -3  233.54    5.32
   6   1   3  242.33    6.66
   6   1   3  233.77    6.47
   6  -1  -3  232.97    5.87
  -6   1  -4  621.72   10.53
   6  -1  -4  567.04   11.85
  -6   1  -4  582.94   12.08
  -6  -1   4  602.00   10.75
   6   1   4  593.12   10.98
  -6  -1   4  564.51   11.96
   6  -1  -4  591.46   10.03
   6   1   4  632.01   12.01
   6  -1  -4  584.80   10.99
   6   1   4  615.64   11.84
  -6   1  -5  399.56    8.17
   6  -1  -5  383.61    9.36
  -6   1  -5  377.41    9.22
  -6  -1   5  380.33    8.10
   6   1   5  391.49    8.43
  -6  -1   5  357.76    9.07
   6  -1  -5  399.09    7.69
   6   1   5  398.35    9.09
   6  -1  -5  391.87    8.65
   6   1   5  391.92    9.12
  -6   1  -6  468.65    9.33
  -6   1  -6  466.71   10.35
  -6  -1   6  447.08    9.08
   6   1   6  445.24    9.29
   6  -1  -6  456.77    8.60
   6   1   6  459.99   10.21
   6  -1  -6  449.08    9.72
   6   1   6  448.26   10.03
  -6   1  -7   26.17    2.02
  -6   1  -7   26.89    2.32
   6   1   7   27.54    2.08
  -6  -1   7   31.42    2.11
  -6  -1   7   24.78    2.19
   6  -1  -7   24.25    1.75
   6   1   7   26.90    2.24
   6   1   7   28.15    2.35
   6  -1  -7   27.78    2.27
  -6   1  -8   11.42    1.45
  -6   1  -8   10.75    1.58
  -6  -1   8   10.13    1.32
   6   1   8   11.08    1.59
   6  -1  -8    9.84    1.52
   6   1   8   10.40    1.56
  -6  -1   9  219.54    6.16
   6   1   9  226.01    7.01
   6  -1  -9  219.73    7.03
   6   1   9  223.61    7.00
  -6  -1  10  329.57    8.11
   6  -1 -10  347.50    9.38
   6   1  10  333.45    9.00
   6   1  10  353.52    9.24
   6   1  11  446.49   10.76
   6   1  11  426.70   10.58
  -6  -1  12  278.24    7.24
   6   1  12  270.49    8.27
   6   1  12  283.06    8.50
   6  -1 -13  314.70    7.23
   6   1  13  323.99    9.26
   6   1  13  325.26    9.35
   6  -1 -14   20.61    1.83
   6   1  14   22.04    2.49
   6  -1 -15  323.68    7.90
   6   1  15  332.31    9.87
   6  -1 -16   22.70    2.08
   6   1  16   24.03    2.67
   6  -1 -17  175.48    5.92
   6   1  17  185.26    7.50
   6  -1 -18   93.87    4.39
   6   1  18  100.54    5.60
   6  -1 -19  127.31    5.28
   6   1  19  129.10    6.47
   6  -1 -20  187.14    6.63
   6   1  20  194.28    8.20
   6  -1 -21  242.54    7.75
   6   1  21  256.11    9.61
   6  -1 -22    8.74    1.52
   6   1  22    6.88    1.96
   6  -1 -23  221.39    7.48
   6   1  23  241.91    9.48
   6  -1 -24   16.22    2.08
   6   1  24   13.85    2.56
   6   1  24   21.13    2.84
   6   1  25   68.34    4.93
   6   1  25   72.66    5.05
   6   1  26    5.33    1.90
   6   1  26    6.27    1.77
   6   1  27    2.65    1.45
   6   1  27    5.80    1.63
   6   1  28  114.60    6.01
   6   1  28  116.72    6.01
   6   1  29  148.92    6.55
   6   1  29  141.24    6.43
   6   1  30    8.39    1.73
   6  -2  29  235.54    8.29
   6  -2  28  350.53   10.68
   6  -2  27  130.10    6.46
   6  -2  26   24.04    2.96
   6  -2  25   54.27    4.35
   6   2 -24    2.59    1.19
   6  -2  24    9.19    2.08
   6   2 -23  132.51    5.76
   6  -2  23  142.43    7.13
   6   2 -22  460.12   11.49
   6  -2  22  452.58   13.43
   6  -2  22  487.56   13.75
   6   2 -21  426.27   10.92
   6   2 -21  436.75   13.56
   6  -2  21  446.36   12.94
   6   2 -20 1597.97   25.95
   6   2 -20 1661.82   30.31
   6  -2  20 1677.66   29.29
   6   2 -19  163.53    6.13
   6   2 -19  167.40    7.81
   6  -2  19  168.21    7.40
   6   2 -18  514.08   13.92
   6   2 -18  492.03   14.30
   6  -2  18  477.27   12.93
   6   2 -17  213.21    6.78
   6   2 -17  235.19    8.90
   6  -2  17  226.47    8.39
   6   2 -16   19.80    2.03
   6   2 -16   22.85    2.79
   6  -2  16   22.70    2.64
   6   2 -15   15.12    1.72
   6   2 -15   15.15    2.22
   6  -2  15   15.63    2.24
   6  -2  15   14.49    2.11
   6   2 -14  609.69   11.57
  -6  -2 -14  603.86   11.49
   6   2 -14  610.49   14.09
   6  -2  14  570.72   13.81
   6   2 -14  600.49   14.86
   6  -2  14  622.43   14.02
   6   2 -13  195.57    5.57
   6   2 -13  210.84    7.39
  -6  -2 -13  194.62    5.93
   6   2 -13  209.04    7.94
   6  -2  13  186.11    7.09
   6  -2  13  197.32    7.13
   6   2 -12 2837.59   39.72
  -6  -2 -12 2851.23   37.40
   6   2 -12 2833.07   41.21
   6  -2  12 2717.31   39.63
  -6  -2 -11  253.13    7.13
  -6  -2 -11  277.50    7.33
   6   2 -11  280.03    8.04
   6   2 -11  264.22    8.57
   6  -2  11  264.01    8.04
  -6  -2 -10  153.86    5.40
  -6  -2 -10  165.56    5.67
   6   2 -10  172.03    5.93
   6   2 -10  166.69    6.48
   6  -2  10  164.46    6.05
  -6  -2  -9  211.19    6.40
   6  -2   9  215.57    6.03
  -6   2   9  226.73    7.15
  -6  -2  -9  223.60    6.76
   6   2  -9  208.66    6.42
   6  -2   9  215.94    6.93
   6   2  -9  224.36    7.37
  -6  -2  -8   41.80    2.73
   6  -2   8   40.79    2.42
  -6   2   8   38.14    2.76
   6   2  -8   38.71    2.64
  -6  -2  -8   39.48    2.65
   6   2  -8   43.58    2.67
   6   2  -8   46.20    3.18
  -6  -2  -7   94.28    4.12
   6  -2   7  102.81    3.73
  -6   2   7   96.35    3.13
  -6   2   7   90.37    4.15
   6   2  -7   93.15    4.00
  -6  -2  -7   95.84    3.98
   6   2  -7   97.37    3.86
   6  -2   7  102.42    4.46
   6   2  -7   97.39    4.50
  -6   2   6  885.99   12.94
   6  -2   6  861.57   13.85
  -6  -2  -6  837.80   15.25
  -6   2   6  829.42   15.41
   6   2  -6  882.59   14.99
  -6  -2  -6  885.12   14.76
   6   2  -6  905.01   14.28
   6  -2   6  897.11   15.67
   6   2  -6  857.91   15.69
   6  -2   5  525.18    9.39
  -6   2   5  496.14   10.85
   6   2  -5  512.11   10.19
  -6  -2  -5  512.61    9.93
   6   2  -5  516.49    9.35
   6  -2   5  524.34   10.84
   6   2  -5  517.32   10.84
  -6  -2  -4 2654.58   34.94
   6   2  -4 2660.47   36.56
   6  -2   4 2744.01   34.33
  -6   2   4 2685.07   37.00
  -6  -2  -4 2759.45   36.75
   6   2  -4 2734.83   35.66
   6   2  -4 2701.46   36.93
   6   2  -4 2787.64   36.40
   6  -2   4 2773.98   36.73
  -6  -2  -3  948.53   14.50
   6   2  -3  967.89   16.18
  -6   2   3  927.37   16.58
   6  -2   3  957.78   14.16
  -6  -2  -3  942.02   16.49
   6   2  -3  969.85   15.45
   6   2  -3  919.31   15.51
   6   2  -3  924.23   16.18
   6  -2   3  980.70   16.18
  -6  -2  -2 1294.08   18.01
   6   2  -2 1368.11   20.21
  -6   2   2 1375.87   21.13
   6  -2   2 1341.47   17.87
  -6  -2  -2 1356.37   21.01
   6   2  -2 1308.72   19.29
   6  -2   2 1377.41   20.37
   6   2  -2 1334.74   20.28
   6   2  -2 1336.45   19.41
   6   2  -1  437.23    7.00
  -6  -2  -1  462.73    8.07
  -6   2   1  446.40    7.02
   6   2  -1  469.67    9.76
  -6   2   1  473.17   10.53
   6  -2   1  463.17    8.01
   6   2  -1  464.09    9.28
  -6  -2  -1  459.95   10.41
   6   2  -1  450.68    9.81
   6   2  -1  452.86    8.96
   6  -2   1  484.49    9.99
   6   2   0  656.83    9.94
  -6   2   0  683.02   10.05
   6   2   0  646.48   12.21
  -6   2   0  687.83   13.38
   6   2   0  688.48   11.99
   6  -2   0  652.52   10.34
  -6  -2   0  669.02   13.35
   6   2   0  679.44   12.59
   6   2   0  649.70   11.32
   6  -2   0  685.23   12.69
   6   2   1  448.40    7.87
  -6   2  -1  463.74    8.02
   6   2   1  459.40    9.65
  -6   2  -1  486.98   10.76
   6   2   1  472.03    9.43
   6  -2  -1  470.93    7.93
   6   2   1  476.13    9.96
   6   2   1  458.61    8.59
   6  -2  -1  462.36    9.87
   6   2   2 1279.69   18.09
  -6   2  -2 1345.86   18.37
  -6   2  -2 1339.12   21.27
  -6  -2   2 1297.30   19.44
   6   2   2 1385.40   19.85
   6  -2  -2 1306.01   17.66
   6   2   2 1327.85   20.37
   6   2   2 1286.87   18.28
   6  -2  -2 1334.12   20.56
   6   2   2 1294.06   19.99
   6   2   3  963.23   14.44
  -6   2  -3  973.09   14.58
  -6  -2   3  903.79   15.18
   6   2   3  979.96   15.59
   6  -2  -3  957.03   13.64
  -6  -2   3  887.75   16.61
   6   2   3  976.11   16.24
   6   2   3  952.78   15.88
   6  -2  -3  963.60   16.37
   6   2   4 2726.63   34.58
  -6   2  -4 2704.82   34.66
  -6  -2   4 2625.85   35.16
   6   2   4 2814.48   35.57
  -6  -2   4 2534.65   36.84
   6  -2  -4 2714.98   33.32
   6   2   4 2709.68   36.03
   6  -2  -4 2727.21   36.63
   6   2   4 2683.75   36.29
   6   2   5  527.62    9.98
  -6   2  -5  531.69   10.06
  -6   2  -5  511.67   11.31
  -6  -2   5  504.66   10.11
   6   2   5  516.78   10.41
   6  -2  -5  528.79    8.90
   6   2   5  547.73   11.09
   6   2   5  509.78   10.64
   6   2   6  841.56   14.35
  -6   2  -6  854.61   14.49
  -6   2  -6  876.85   15.89
  -6  -2   6  829.11   14.36
   6   2   6  860.42   14.79
   6  -2  -6  878.87   13.04
   6   2   6  864.17   15.38
   6   2   6  851.12   15.15
   6   2   7  104.46    4.15
  -6   2  -7  104.84    4.19
  -6  -2   7  107.36    4.14
   6   2   7   98.96    4.32
   6   2   7  101.81    4.41
   6   2   8   42.00    2.72
  -6   2  -8   42.25    2.75
  -6  -2   8   42.88    2.69
   6   2   8   47.00    3.06
   6   2   8   50.95    3.13
  -6  -2   9  219.55    6.48
   6   2   9  211.35    6.79
   6   2   9  208.18    6.65
  -6  -2  10  168.21    5.50
   6   2  10  179.33    6.31
   6   2  10  168.23    6.03
  -6  -2  11  239.57    6.61
   6   2  11  240.01    7.52
   6   2  11  249.93    7.70
  -6  -2  12 2734.76   36.46
   6   2  12 2772.18   38.99
   6   2  12 2784.53   39.18
   6  -2 -13  213.41    5.77
   6   2  13  216.11    7.44
   6   2  13  217.67    7.36
   6  -2 -14  603.73   11.41
   6   2  14  597.41   13.71
   6  -2 -15   17.83    1.81
   6   2  15   15.40    2.25
   6  -2 -16   27.77    2.32
   6   2  16   32.46    3.13
   6  -2 -17  214.23    6.65
   6   2  17  222.85    8.28
   6  -2 -18  471.43   10.83
   6   2  18  477.74   13.03
   6  -2 -19  168.74    6.16
   6   2  19  185.80    7.86
   6  -2 -20 1601.55   25.62
   6   2  20 1681.73   29.23
   6  -2 -21  433.42   10.75
   6   2  21  418.78   12.68
   6  -2 -22  464.56   11.38
   6   2  22  502.31   14.03
   6  -2 -23  127.14    5.55
   6   2  23  140.40    7.07
   6  -2 -24    6.14    1.38
   6   2  24    4.79    1.81
   6   2  24    6.25    1.83
   6   2  25   52.84    4.29
   6   2  25   52.51    4.32
   6   2  26   22.35    2.99
   6   2  26   22.42    2.86
   6   2  27  144.60    6.83
   6   2  27  132.06    6.57
   6   2  28  372.68   11.02
   6   2  28  353.09   10.78
   6   2  29  215.67    7.87
   6   2  29  216.72    7.90
   6  -3  29   87.26    4.83
   6  -3  29   93.24    5.16
   6  -3  28   73.45    4.65
   6  -3  28   76.77    4.90
   6  -3  27   77.55    4.89
   6  -3  27   75.45    5.03
   6  -3  26   99.88    5.68
   6  -3  25  140.24    6.89
   6   3 -24  111.87    5.26
   6  -3  24  127.49    6.58
   6   3 -23  310.56    9.18
   6   3 -23  335.61   11.72
   6  -3  23  329.85   10.97
   6   3 -22  156.34    6.32
   6   3 -22  171.84    8.25
   6  -3  22  176.11    7.90
   6   3 -21  286.26    8.72
   6   3 -21  298.45   10.97
   6  -3  21  299.05   10.36
   6   3 -20   58.62    3.78
   6   3 -20   57.81    4.69
   6   3 -20   51.40    4.69
   6  -3  20   61.13    4.55
   6   3 -19  120.26    5.31
   6   3 -19  129.87    6.86
   6   3 -19  127.15    7.12
   6  -3  19  128.34    6.46
   6   3 -18   16.84    2.06
   6   3 -18   18.94    2.66
   6  -3  18   16.96    2.44
   6   3 -18   18.45    2.86
   6   3 -17   29.72    2.53
   6   3 -17   33.25    3.35
   6   3 -17   34.00    3.71
   6  -3  17   29.86    3.10
   6   3 -16  126.96    5.08
   6  -3  16  132.67    6.18
   6   3 -15  642.50   12.67
   6   3 -15  656.48   15.27
   6  -3  15  661.74   14.90
   6   3 -14   74.25    3.57
  -6  -3 -14   74.17    3.49
   6   3 -14   71.60    4.45
   6  -3  14   81.71    4.59
   6   3 -13  144.40    4.90
  -6  -3 -13  148.62    5.13
   6   3 -13  164.47    6.53
   6   3 -13  159.38    6.99
   6  -3  13  147.79    6.10
  -6  -3 -12  298.29    7.71
   6   3 -12  296.01    8.75
   6   3 -12  296.46    9.57
   6  -3  12  303.69    8.84
  -6  -3 -11   50.47    3.08
   6   3 -11   53.65    3.42
   6   3 -11   48.69    3.65
   6  -3  11   52.70    3.44
  -6  -3 -10   51.82    3.00
  -6  -3 -10   59.78    3.36
   6   3 -10   57.97    3.43
   6   3 -10   60.32    3.96
   6  -3  10   63.42    3.66
  -6  -3  -9   22.28    2.00
  -6   3   9   21.08    2.22
  -6  -3  -9   24.94    2.33
   6   3  -9   22.58    2.11
   6  -3   9   25.45    2.36
   6   3  -9   21.91    2.37
  -6  -3  -8    2.18    0.80
  -6   3   8    1.70    0.87
   6  -3   8    4.12    0.85
  -6  -3  -8    3.66    1.55
   6   3  -8    2.10    0.81
   6  -3   8    0.88    0.80
   6   3  -8    2.19    0.99
   6  -3   7   62.55    2.80
  -6  -3  -7   56.45    3.16
  -6   3   7   62.09    3.44
  -6  -3  -7   57.91    3.20
  -6  -3  -7   57.48    3.42
   6   3  -7   62.74    3.09
   6   3  -7   63.39    3.69
   6  -3   7   54.11    3.25
   6  -3   6  291.94    6.45
  -6   3   6  278.91    7.72
  -6  -3  -6  277.37    7.52
   6   3  -6  298.52    7.66
  -6  -3  -6  293.67    7.34
  -6  -3  -6  291.57    7.83
   6   3  -6  288.32    6.87
   6   3  -6  290.01    8.06
   6  -3   6  291.82    7.72
   6  -3   5  270.75    5.90
  -6   3   5  257.87    7.31
  -6  -3  -5  252.64    7.13
   6   3  -5  263.99    7.03
  -6  -3  -5  259.66    6.68
  -6  -3  -5  257.84    7.39
   6   3  -5  251.21    6.07
   6  -3   5  267.69    7.26
   6   3  -5  261.24    7.42
  -6   3   4  792.29   14.41
   6  -3   4  832.85   11.99
  -6  -3  -4  825.70   14.52
   6   3  -4  815.93   13.85
  -6  -3  -4  811.60   13.09
  -6  -3  -4  783.19   14.38
   6   3  -4  830.10   14.29
   6   3  -4  795.80   14.32
   6  -3   4  794.52   13.92
   6   3  -3  189.39    5.76
  -6   3   3  199.27    6.31
   6  -3   3  194.25    4.50
  -6  -3  -3  177.05    5.95
   6   3  -3  186.37    5.64
  -6  -3  -3  187.82    5.14
   6   3  -3  175.62    3.44
  -6   3   3  178.62    3.23
  -6   3   3  165.50    3.21
  -6  -3  -3  189.29    6.23
   6   3  -3  198.46    6.15
   6  -3   3  195.07    5.92
   6   3  -3  193.74    5.83
   6   3  -2   70.53    2.20
  -6   3   2   70.05    2.12
  -6  -3  -2   77.14    3.04
   6   3  -2   71.82    3.39
  -6   3   2   77.86    3.89
   6  -3   2   69.99    2.44
  -6  -3  -2   72.75    3.76
   6   3  -2   75.84    3.42
   6   3  -2   69.08    3.30
   6  -3   2   72.65    3.50
   6   3  -2   74.37    3.60
   6   3  -1  354.14    6.34
  -6   3   1  354.93    6.30
   6   3  -1  340.61    8.10
  -6   3   1  359.90    9.03
   6  -3   1  350.59    6.28
   6   3  -1  356.12    8.18
  -6  -3  -1  362.52    9.06
   6  -3   1  357.43    8.45
   6   3  -1  356.92    8.00
   6   3  -1  351.29    8.42
   6   3   0 1065.82   15.14
  -6   3   0 1072.80   15.16
   6   3   0 1037.54   17.17
  -6   3   0 1133.46   18.74
   6   3   0 1132.48   17.44
   6  -3   0 1064.65   14.53
  -6  -3   0 1123.06   18.82
   6   3   0 1060.29   16.70
   6  -3   0 1090.23   17.64
   6   3   0 1114.17   17.81
   6   3   1  331.30    6.66
  -6   3  -1  343.49    6.77
   6   3   1  336.22    7.90
  -6   3  -1  353.48    8.91
   6   3   1  336.71    7.91
   6  -3  -1  328.48    5.82
  -6  -3   1  344.12    8.99
   6   3   1  330.57    8.10
   6  -3  -1  337.99    8.20
   6   3   1  332.21    7.32
   6   3   2   81.34    3.05
  -6   3  -2   81.91    3.06
  -6   3  -2   83.18    4.05
  -6  -3   2   73.64    3.39
   6   3   2   79.61    3.54
   6  -3  -2   76.03    2.30
   6   3   2   83.73    3.77
   6   3   2   76.99    3.48
   6   3   2   73.00    3.02
   6  -3  -2   74.60    3.59
  -6   3  -3  194.45    6.42
  -6  -3   3  198.09    5.81
   6   3   3  199.06    5.84
   6  -3  -3  189.50    4.00
   6   3   3  192.10    5.16
  -6   3  -3  191.49    5.17
  -6  -3   3  198.93    6.38
   6  -3  -3  196.55    6.18
   6   3   3  199.85    5.11
   6   3   3  200.24    5.81
   6   3   3  193.09    5.94
  -6  -3   4  795.09   13.89
   6   3   4  833.61   14.20
   6  -3  -4  792.57   11.15
   6   3   4  765.83   13.14
  -6   3  -4  761.95   13.09
  -6  -3   4  763.18   14.45
   6  -3  -4  827.36   14.76
   6   3   4  792.68   13.90
   6   3   4  782.60   12.45
   6   3   4  784.27   14.15
  -6  -3   5  265.76    7.02
   6   3   5  271.08    7.17
   6   3   5  267.38    6.76
  -6   3  -5  274.59    6.85
  -6  -3   5  282.80    7.59
   6   3   5  273.26    7.34
   6   3   5  259.12    7.01
  -6  -3   6  261.69    7.08
   6   3   6  267.61    7.03
  -6   3  -6  294.49    7.26
  -6  -3   6  278.79    7.52
   6   3   6  276.31    7.49
   6   3   6  277.95    7.36
   6   3   7   59.64    3.22
  -6   3  -7   57.92    3.14
  -6  -3   7   60.81    3.31
   6   3   7   56.48    3.29
   6   3   7   57.55    3.18
   6   3   8    2.70    1.04
   6   3   8    2.20    0.86
  -6  -3   8    2.51    1.05
   6   3   8    2.20    1.00
  -6  -3   9   21.90    2.02
   6   3   9   22.76    2.20
   6   3   9   19.22    2.01
  -6  -3  10   65.29    3.35
   6   3  10   60.63    3.61
   6   3  10   61.05    3.58
  -6  -3  11   51.03    2.96
   6   3  11   49.66    3.32
   6   3  11   48.20    3.22
   6  -3 -12  266.74    6.49
  -6  -3  12  295.12    7.44
   6   3  12  272.99    8.18
   6   3  12  287.67    8.52
   6  -3 -13  144.10    4.73
   6   3  13  154.09    6.11
   6   3  13  159.88    6.36
   6  -3 -14   73.09    3.44
   6   3  14   77.98    4.49
   6   3  14   75.65    4.33
   6  -3 -15  654.12   12.58
   6   3  15  676.70   15.01
   6  -3 -16  134.95    5.08
   6   3  16  135.16    6.25
   6  -3 -17   33.86    2.66
   6   3  17   30.97    3.13
   6  -3 -18   18.49    2.10
   6   3  18   16.95    2.45
   6  -3 -19  122.47    5.20
   6   3  19  122.69    6.29
   6  -3 -20   51.13    3.39
   6   3  20   52.88    4.21
   6  -3 -21  273.55    8.31
   6   3  21  297.42   10.26
   6  -3 -22  161.42    6.27
   6   3  22  162.58    7.58
   6  -3 -23  319.50    9.20
   6   3  23  335.63   11.01
   6   3  23  338.44   11.18
   6  -3 -24  120.08    5.39
   6   3  24  123.58    6.50
   6   3  25  138.83    6.84
   6   3  25  144.33    7.01
   6   3  26   96.23    5.60
   6   3  26   98.59    5.68
   6   3  27   79.37    4.97
   6   3  27   72.83    4.78
   6   3  28   85.47    4.98
   6   3  28   77.03    4.73
   6   3  29   85.19    4.75
   6   3  29   85.79    4.75
   6  -4  29   49.24    3.57
   6  -4  29   55.54    3.91
   6  -4  28  314.84    9.58
   6  -4  28  310.41    9.82
   6  -4  27  303.25    9.72
   6  -4  27  317.63   10.26
   6  -4  26   93.20    5.35
   6  -4  26   85.02    5.39
   6  -4  25   28.85    3.32
   6  -4  25   31.42    3.23
   6   4 -24   22.23    3.14
   6  -4  24   23.52    3.11
   6  -4  24   22.96    2.90
   6   4 -23  287.31    8.81
   6   4 -23  311.12   11.24
   6  -4  23  315.67   10.92
   6  -4  23  315.04   10.52
   6   4 -22  318.52    9.34
   6   4 -22  352.97   12.00
   6  -4  22  335.65   11.36
   6  -4  22  341.30   11.08
   6   4 -21  760.17   15.93
   6   4 -21  812.87   19.36
   6   4 -21  790.81   19.87
   6  -4  21  822.60   18.89
   6  -4  21  856.19   18.64
   6   4 -20  493.07   11.97
   6   4 -20  520.21   14.70
   6  -4  20  528.83   14.36
   6   4 -20  503.04   15.16
   6  -4  20  518.73   13.83
   6   4 -19   66.58    3.96
   6   4 -19   66.86    4.96
   6   4 -19   68.02    5.29
   6  -4  19   69.90    4.95
   6  -4  19   69.11    4.67
   6   4 -18  110.46    5.04
   6   4 -18  113.37    6.32
   6   4 -18  110.74    6.67
   6  -4  18  119.61    6.33
   6  -4  18  122.43    6.15
   6   4 -17   57.76    3.54
   6   4 -17   67.07    4.75
   6   4 -17   62.76    4.93
   6  -4  17   68.27    4.71
   6  -4  17   70.68    4.56
   6   4 -16  128.36    5.18
   6   4 -16  136.77    6.59
   6   4 -16  124.90    6.83
   6  -4  16  138.50    6.56
   6  -4  16  140.70    6.31
   6  -4  15   11.71    2.07
   6   4 -15   11.19    1.62
   6   4 -15   13.36    2.18
   6  -4  15   14.15    2.12
   6   4 -14  879.53   15.71
  -6  -4 -14  890.04   15.49
   6   4 -14  894.27   18.31
   6  -4  14  921.57   18.55
   6  -4  14  943.54   18.10
   6   4 -13  265.03    7.13
  -6  -4 -13  278.43    7.45
   6   4 -13  283.00    8.95
   6  -4  13  293.32    9.21
   6  -4  13  291.17    8.78
  -6  -4 -12 2361.48   32.93
   6   4 -12 2376.46   35.11
   6  -4  12 2401.76   34.81
   6   4 -12 2362.67   36.83
   6  -4  12 2408.87   35.64
  -6  -4 -11  761.51   14.18
   6   4 -11  738.87   15.13
   6  -4  11  774.37   15.26
   6   4 -11  781.75   16.70
   6  -4  11  776.27   15.85
  -6  -4 -10  355.90    8.76
   6   4 -10  358.85    9.27
   6  -4  10  347.26    9.22
   6   4 -10  354.73   10.26
   6  -4  10  349.51    9.62
  -6  -4  -9  102.76    4.24
  -6   4   9  115.79    4.91
  -6  -4  -9  112.23    4.69
   6   4  -9  110.50    4.65
   6  -4   9  113.45    4.83
   6  -4   9  115.75    5.14
   6   4  -9  107.30    5.23
   6  -4   8   27.38    1.88
  -6   4   8   27.21    2.38
  -6  -4  -8   26.53    2.19
  -6  -4  -8   25.60    2.36
   6   4  -8   25.84    2.18
   6  -4   8   26.59    2.31
   6   4  -8   32.07    2.80
   6  -4   8   29.21    2.55
  -6   4   7 1201.06   20.14
   6  -4   7 1248.41   18.00
  -6  -4  -7 1208.48   19.74
  -6  -4  -7 1241.29   20.01
   6   4  -7 1268.64   19.46
   6   4  -7 1276.22   21.35
   6  -4   7 1264.37   20.23
   6  -4   7 1254.90   20.80
  -6   4   6  941.17   16.63
   6  -4   6  943.57   14.16
  -6  -4  -6  932.51   16.28
  -6  -4  -6  965.31   16.26
  -6  -4  -6  935.94   16.34
   6   4  -6  945.48   15.34
   6  -4   6  933.00   16.32
   6  -4   6  944.72   17.00
   6   4  -6  922.05   17.11
  -6   4   5  547.71   11.54
   6  -4   5  561.57    9.24
  -6  -4  -5  528.38   11.25
  -6  -4  -5  565.02   11.04
  -6  -4  -5  571.07   11.55
   6   4  -5  565.96   10.24
   6  -4   5  558.52   11.80
   6  -4   5  560.32   11.31
   6   4  -5  556.59   11.87
  -6   4   4 3015.16   40.62
   6  -4   4 3005.25   36.67
  -6  -4  -4 3043.88   40.30
   6   4  -4 2925.74   35.64
  -6  -4  -4 3021.99   40.23
   6   4  -4 3035.15   40.57
   6  -4   4 3082.09   40.04
   6  -4   4 3020.54   40.69
   6   4  -3 1369.91   20.31
  -6   4   3 1326.18   21.24
   6  -4   3 1300.01   17.32
   6   4  -3 1295.20   17.27
  -6  -4  -3 1325.02   20.84
   6   4  -3 1357.17   20.94
   6  -4   3 1332.78   20.55
   6  -4   3 1396.34   21.33
   6   4  -3 1330.31   20.92
  -6   4   2  816.02   11.61
   6   4  -2  773.61   11.63
   6   4  -2  775.82   13.70
  -6   4   2  793.69   14.87
   6  -4   2  755.64   10.92
   6   4  -2  831.26   14.42
  -6  -4  -2  748.52   14.61
   6  -4   2  784.30   14.07
   6   4  -2  789.91   14.15
   6   4  -2  778.21   14.31
   6  -4   2  811.42   14.72
  -6   4   1  966.47   14.03
   6   4  -1  996.92   14.20
   6  -4   1  983.95   16.99
   6   4  -1  971.09   15.85
  -6   4   1  962.81   17.18
   6  -4   1  927.54   12.68
   6   4  -1 1032.95   16.69
  -6  -4  -1  939.39   17.16
   6   4  -1  957.18   16.06
   6  -4   1  996.40   16.39
   6   4  -1  990.60   16.55
   6   4   0  271.65    6.88
  -6   4   0  297.00    8.07
   6  -4   0  277.34    7.65
   6   4   0  277.79    7.34
   6  -4   0  254.60    4.45
  -6  -4   0  298.49    8.25
  -6   4   0  276.89    5.97
   6   4   0  282.05    6.05
  -6  -4   0  287.15    7.68
   6   4   0  272.00    6.99
   6  -4   0  280.59    7.33
   6   4   0  272.09    7.24
   6   4   1  943.84   15.55
   6  -4  -1 1016.88   17.05
  -6   4  -1 1000.75   17.35
   6   4   1 1000.96   16.38
  -6   4  -1  994.11   14.66
   6   4   1  968.74   14.63
  -6  -4   1 1016.74   16.82
   6   4   1  954.94   16.15
   6   4   1  970.03   15.58
   6  -4  -1  989.02   16.32
   6   4   2  761.40   12.96
   6  -4  -2  802.13   14.39
  -6  -4   2  758.05   13.48
  -6   4  -2  794.24   12.45
   6   4   2  781.54   12.43
  -6  -4   2  781.33   14.02
   6   4   2  791.58   12.94
   6   4   2  767.92   13.60
   6  -4  -2  762.14   13.75
   6  -4  -3 1383.72   21.90
  -6  -4   3 1326.68   20.93
  -6   4  -3 1442.69   19.98
   6   4   3 1299.04   19.73
  -6  -4   3 1333.15   21.23
   6   4   3 1384.69   20.11
   6  -4  -3 1374.21   21.39
   6   4   3 1326.65   20.83
   6   4   3 1330.56   20.29
  -6   4  -4 3074.87   39.33
   6   4   4 2998.49   39.23
  -6  -4   4 3032.19   40.41
   6   4   4 2939.36   40.00
   6   4   4 3047.40   39.49
   6  -4  -5  595.94   12.50
  -6   4  -5  552.48   11.00
   6   4   5  546.76   10.97
  -6  -4   5  583.44   11.68
   6   4   5  549.77   10.98
   6   4   5  578.47   11.59
   6   4   6  902.01   15.88
  -6   4  -6  927.49   16.05
  -6  -4   6  969.69   16.40
   6   4   6  939.45   16.32
   6   4   6  967.08   16.01
   6   4   7 1178.54   19.66
  -6   4  -7 1219.55   19.81
  -6  -4   7 1251.09   19.84
   6   4   7 1228.87   19.46
   6   4   7 1247.76   20.06
  -6  -4   8   24.36    2.22
   6   4   8   27.39    2.33
  -6  -4   9  116.64    4.64
   6   4   9  117.06    4.75
   6   4   9  115.08    4.94
  -6  -4  10  346.64    8.50
   6   4  10  342.20    9.14
   6   4  10  334.90    8.77
  -6  -4  11  734.30   13.69
   6   4  11  735.84   14.87
   6   4  11  739.94   14.52
   6  -4 -12 2350.48   31.21
  -6  -4  12 2295.93   32.00
   6   4  12 2330.62   34.07
   6   4  12 2262.54   33.47
   6  -4 -13  324.73    7.79
   6   4  13  324.97    9.42
   6   4  13  318.70    9.07
   6  -4 -14  904.07   15.54
   6   4  14  896.88   17.40
   6   4  14  880.66   17.68
   6  -4 -15   22.22    2.06
   6   4  15   22.60    2.53
   6   4  15   18.46    2.35
   6  -4 -16  136.61    5.21
   6   4  16  130.92    5.97
   6   4  16  138.31    6.28
   6  -4 -17   70.04    3.80
   6   4  17   67.09    4.36
   6   4  17   68.22    4.53
   6  -4 -18  118.42    5.08
   6   4  18  110.35    5.70
   6   4  18  118.89    6.05
   6  -4 -19   70.36    3.95
   6   4  19   63.35    4.41
   6   4  19   65.36    4.59
   6  -4 -20  500.30   11.80
   6   4  20  507.89   13.48
   6   4  20  540.09   14.04
   6  -4 -21  757.72   15.46
   6   4  21  770.00   17.44
   6   4  21  788.21   17.89
   6  -4 -22  346.11    9.66
   6   4  22  356.37   11.16
   6   4  22  363.64   11.44
   6  -4 -23  291.96    8.79
   6   4  23  303.85   10.22
   6   4  23  307.18   10.40
   6   4  24   24.47    2.97
   6   4  24   22.57    2.94
   6   4  25   26.47    3.01
   6   4  25   24.34    2.93
   6   4  26  101.92    5.62
   6   4  26   90.35    5.27
   6   4  27  324.69   10.05
   6   4  27  292.64    9.47
   6   4  28  318.81    9.65
   6   4  28  307.81    9.31
   6  -5  28   68.23    4.14
   6  -5  28   68.93    4.37
   6  -5  27   13.83    2.29
   6  -5  27   14.06    2.21
   6  -5  26   66.29    4.40
   6  -5  26   68.56    4.70
   6   5 -25   48.84    4.31
   6  -5  25   38.54    3.54
   6  -5  25   44.04    3.89
   6   5 -24   56.10    4.66
   6  -5  24   53.23    4.13
   6  -5  24   56.21    4.43
   6   5 -23  128.96    5.72
   6   5 -23  157.55    7.79
   6  -5  23  153.67    7.38
   6  -5  23  150.21    6.98
   6  -5  22    2.24    1.49
   6   5 -22    2.39    1.18
   6   5 -22    2.01    1.49
   6  -5  22    2.58    1.45
   6   5 -22    3.14    1.88
   6   5 -21  131.48    5.81
   6   5 -21  128.26    7.05
   6   5 -21  135.41    7.68
   6  -5  21  137.08    6.98
   6  -5  21  136.01    6.65
   6   5 -20  446.90   11.45
   6   5 -20  477.98   14.08
   6   5 -20  474.71   14.71
   6  -5  20  494.93   13.84
   6  -5  20  477.46   13.08
   6   5 -19  157.74    6.26
   6   5 -19  161.00    7.72
   6  -5  19  158.65    7.44
   6   5 -19  165.46    8.28
   6  -5  19  174.29    7.41
   6   5 -18   70.23    4.05
   6   5 -18   85.12    5.49
   6   5 -18   74.28    5.46
   6  -5  18   76.90    5.09
   6  -5  18   76.90    4.86
   6   5 -17   37.19    2.99
   6   5 -17   44.77    3.94
   6   5 -17   46.58    4.22
   6  -5  17   41.12    3.63
   6  -5  17   41.26    3.50
   6   5 -16   25.65    2.45
   6   5 -16   24.03    2.91
   6   5 -16   25.59    3.14
   6  -5  16   29.88    3.17
   6  -5  16   28.22    2.90
   6   5 -15  762.94   17.06
   6  -5  15  769.42   16.91
   6  -5  15  762.10   16.26
  -6  -5 -14  399.50    9.41
   6   5 -14  404.57   11.45
   6  -5  14  416.08   11.02
   6  -5  14  417.97   11.58
  -6  -5 -13  115.02    4.71
   6   5 -13  112.42    5.55
   6  -5  13  106.25    5.16
   6  -5  13  119.73    5.75
   6   5 -12  267.64    8.62
  -6  -5 -12  286.84    7.85
   6  -5  12  285.26    8.50
   6  -5  12  301.31    9.17
   6   5 -11   70.94    4.15
  -6  -5 -11   74.31    3.84
   6  -5  11   76.92    4.41
   6  -5  11   74.05    4.05
   6   5 -11   72.14    4.66
   6   5 -10   13.63    1.89
  -6  -5 -10   13.17    1.81
   6  -5  10   15.17    2.03
   6   5 -10   16.71    2.24
   6  -5  10   17.26    2.00
   6   5  -9   64.48    3.63
  -6  -5  -9   63.14    3.54
   6  -5   9   62.80    3.58
   6   5  -9   59.50    4.05
   6  -5   9   60.24    3.79
  -6  -5  -8  224.41    6.61
   6   5  -8  240.66    7.00
  -6  -5  -8  245.29    7.20
   6  -5   8  247.07    7.22
   6   5  -8  232.07    7.91
   6  -5   8  252.12    7.70
   6  -5   7   82.28    3.00
  -6  -5  -7   72.13    3.65
   6   5  -7   73.89    3.58
  -6  -5  -7   69.81    3.85
   6  -5   7   81.61    3.94
   6   5  -7   82.33    4.45
   6  -5   7   83.24    4.21
   6  -5   6   13.61    1.16
  -6  -5  -6   11.81    1.59
  -6  -5  -6   15.72    2.00
   6   5  -6   14.57    1.60
   6   5  -6   13.99    1.94
   6  -5   6   17.24    1.83
   6  -5   6   16.72    1.95
   6  -5   5  255.08    5.18
  -6  -5  -5  249.46    7.23
   6   5  -5  247.40    6.36
  -6  -5  -5  241.85    7.26
   6  -5   5  253.43    7.02
   6  -5   5  261.31    7.57
   6   5  -5  263.56    7.85
   6  -5   4  680.43   10.01
  -6  -5  -4  706.50   13.68
   6   5  -4  680.38   10.63
  -6  -5  -4  713.73   13.68
   6  -5   4  717.09   13.17
   6   5  -4  688.83   13.82
   6  -5   4  705.45   13.77
   6  -5   3  139.85    3.05
  -6  -5  -3  146.35    5.51
   6   5  -3  148.69    4.00
  -6  -5  -3  154.45    5.63
   6   5  -3  153.30    5.57
   6  -5   3  155.77    5.22
   6  -5   3  152.81    5.55
   6   5  -2  122.14    3.71
   6  -5   2  137.56    5.17
   6  -5   2  109.36    2.30
  -6  -5  -2  120.02    5.01
   6   5  -2  127.19    4.92
   6   5  -2  134.93    4.93
   6  -5   2  136.08    4.82
  -6   5   1   16.94    1.38
   6   5  -1   18.48    1.49
   6  -5   1   17.67    1.91
   6   5  -1   17.64    1.63
  -6  -5  -1   16.70    1.99
   6  -5   1   16.81    1.77
   6   5  -1   19.26    1.96
   6   5  -1   19.72    1.91
   6   5   0   14.25    1.48
  -6   5   0   14.12    1.33
   6   5   0   14.44    1.38
  -6  -5   0   12.03    1.83
   6   5   0   16.19    1.78
   6  -5   0   16.85    1.77
   6   5   0   15.55    1.73
   6   5   1   19.93    1.72
   6  -5  -1   20.66    2.08
  -6   5  -1   19.03    1.59
   6   5   1   18.44    1.59
  -6  -5   1   17.73    2.08
   6   5   1   20.74    2.00
   6   5   1   21.57    1.98
   6  -5  -1   20.22    1.95
   6  -5  -2  133.92    5.28
   6   5   2  128.96    4.45
  -6   5  -2  139.34    4.52
   6   5   2  132.52    4.46
  -6  -5   2  133.38    5.16
   6  -5  -2  133.46    4.95
   6   5   2  139.78    4.96
   6  -5  -3  145.12    5.55
   6   5   3  139.76    4.63
  -6   5  -3  141.59    4.76
   6   5   3  140.31    4.76
  -6  -5   3  143.77    5.39
   6   5   3  143.21    5.07
   6  -5  -4  732.91   14.42
  -6   5  -4  701.70   13.02
   6   5   4  706.77   13.08
  -6  -5   4  711.58   13.87
   6   5   4  721.30   13.39
   6   5   4  719.14   12.69
  -6   5  -5  241.34    6.91
   6   5   5  241.58    6.91
  -6  -5   5  259.96    7.46
   6   5   5  259.42    7.13
   6   5   5  252.92    6.61
  -6  -5   6   17.60    1.98
   6   5   6   16.37    1.68
   6   5   6   15.06    1.75
  -6  -5   7   81.42    4.00
   6   5   7   81.21    3.93
   6   5   7   73.07    3.50
  -6  -5   8  245.00    7.15
   6   5   8  233.40    7.05
   6   5   8  238.06    6.74
   6   5   9   53.66    3.33
   6   5   9   53.49    3.15
   6  -5 -10   16.54    1.54
  -6  -5  10   15.06    1.85
   6   5  10   19.21    2.05
   6   5  10   17.90    1.95
   6  -5 -11   71.78    3.21
  -6  -5  11   76.40    3.84
   6   5  11   71.62    4.05
   6   5  11   69.55    3.80
   6  -5 -12  274.76    6.94
  -6  -5  12  257.17    7.35
   6   5  12  271.27    8.31
   6   5  12  269.30    7.96
   6  -5 -13  117.50    4.49
   6   5  13  114.12    5.32
   6   5  13  119.85    5.26
   6  -5 -14  417.56    9.56
   6   5  14  416.62   11.06
   6   5  14  410.99   10.66
   6  -5 -15  762.87   14.45
   6   5  15  770.39   16.31
   6   5  15  765.25   15.87
   6  -5 -16   32.77    2.64
   6   5  16   29.63    2.91
   6   5  16   33.84    3.09
   6  -5 -17   38.94    2.95
   6   5  17   35.67    3.26
   6   5  17   40.43    3.45
   6  -5 -18   82.08    4.37
   6   5  18   83.46    4.89
   6   5  18   94.18    5.35
   6  -5 -19  171.04    6.46
   6   5  19  176.79    7.27
   6   5  19  173.57    7.41
   6  -5 -20  496.28   11.95
   6   5  20  486.01   12.96
   6   5  20  501.48   13.39
   6  -5 -21  135.97    5.80
   6   5  21  136.20    6.49
   6   5  21  132.84    6.61
   6  -5 -22    4.15    1.18
   6   5  22    3.30    1.49
   6   5  22    1.46    1.22
   6  -5 -23  144.40    5.94
   6   5  23  150.69    6.97
   6   5  23  136.98    6.53
   6   5  24   60.39    4.42
   6   5  24   57.35    4.21
   6   5  25   46.03    3.85
   6   5  25   36.69    3.42
   6   5  26   62.05    4.30
   6   5  26   60.99    4.16
   6   5  27   14.08    2.22
   6   5  27   15.71    2.21
   6   5  28   62.23    3.98
   6  -6  27   54.63    3.68
   6  -6  27   55.42    3.92
   6   6 -26   82.51    5.27
   6  -6  26   82.84    4.96
   6  -6  26   79.53    4.56
   6   6 -25  152.07    7.40
   6  -6  25  144.34    6.75
   6  -6  25  141.14    6.31
   6  -6  24    9.85    2.15
   6   6 -24    5.59    1.90
   6  -6  24    7.13    1.84
   6   6 -23  333.14   11.52
   6  -6  23  306.23   10.02
   6  -6  23  336.45   10.92
   6   6 -22  394.34   10.64
   6   6 -22  428.19   13.29
   6  -6  22  411.51   11.88
   6   6 -22  443.29   14.11
   6  -6  22  425.47   12.62
   6   6 -21  452.16   11.63
   6   6 -21  480.22   14.23
   6  -6  21  492.35   13.13
   6   6 -21  490.54   15.10
   6  -6  21  495.62   13.78
   6   6 -20  664.71   14.67
   6   6 -20  689.99   17.50
   6  -6  20  712.41   16.25
   6   6 -20  694.75   18.41
   6  -6  20  719.26   17.06
   6   6 -19  308.60    9.17
   6   6 -19  309.57   11.05
   6  -6  19  330.09   10.32
   6   6 -19  321.28   11.88
   6  -6  19  349.24   11.14
   6   6 -18  449.07   11.38
   6   6 -18  484.92   13.91
   6  -6  18  499.94   12.92
   6   6 -18  489.79   14.93
   6  -6  18  507.12   13.65
   6   6 -17  235.02    7.69
   6   6 -17  250.65    9.48
   6  -6  17  257.74    8.82
   6   6 -17  262.15   10.42
   6  -6  17  269.60    9.47
   6   6 -16  262.48    9.54
   6  -6  16  247.71    8.51
   6   6 -16  259.24   10.23
   6  -6  16  260.25    9.21
   6   6 -15  106.36    5.81
   6  -6  15  104.54    5.29
   6   6 -15  103.25    6.21
   6  -6  15  105.00    5.60
   6   6 -14  462.29   12.60
  -6  -6 -14  471.67   10.70
   6  -6  14  490.34   12.71
   6  -6  14  477.43   11.93
   6   6 -13  259.32    8.80
  -6  -6 -13  255.31    7.53
   6  -6  13  262.74    8.83
   6  -6  13  263.65    8.31
   6   6 -12  343.24   10.08
  -6  -6 -12  361.73    9.23
   6  -6  12  357.65   10.23
   6  -6  12  356.80    9.70
  -6  -6 -11  119.97    5.07
   6   6 -11  116.99    5.45
   6  -6  11  122.16    5.26
   6  -6  11  123.70    5.62
   6   6 -10  359.27    9.76
  -6  -6 -10  370.56    9.55
   6   6 -10  369.36   11.03
   6  -6  10  396.46   10.39
   6  -6  10  384.93    9.71
   6   6  -9  153.31    5.85
  -6  -6  -9  157.72    5.93
   6  -6   9  163.86    5.89
   6  -6   9  162.37    6.24
   6   6  -9  164.63    6.92
   6   6  -8  300.33    8.19
  -6  -6  -8  291.57    8.23
   6   6  -8  287.79    9.18
   6  -6   8  293.20    8.00
   6  -6   8  301.10    8.65
  -6  -6  -7  502.69   11.26
   6   6  -7  470.76   10.46
   6  -6   7  488.20   11.30
   6   6  -7  470.95   12.00
   6  -6   7  485.26   10.63
  -6  -6  -6  198.86    6.46
  -6  -6  -6  220.15    7.00
   6   6  -6  206.93    6.23
   6  -6   6  228.86    7.14
   6  -6   6  223.65    6.59
   6   6  -6  216.14    7.49
  -6  -6  -5  198.34    6.45
  -6  -6  -5  203.93    6.71
   6   6  -5  197.17    5.76
   6  -6   5  194.32    6.54
   6  -6   5  201.33    6.16
   6   6  -5  203.93    7.12
  -6  -6  -4 1063.56   18.50
   6   6  -4 1058.52   16.55
   6  -6   4 1099.12   17.61
   6  -6   4 1065.16   18.38
   6   6  -4 1071.98   19.07
   6  -6   3 1533.30   23.81
   6   6  -3 1461.78   20.96
  -6  -6  -3 1547.75   24.02
   6   6  -3 1542.76   24.38
   6  -6   3 1531.90   22.76
   6   6  -2  692.26   11.96
   6  -6   2  740.45   14.16
   6  -6   2  720.83   13.20
   6   6  -2  711.79   14.19
   6   6  -1  268.43    6.59
   6  -6   1  279.72    7.93
   6   6  -1  278.58    7.96
   6  -6   1  293.84    7.44
   6   6  -1  285.79    7.47
   6  -6   0  105.05    4.69
   6   6   0   99.15    3.84
  -6  -6   0  103.37    4.69
   6   6   0  111.99    4.84
   6  -6   0  104.33    4.22
   6   6   0  111.19    4.38
   6  -6  -1  292.92    8.08
  -6  -6   1  266.14    6.91
  -6   6  -1  270.25    6.79
   6   6   1  255.64    6.75
  -6  -6   1  271.89    7.87
   6  -6  -1  279.01    7.36
   6   6   1  271.13    7.21
   6  -6  -2  719.51   14.26
  -6  -6   2  740.29   12.83
  -6   6  -2  692.81   12.80
   6   6   2  691.16   12.94
  -6  -6   2  698.43   14.10
   6   6   2  720.02   13.25
  -6  -6   3 1521.44   21.95
   6  -6  -3 1565.07   24.46
  -6   6  -3 1523.42   22.87
   6   6   3 1477.66   22.80
  -6  -6   3 1549.80   24.15
   6   6   3 1519.08   22.91
  -6  -6   4 1052.79   18.63
   6   6   4 1097.11   17.83
  -6  -6   5  202.06    6.68
   6   6   5  194.88    6.09
  -6  -6   6  203.67    6.75
   6   6   6  215.49    6.50
  -6  -6   7  506.30   11.35
   6   6   7  496.38   10.83
   6  -6  -8  276.31    6.59
  -6  -6   8  281.41    8.06
   6   6   8  294.37    7.98
   6   6   8  281.82    7.27
   6  -6  -9  142.06    4.60
  -6  -6   9  135.57    5.41
   6   6   9  150.17    5.62
   6   6   9  140.55    5.06
   6  -6 -10  368.43    8.23
  -6  -6  10  382.15    9.53
   6   6  10  369.14    8.96
   6   6  10  379.07    9.64
   6  -6 -11  132.43    4.68
  -6  -6  11  128.52    5.21
   6   6  11  134.08    5.55
   6   6  11  124.73    4.99
   6  -6 -12  370.90    8.64
  -6  -6  12  349.45    9.08
   6   6  12  374.87    9.44
   6   6  12  362.90    9.81
   6  -6 -13  258.31    7.18
  -6  -6  13  263.62    7.57
   6   6  13  250.56    8.14
   6   6  13  249.32    7.69
   6  -6 -14  482.70   10.61
   6   6  14  471.26   11.85
   6   6  14  462.46   11.27
   6  -6 -15  107.54    4.70
   6   6  15  117.16    5.60
   6   6  15  106.98    5.13
   6  -6 -16  244.41    7.46
   6   6  16  255.34    8.58
   6   6  16  236.58    7.95
   6  -6 -17  228.21    7.34
   6   6  17  245.81    8.52
   6   6  17  234.59    8.02
   6  -6 -18  500.42   11.63
   6   6  18  465.61   12.57
   6   6  18  502.03   12.50
   6  -6 -19  275.49    8.34
   6   6  19  282.76    9.47
   6   6  19  291.84    9.23
   6  -6 -20  655.43   14.06
   6   6  20  672.13   15.65
   6   6  20  659.86   15.08
   6  -6 -21  454.65   11.22
   6   6  21  460.12   12.58
   6   6  21  467.61   12.26
   6  -6 -22  407.36   10.48
   6   6  22  412.39   11.77
   6   6  22  422.88   11.53
   6   6  23  299.46    9.82
   6   6  23  309.86    9.60
   6   6  24    7.94    1.86
   6   6  25  152.75    6.62
   6   6  26   81.40    4.67
   6   6  27   76.74    4.42
   6  -7  26    1.77    1.16
   6   7 -26    2.42    1.37
  -6  -7 -26    1.48    1.32
   6  -7  25    6.72    1.77
   6   7 -25    6.55    1.94
   6   7 -24   52.63    4.41
   6  -7  24   57.16    3.97
   6  -7  24   55.55    4.17
   6   7 -23   58.02    4.70
   6  -7  23   47.66    3.73
   6  -7  23   54.55    4.23
   6   7 -23   51.86    4.60
   6  -7  22   10.87    2.16
   6   7 -22    8.34    2.18
   6  -7  22    9.47    1.94
   6   7 -22   13.20    2.49
   6   7 -21  150.33    6.25
   6   7 -21  154.32    7.72
   6  -7  21  163.50    6.90
   6  -7  21  169.91    7.51
   6   7 -21  163.31    8.38
   6   7 -20   27.68    2.76
   6   7 -20   29.07    3.39
   6  -7  20   27.03    3.15
   6  -7  20   25.54    2.74
   6   7 -20   33.73    3.87
   6   7 -19   20.33    2.31
   6   7 -19   28.84    3.44
   6  -7  19   24.60    2.99
   6  -7  19   23.17    2.69
   6   7 -19   25.94    3.43
   6   7 -18  129.57    5.76
   6   7 -18  136.27    7.07
   6  -7  18  142.94    6.80
   6  -7  18  140.10    6.31
   6   7 -18  139.53    7.66
   6   7 -17   87.54    5.60
   6  -7  17   83.71    4.77
   6   7 -17   87.68    6.04
   6  -7  17   91.71    5.39
   6   7 -16  439.14   12.77
   6  -7  16  415.97   11.20
   6  -7  16  415.02   11.92
   6   7 -16  422.69   13.59
   6   7 -15   93.33    5.55
   6  -7  15   91.65    4.90
   6  -7  15   96.53    5.38
   6   7 -15   93.24    6.02
   6   7 -14   26.91    3.12
  -6  -7 -14   33.29    2.78
   6  -7  14   32.67    3.21
   6  -7  14   39.67    3.19
   6   7 -14   33.24    3.69
   6   7 -13  186.84    7.60
  -6  -7 -13  203.90    6.86
   6  -7  13  211.16    7.83
   6  -7  13  214.96    7.31
   6   7 -12  133.45    6.18
  -6  -7 -12  133.74    5.51
   6  -7  12  138.08    5.68
   6  -7  12  136.39    6.10
   6   7 -11  108.35    5.36
  -6  -7 -11  110.45    5.01
   6  -7  11  109.19    4.89
   6  -7  11  111.25    5.39
   6   7 -10   51.14    3.60
  -6  -7 -10   47.07    3.30
   6  -7  10   46.98    3.17
   6  -7  10   48.51    3.51
  -6  -7  -9   35.30    2.87
   6   7  -9   29.56    2.71
   6  -7   9   33.07    2.61
   6   7  -9   31.88    3.26
   6  -7   9   37.24    3.07
  -6  -7  -8   52.26    3.47
   6   7  -8   49.95    3.32
   6   7  -8   46.19    3.74
   6  -7   8   49.00    3.39
   6  -7   8   48.85    3.07
  -6  -7  -7   47.58    3.33
   6   7  -7   49.42    3.19
   6  -7   7   46.47    3.27
   6   7  -7   50.56    3.79
   6  -7   7   48.73    3.02
  -6  -7  -6   90.13    4.55
   6   7  -6   86.31    4.03
   6  -7   6   85.02    4.36
   6   7  -6   88.35    4.91
   6  -7   6   86.43    3.95
  -6  -7  -5   99.57    4.81
   6   7  -5  100.64    4.19
   6  -7   5  104.08    4.29
   6  -7   5  104.08    4.75
   6   7  -5  107.25    5.30
   6  -7   4  417.08   10.17
  -6  -7  -4  421.13   10.58
   6   7  -4  420.36    9.21
   6   7  -4  431.08   11.15
   6  -7   4  435.52    9.52
   6  -7   3   33.91    2.67
  -6  -7  -3   34.21    2.90
   6  -7   3   32.03    2.35
   6   7  -3   29.96    2.79
   6  -7   2   31.38    2.59
   6   7  -2   28.14    2.70
   6  -7   2   29.03    2.22
   6  -7   1  246.45    7.46
   6   7  -1  271.73    8.24
   6  -7   1  259.92    6.94
   6  -7   0   37.30    2.80
  -6  -7   0   36.90    2.64
   6   7   0   37.87    2.50
  -6  -7   0   39.45    3.05
   6  -7   0   39.31    2.56
   6   7   0   37.00    2.51
  -6  -7   1  239.16    6.85
   6  -7  -1  243.02    7.42
  -6  -7   1  253.37    7.80
   6   7   1  230.30    6.58
  -6  -7   2   28.17    2.25
   6  -7  -2   32.36    2.65
  -6  -7   2   28.06    2.59
   6   7   2   29.27    2.23
   6  -7  -3   34.72    2.78
  -6  -7   3   29.56    2.24
  -6  -7   3   28.55    2.67
   6   7   3   34.27    2.42
  -6  -7   4  419.90   10.55
   6   7   4  419.18    9.39
  -6  -7   5   94.73    4.68
   6   7   5   97.88    4.16
   6  -7  -6   83.15    3.48
   6   7   6   83.50    3.90
   6  -7  -7   45.72    2.61
  -6  -7   7   47.89    3.32
   6   7   7   48.55    3.02
   6  -7  -8   34.53    2.30
  -6  -7   8   39.76    3.05
   6   7   8   40.95    2.78
   6  -7  -9   32.72    2.31
  -6  -7   9   33.77    2.76
   6   7   9   37.53    2.73
   6  -7 -10   42.20    2.71
  -6  -7  10   46.72    3.24
   6   7  10   46.80    3.15
   6  -7 -11  106.56    4.37
  -6  -7  11  108.22    4.95
   6   7  11  104.28    4.81
   6  -7 -12  123.36    4.82
  -6  -7  12  131.18    5.39
   6   7  12  124.15    5.35
   6  -7 -13  190.88    6.28
  -6  -7  13  197.44    6.67
   6   7  13  193.61    6.94
   6  -7 -14   30.76    2.56
   6   7  14   30.84    2.80
   6  -7 -15   94.13    4.52
   6   7  15   95.29    4.98
   6  -7 -16  414.30   10.35
   6   7  16  429.38   11.33
   6  -7 -17   74.96    4.14
   6   7  17   76.24    4.50
   6  -7 -18  122.02    5.37
   6   7  18  128.49    5.99
   6  -7 -19   23.79    2.54
   6   7  19   25.20    2.73
   6  -7 -20   35.12    2.93
   6   7  20   35.47    3.19
   6  -7 -21  147.83    5.98
   6   7  21  156.26    6.73
   6   7  22   11.47    2.10
   6   7  23   54.13    3.97
   6   7  24   53.10    3.86
  -6  -8 -26  157.58    6.28
   6   8 -26  163.02    7.02
  -6  -8 -25   40.33    3.48
   6   8 -25   47.48    4.00
  -6  -8 -24  176.86    7.32
   6   8 -24  182.88    7.97
   6  -8  24  187.15    7.19
   6   8 -23  407.40   12.57
   6  -8  23  413.13   11.38
   6   8 -23  394.69   12.76
   6   8 -22  217.22    9.04
   6  -8  22  209.20    8.01
   6   8 -22  205.15    9.20
   6   8 -21  649.67   16.76
   6  -8  21  636.54   15.23
   6   8 -21  641.96   17.44
   6   8 -20   74.94    4.36
   6   8 -20   79.92    5.49
   6  -8  20   76.46    4.49
   6  -8  20   81.27    5.05
   6   8 -20   78.23    5.80
   6   8 -19  102.78    5.17
   6   8 -19  104.36    6.27
   6  -8  19  105.89    5.27
   6  -8  19  104.53    5.69
   6   8 -19  100.32    6.62
   6   8 -18  340.40   11.50
   6  -8  18  324.83    9.55
   6  -8  18  320.12   10.32
   6   8 -18  339.11   12.34
   6   8 -17  295.38   10.49
   6  -8  17  274.75    8.63
   6  -8  17  277.53    9.44
   6   8 -16  402.73   12.36
   6  -8  16  378.72   10.32
   6   8 -16  393.70   13.28
   6  -8  16  382.72   11.25
   6   8 -15   81.12    5.29
   6  -8  15   87.93    4.63
   6   8 -15   88.68    6.04
   6  -8  15   91.44    5.16
   6   8 -14  259.22    9.39
  -6  -8 -14  246.38    7.74
   6   8 -14  254.74   10.25
   6  -8  14  263.97    8.88
   6  -8  14  245.87    7.86
   6   8 -13  152.25    6.93
  -6  -8 -13  150.11    6.03
   6  -8  13  151.92    5.92
   6  -8  13  165.00    6.81
   6   8 -13  145.05    7.57
   6   8 -12  128.13    6.18
  -6  -8 -12  126.94    5.59
   6  -8  12  131.43    5.40
   6  -8  12  132.04    6.00
   6   8 -11  409.93   11.46
  -6  -8 -11  444.91   11.18
   6  -8  11  443.77   11.51
   6  -8  11  433.41   10.37
  -6  -8 -10 1201.73   21.48
   6   8 -10 1221.32   22.05
   6  -8  10 1235.52   20.37
   6  -8  10 1258.54   21.91
  -6  -8  -9  530.56   12.49
   6   8  -9  517.45   12.38
   6  -8   9  519.89   11.29
   6  -8   9  543.75   12.56
  -6  -8  -8  847.74   16.94
   6   8  -8  854.44   16.73
   6  -8   8  888.22   16.96
   6  -8   8  866.96   15.52
   6   8  -8  875.96   18.86
  -6  -8  -7  516.50   12.35
   6   8  -7  508.45   11.75
   6  -8   7  516.65   10.91
   6   8  -7  540.46   13.79
   6  -8   7  545.22   12.24
  -6  -8  -6  353.12    9.80
   6   8  -6  334.46    8.91
   6   8  -6  363.81   10.82
   6  -8   6  344.65    9.30
   6  -8   6  341.16    8.31
   6  -8   5  163.90    6.07
  -6  -8  -5  159.35    6.37
   6   8  -5  158.58    5.66
   6   8  -5  169.94    7.07
   6  -8   5  155.12    5.24
   6  -8   4    0.73    0.92
   6   8  -4    2.02    1.07
  -6  -8  -4    3.68    1.43
   6  -8   4    6.05    1.20
   6   8  -4    2.70    1.51
   6  -8   3  908.03   16.63
  -6  -8  -3  854.79   16.65
  -6  -8  -3  865.93   17.04
   6   8  -3  910.96   18.08
   6  -8   3  872.44   15.00
   6  -8   2  324.38    8.75
  -6  -8  -2  308.54    8.75
   6  -8   2  316.03    7.71
   6   8  -2  326.12    9.79
   6  -8   1  527.40   11.76
  -6  -8  -1  530.89   11.82
   6  -8   1  524.67   10.61
  -6  -8   0  504.34   11.31
   6  -8   0  487.66   11.26
  -6  -8   0  488.93   11.99
  -6  -8   1  530.26   11.64
   6  -8  -1  555.08   12.18
  -6  -8   1  536.84   12.63
   6  -8  -2  296.42    8.46
  -6  -8   2  279.51    7.82
  -6  -8   2  279.16    8.67
  -6  -8   3  892.16   16.04
  -6  -8   3  931.70   17.83
  -6  -8   4    0.83    1.12
  -6  -8   5  164.92    6.52
  -6  -8   6  309.62    9.13
  -6  -8   7  493.89   11.93
   6  -8  -7  474.07   10.13
  -6  -8   8  871.47   16.96
   6  -8  -8  848.83   15.08
  -6  -8   9  466.00   11.59
   6  -8  -9  492.89   10.53
  -6  -8  10 1225.50   21.32
   6  -8 -10 1190.51   19.54
  -6  -8  11  435.57   10.85
   6  -8 -11  400.35    9.63
  -6  -8  12  128.85    5.54
   6  -8 -12  124.08    5.06
  -6  -8  13  166.30    6.28
   6  -8 -13  156.76    5.86
   6  -8 -14  242.44    7.55
   6  -8 -15   87.89    4.44
   6  -8 -16  373.22    9.86
   6  -8 -17  265.74    8.19
   6  -8 -18  339.97    9.47
   6  -8 -19   96.25    4.80
   6  -8 -20   77.08    4.27
  -6  -9 -25   29.14    2.87
   6   9 -25   30.57    3.14
  -6  -9 -24  146.82    6.39
   6   9 -24  146.80    6.90
  -6  -9 -23   44.95    3.77
   6   9 -23   41.70    3.88
   6   9 -23   38.98    3.90
  -6  -9 -22   19.39    2.72
   6   9 -22   18.03    2.75
   6   9 -22   21.99    3.09
  -6  -9 -21   78.68    5.14
   6   9 -21   81.01    5.48
   6   9 -21   77.20    5.64
   6  -9  21   85.53    4.84
   6  -9  20    3.44    1.35
   6   9 -20    4.50    1.81
   6   9 -20    4.00    1.90
   6   9 -19   66.92    4.16
   6   9 -19   65.05    4.94
   6   9 -19   66.16    5.37
   6  -9  19   66.95    4.37
   6   9 -18   21.65    3.10
   6   9 -18   25.42    3.62
   6  -9  18   19.53    2.52
   6   9 -17  443.92   13.33
   6   9 -17  439.87   14.33
   6  -9  17  446.96   11.92
   6   9 -16   62.78    4.79
   6   9 -16   48.37    4.70
   6  -9  16   59.16    4.06
   6  -9  15    7.51    1.71
   6   9 -15    2.41    1.68
   6   9 -15    5.07    1.92
   6   9 -14   89.07    5.51
  -6  -9 -14   87.26    4.60
   6   9 -14   88.84    6.11
   6  -9  14   91.41    4.96
   6   9 -13  142.56    6.86
  -6  -9 -13  144.73    6.05
   6  -9  13  152.16    6.40
   6   9 -13  142.73    7.72
   6   9 -12  702.28   16.24
  -6  -9 -12  684.90   14.87
   6   9 -12  706.92   17.99
   6  -9  12  679.95   14.97
  -6  -9 -11  199.42    7.41
   6   9 -11  208.95    8.00
   6  -9  11  208.74    7.41
  -6  -9 -10  203.79    7.53
   6   9 -10  205.12    7.76
   6  -9  10  207.77    7.33
  -6  -9  -9  101.69    5.26
   6   9  -9   97.38    5.18
   6  -9   9  107.49    5.08
  -6  -9  -8  194.27    7.41
   6   9  -8  189.80    7.10
   6  -9   8  194.56    6.89
   6  -9   7  301.49    8.70
  -6  -9  -7  294.96    9.23
   6   9  -7  287.27    8.72
   6   9  -7  316.08   10.54
   6  -9   6    5.43    1.38
  -6  -9  -6    8.23    1.81
   6   9  -6    7.67    1.65
  -6  -9  -6    6.88    1.83
   6   9  -6   12.50    2.38
   6  -9   5   94.03    4.56
  -6  -9  -5   92.95    5.04
  -6  -9  -5   93.83    5.10
   6   9  -5   96.92    4.68
   6   9  -5   96.87    5.55
   6  -9   4   94.61    4.55
  -6  -9  -4   88.92    4.81
  -6  -9  -4   92.52    5.03
   6   9  -4  108.17    4.94
   6   9  -4   98.82    5.53
   6  -9   3    6.16    1.41
  -6  -9  -3    7.66    1.62
  -6  -9  -3    8.65    1.90
   6   9  -3    7.81    2.10
   6  -9   2   86.77    4.32
  -6  -9  -2   85.48    4.56
   6   9  -2   78.33    4.96
  -6  -9  -1  199.38    7.06
   6  -9   1  206.98    6.83
  -6  -9   0   16.40    2.16
   6  -9   0   20.46    2.12
  -6  -9   0   18.57    2.39
  -6  -9   1  206.97    7.00
  -6  -9   1  203.99    7.54
  -6  -9   2   73.66    4.05
  -6  -9   2   77.11    4.61
  -6  -9   3    4.98    1.66
  -6  -9   3    5.68    1.43
  -6  -9   4   98.44    4.60
  -6  -9   4  107.35    5.43
  -6  -9   5   87.05    4.90
  -6  -9   6    6.77    1.78
  -6  -9   7  292.60    9.19
  -6  -9   8  198.49    7.39
  -6  -9   9  104.49    5.29
   6  -9  -9   92.98    4.34
  -6  -9  10  206.46    7.44
   6  -9 -10  197.09    6.57
  -6  -9  11  199.25    7.29
   6  -9 -11  192.77    6.57
  -6  -9  12  669.19   14.56
   6  -9 -12  678.51   13.93
  -6  -9  13  142.46    5.92
   6  -9 -13  133.15    5.53
   6  -9 -14   79.88    4.28
   6  -9 -15    4.64    1.43
   6  -9 -16   49.58    3.46
   6  -9 -17  397.19   10.40
   6  -9 -18   22.70    2.51
   6  -9 -19   56.84    3.75
  -6 -10 -24  135.36    5.90
   6  10 -24  134.16    6.33
  -6 -10 -23  287.81    9.24
   6  10 -23  303.68    9.94
   6  10 -23  305.62   10.33
  -6 -10 -22  123.13    6.07
   6  10 -22  124.39    6.40
   6  10 -22  114.32    6.42
  -6 -10 -21  250.37    9.08
   6  10 -21  258.81    9.62
   6  10 -21  267.43   10.25
  -6 -10 -20   11.39    2.28
   6  10 -20   12.28    2.40
   6  10 -20   11.05    2.45
  -6 -10 -19  112.92    6.17
   6  10 -19  117.70    6.49
   6  10 -19  105.70    6.62
   6  10 -18  484.52   13.91
   6  10 -18  466.83   14.66
   6  10 -17   97.47    5.99
   6  10 -17  101.37    6.65
   6 -10  17   95.71    4.93
   6  10 -16  554.80   15.01
   6  10 -16  575.35   16.55
   6 -10  16  547.12   12.86
  -6 -10 -15  213.91    8.83
   6  10 -15  209.91    8.74
   6 -10  15  203.79    7.30
   6  10 -15  220.40    9.89
  -6 -10 -14  206.95    8.69
   6  10 -14  213.58    8.69
  -6 -10 -14  207.43    7.36
   6 -10  14  204.72    7.28
   6  10 -14  219.41    9.82
   6 -10  13    8.62    1.68
  -6 -10 -13    8.57    2.24
   6  10 -13    7.11    2.07
  -6 -10 -13   11.60    1.95
   6  10 -13    8.37    2.47
  -6 -10 -12   96.59    5.79
   6  10 -12   80.15    5.14
  -6 -10 -12   89.15    4.98
   6  10 -12  102.44    6.50
   6 -10  12   86.87    4.65
  -6 -10 -11  575.99   14.97
  -6 -10 -11  588.15   13.93
   6  10 -11  574.81   14.44
   6  10 -11  586.51   16.26
   6 -10  11  564.68   12.91
   6 -10  10  193.42    6.90
  -6 -10 -10  204.77    8.33
  -6 -10 -10  210.06    7.84
   6  10 -10  212.31    8.09
   6 -10   9  659.37   13.86
  -6 -10  -9  652.35   15.78
  -6 -10  -9  658.24   15.11
   6  10  -9  638.12   14.97
   6 -10   8  769.72   15.28
  -6 -10  -8  754.05   17.18
  -6 -10  -8  788.78   16.92
   6  10  -8  779.51   16.48
   6 -10   7  497.55   11.56
  -6 -10  -7  513.38   13.36
  -6 -10  -7  502.17   13.02
   6  10  -7  510.25   12.49
   6  10  -7  489.42   14.15
  -6 -10  -6  342.75   10.52
   6 -10   6  348.04    9.26
  -6 -10  -6  347.66   10.52
   6  10  -6  368.77   10.16
   6  10  -6  360.39   11.70
  -6 -10  -5   30.81    3.11
   6 -10   5   31.67    2.72
  -6 -10  -5   34.89    3.30
   6  10  -5   41.32    3.43
   6  10  -5   32.40    3.48
  -6 -10  -4   60.70    4.18
   6 -10   4   54.62    3.44
  -6 -10  -4   57.89    4.15
   6  10  -4   64.52    4.28
   6  10  -4   55.67    4.55
  -6 -10  -3  323.61    9.78
   6 -10   3  314.23    8.58
   6  10  -3  322.27   10.70
  -6 -10  -2  137.01    6.13
   6 -10   2  128.50    5.24
   6  10  -2  136.89    6.81
  -6 -10  -1  658.52   14.68
  -6 -10   0 1252.85   22.34
  -6 -10   0 1274.30   23.33
  -6 -10   1  678.28   14.68
  -6 -10   1  673.23   15.52
  -6 -10   2  117.99    5.45
  -6 -10   2  123.16    6.05
  -6 -10   3  304.98    9.05
  -6 -10   3  322.87   10.07
  -6 -10   4   57.29    3.73
  -6 -10   4   63.52    4.35
  -6 -10   5   34.97    3.26
  -6 -10   6  334.37   10.28
  -6 -10   7  481.48   12.63
  -6 -10   8  771.06   16.71
  -6 -10   9  704.63   15.69
  -6 -10  10  204.47    7.65
   6 -10 -11  564.94   12.70
  -6 -10  11  596.04   13.87
   6 -10 -12   80.40    4.36
  -6 -10  12   91.01    4.96
   6 -10 -13   11.28    1.88
  -6 -10  13   10.39    1.89
   6 -10 -14  199.83    7.07
   6 -10 -15  201.00    7.12
   6 -10 -16  527.75   12.37
   6 -10 -17   83.50    4.47
  -6 -11 -23   15.45    2.29
   6  11 -23   12.32    2.20
  -6 -11 -22    2.75    1.45
   6  11 -22    3.41    1.46
   6  11 -22    1.65    1.31
  -6 -11 -21   18.85    2.59
   6  11 -21   18.62    2.67
   6  11 -21   22.03    3.03
  -6 -11 -20   60.39    4.44
   6  11 -20   61.64    4.54
   6  11 -20   56.40    4.70
  -6 -11 -19   51.95    4.11
   6  11 -19   47.65    4.10
   6  11 -19   47.16    4.40
   6  11 -18   53.51    4.39
   6  11 -18   54.66    4.79
   6  11 -17   30.88    3.56
   6  11 -17   40.85    4.24
   6  11 -16   19.39    2.99
   6  11 -16   26.40    3.65
  -6 -11 -15  110.17    6.26
   6  11 -15  122.45    6.52
   6  11 -15  115.71    7.17
  -6 -11 -14    5.97    2.04
  -6 -11 -14    4.55    1.53
   6  11 -14    4.92    2.00
   6  11 -14    8.09    2.37
  -6 -11 -13   64.69    4.86
   6  11 -13   67.63    4.87
  -6 -11 -13   65.00    4.23
   6  11 -13   71.20    5.61
  -6 -11 -12  162.39    7.62
  -6 -11 -12  153.64    6.65
   6  11 -12  158.06    7.28
   6  11 -12  152.41    8.08
  -6 -11 -11   36.02    3.62
  -6 -11 -11   31.51    3.14
   6  11 -11   27.60    3.16
   6  11 -11   32.28    3.84
  -6 -11 -10   19.93    2.86
   6  11 -10   15.90    2.47
  -6 -11 -10   19.76    2.64
   6  11 -10   22.20    3.25
  -6 -11  -9  155.12    7.29
  -6 -11  -9  150.40    6.82
   6  11  -9  153.53    6.75
   6  11  -8   17.72    2.58
  -6 -11  -8   17.64    2.57
  -6 -11  -8   13.47    2.40
  -6 -11  -7   43.09    3.80
  -6 -11  -7   46.22    3.85
   6  11  -7   44.09    3.66
  -6 -11  -6   25.74    3.04
  -6 -11  -6   24.91    2.92
   6  11  -6   30.99    3.21
   6  11  -6   33.35    3.63
  -6 -11  -5   43.66    3.75
  -6 -11  -5   42.04    3.74
   6  11  -5   53.40    4.06
   6  11  -5   40.63    4.08
  -6 -11  -4  105.00    5.68
  -6 -11  -4  106.98    5.80
   6  11  -4  112.76    6.39
  -6 -11  -3   86.40    5.08
   6  11  -3   87.72    5.62
  -6 -11  -2    5.75    1.72
   6  11  -2    9.55    2.38
  -6 -11  -1  128.54    6.16
   6  11  -1  142.51    7.22
  -6 -11   0   53.28    3.96
  -6 -11   0   51.05    4.07
  -6 -11   1  144.17    6.37
  -6 -11   1  138.34    6.61
  -6 -11   2    5.86    1.81
  -6 -11   2    6.33    1.65
  -6 -11   3   79.22    4.61
  -6 -11   3   76.96    4.94
  -6 -11   4  104.77    5.24
  -6 -11   4  109.22    5.87
  -6 -11   5   44.04    3.84
  -6 -11   6   26.80    3.09
  -6 -11   7   48.31    3.88
  -6 -11   8   17.58    2.60
  -6 -11   9  159.65    6.95
  -6 -11  10   17.66    2.48
  -6 -11  11   29.89    3.05
  -6 -11  12  156.59    6.70
  -6 -11  13   73.61    4.47
   6 -11 -14    8.03    1.50
   6 -11 -15  106.64    5.14
   6 -11 -16   19.19    2.31
  -6 -12 -21   15.26    2.29
   6  12 -21   19.76    2.48
   6  12 -21   19.34    2.64
  -6 -12 -20   47.82    3.78
   6  12 -20   46.41    3.80
   6  12 -20   46.21    4.09
  -6 -12 -19    5.27    1.68
   6  12 -19    4.23    1.57
   6  12 -19    4.88    1.85
   6  12 -18   44.60    3.85
   6  12 -18   46.41    4.30
   6  12 -17   29.67    3.31
   6  12 -17   32.82    3.75
   6  12 -16  352.03   11.09
   6  12 -16  330.96   11.96
  -6 -12 -15  156.79    7.49
   6  12 -15  158.06    7.30
   6  12 -15  165.68    8.34
  -6 -12 -14   82.60    5.42
   6  12 -14   87.08    5.39
   6  12 -14   88.85    6.13
  -6 -12 -13    7.95    2.17
  -6 -12 -13   11.03    2.13
   6  12 -13    7.38    2.01
   6  12 -13    9.87    2.39
  -6 -12 -12    0.80    1.37
  -6 -12 -12    2.24    1.43
   6  12 -12    0.56    1.58
   6  12 -12    3.37    1.84
  -6 -12 -11  102.38    6.16
  -6 -12 -11  114.34    5.86
   6  12 -11  109.72    5.95
   6  12 -11  113.04    6.93
  -6 -12 -10  346.81   11.51
  -6 -12 -10  351.12   10.77
   6  12 -10  347.67   10.83
   6  12 -10  341.76   12.30
  -6 -12  -9  124.97    6.66
  -6 -12  -9  120.29    6.14
   6  12  -9  122.58    6.13
  -6 -12  -8 1085.46   22.30
  -6 -12  -8 1126.62   21.85
   6  12  -8 1054.72   20.73
  -6 -12  -7  178.86    7.90
  -6 -12  -7  182.72    7.77
   6  12  -7  183.82    7.39
  -6 -12  -6  108.12    6.01
   6  12  -6  116.87    5.82
  -6 -12  -6  112.07    6.00
  -6 -12  -5   38.85    3.74
   6  12  -5   48.03    3.90
  -6 -12  -5   40.22    3.73
   6  12  -5   35.75    3.88
  -6 -12  -4   15.01    2.51
  -6 -12  -4   18.17    2.70
   6  12  -4   14.32    2.87
  -6 -12  -3  292.03    9.88
   6  12  -3  311.00   11.06
  -6 -12  -2  130.64    6.44
   6  12  -2  146.21    7.45
  -6 -12  -1  251.55    9.03
   6  12  -1  268.09   10.22
  -6 -12   0 1281.02   23.61
  -6 -12   0 1245.26   24.22
  -6 -12   1  244.71    8.74
  -6 -12   1  242.38    9.13
  -6 -12   2  132.16    6.27
  -6 -12   2  128.32    6.59
  -6 -12   3  308.25    9.77
  -6 -12   3  308.99   10.47
  -6 -12   4   14.19    2.21
  -6 -12   4   17.91    2.69
  -6 -12   5   46.12    3.99
  -6 -12   6  118.45    6.21
  -6 -12   7  201.10    8.12
  -6 -12   8 1115.70   22.03
  -6 -12   9  133.66    6.45
  -6 -12  10  352.23   10.76
  -6 -12  11  110.49    5.71
  -6 -12  12    4.36    1.61
  -6 -13 -20    5.17    1.54
   6  13 -20    7.52    1.81
  -6 -13 -19    2.47    1.47
   6  13 -19    2.90    1.35
   6  13 -18   22.17    2.62
   6  13 -18   18.21    2.76
   6  13 -17    0.34    1.12
   6  13 -17    0.62    1.37
   6  13 -16   10.20    2.19
   6  13 -16   10.33    2.34
  -6 -13 -15   24.92    3.10
   6  13 -15   23.06    2.97
   6  13 -15   27.19    3.45
  -6 -13 -14   10.30    2.19
   6  13 -14    5.16    1.82
   6  13 -14   10.51    2.51
  -6 -13 -13    8.75    2.15
  -6 -13 -13    6.73    1.70
   6  13 -13    7.28    1.94
   6  13 -13   12.29    2.47
  -6 -13 -12   60.77    4.66
   6  13 -12   57.19    4.32
  -6 -13 -12   62.04    4.30
   6  13 -12   69.67    5.37
  -6 -13 -11   73.59    5.18
  -6 -13 -11   68.71    4.52
   6  13 -11   56.58    4.29
   6  13 -11   71.15    5.45
  -6 -13 -10  114.13    6.40
  -6 -13 -10  113.28    5.89
   6  13 -10  109.03    5.81
   6  13 -10  111.01    6.86
  -6 -13  -9   70.17    5.06
  -6 -13  -9   74.73    4.87
   6  13  -9   63.14    4.39
   6  13  -9   67.81    5.35
  -6 -13  -8   68.51    4.90
  -6 -13  -8   72.16    4.87
   6  13  -8   56.29    4.16
   6  13  -7   19.52    2.67
  -6 -13  -7   16.34    2.53
  -6 -13  -7   16.55    2.75
  -6 -13  -6   44.12    3.99
   6  13  -6   42.88    3.67
  -6 -13  -6   47.17    4.04
  -6 -13  -5   20.47    2.87
  -6 -13  -5   25.19    3.10
  -6 -13  -4   37.43    3.67
  -6 -13  -4   39.98    3.76
   6  13  -4   29.65    3.65
  -6 -13  -3  361.11   11.38
   6  13  -3  367.67   12.28
  -6 -13  -2   61.56    4.51
   6  13  -2   54.10    4.77
  -6 -13  -1  164.93    7.37
   6  13  -1  172.43    8.26
   6  13   0   22.01    3.55
  -6 -13   0   18.32    2.71
  -6 -13   0   14.46    2.36
  -6 -13   1  178.03    7.51
  -6 -13   1  172.02    7.77
  -6 -13   2   57.16    4.27
  -6 -13   2   66.35    4.86
  -6 -13   3  368.41   11.07
  -6 -13   3  395.18   12.10
  -6 -13   4   30.15    3.14
  -6 -13   4   32.96    3.43
  -6 -13   5   27.66    3.22
  -6 -13   6   43.90    3.88
  -6 -13   7   20.22    2.75
  -6 -13   8   65.20    4.67
  -6 -13   9   69.70    4.70
  -6 -13  10  116.23    5.90
  -6 -13  11   63.31    4.37
  -6 -13  12   56.96    4.07
  -6 -14 -18   35.44    3.21
   6  14 -18   35.80    3.41
   6  14 -17  106.15    5.87
   6  14 -16  391.27   11.99
  -6 -14 -15   52.91    4.11
   6  14 -15   60.88    4.74
  -6 -14 -14    1.78    1.54
   6  14 -14    1.26    1.45
  -6 -14 -13   25.34    3.08
   6  14 -13   24.66    3.32
  -6 -14 -12  128.98    6.55
  -6 -14 -12  121.68    5.72
   6  14 -12  115.34    6.72
  -6 -14 -11   58.34    4.52
  -6 -14 -11   60.73    4.19
   6  14 -11   52.45    4.66
  -6 -14 -10  149.97    7.19
  -6 -14 -10  157.93    6.88
   6  14 -10  172.14    8.27
  -6 -14  -9  133.10    6.75
  -6 -14  -9  119.84    6.13
   6  14  -9  118.48    6.94
  -6 -14  -8  787.80   18.25
  -6 -14  -8  801.76   17.79
   6  14  -8  785.51   19.33
  -6 -14  -7  149.76    7.22
  -6 -14  -7  144.62    6.88
  -6 -14  -6  116.55    6.35
  -6 -14  -6  115.79    6.21
  -6 -14  -5   11.74    2.34
  -6 -14  -5   12.53    2.48
  -6 -14  -4  121.25    6.38
  -6 -14  -4  112.32    6.20
  -6 -14  -3    9.50    2.13
  -6 -14  -3    7.38    2.07
   6  14  -3   11.36    2.75
  -6 -14  -2  216.62    8.53
   6  14  -2  216.44    9.29
  -6 -14  -1  146.85    6.98
   6  14  -1  164.59    8.09
  -6 -14   0  770.29   17.54
  -6 -14   0  767.24   18.13
   6  14   0  803.98   19.20
  -6 -14   1  131.90    6.54
  -6 -14   1  142.50    7.15
   6  14   1  151.46    7.81
  -6 -14   2  215.08    8.34
  -6 -14   2  225.54    9.01
  -6 -14   3    6.79    1.81
  -6 -14   3   12.39    2.46
  -6 -14   4  112.77    6.27
  -6 -14   5   12.23    2.42
  -6 -14   6  120.14    6.35
  -6 -14   7  172.26    7.56
  -6 -14   8  797.13   17.63
  -6 -14   9  124.18    6.21
  -6 -14  10  171.04    7.12
  -6  14 -11   37.87    8.24
  -6 -14  11   56.66    4.04
  -6 -15 -15   19.93    2.54
   6  15 -15   17.76    2.61
  -6 -15 -14   31.09    3.14
   6  15 -14   36.56    3.57
  -6 -15 -13  148.58    6.68
   6  15 -13  140.22    6.99
  -6 -15 -12   79.43    4.96
   6  15 -12   72.35    5.13
  -6 -15 -11    4.27    1.75
  -6 -15 -11    4.87    1.51
   6  15 -11    4.30    1.85
  -6 -15 -10   30.24    3.30
  -6 -15 -10   30.04    3.09
   6  15 -10   34.23    3.71
  -6 -15  -9  264.54    9.50
  -6 -15  -9  249.20    8.69
   6  15  -9  268.68   10.17
  -6 -15  -8   89.65    5.43
  -6 -15  -8   93.36    5.35
   6  15  -8   98.11    6.12
  -6 -15  -7   13.97    2.42
  -6 -15  -7   11.26    2.31
   6  15  -7    9.91    2.29
  -6 -15  -6    9.44    2.13
  -6 -15  -6    9.51    2.12
  -6 -15  -5   17.82    2.57
  -6 -15  -5   17.17    2.69
  -6 -15  -4   19.33    2.74
  -6 -15  -4   17.55    2.63
  -6 -15  -3   80.91    5.21
  -6 -15  -3   80.61    5.24
   6  15  -3   79.14    5.57
  -6 -15  -2    2.39    1.39
   6  15  -2    1.94    1.88
  -6 -15  -1    7.83    2.03
   6  15  -1   13.00    2.83
  -6 -15   0   76.99    4.98
  -6 -15   0   79.74    5.33
   6  15   0   79.39    5.65
  -6 -15   1    7.10    1.85
  -6 -15   1    8.82    2.15
   6  15   1   11.50    2.74
  -6 -15   2    2.43    1.37
  -6 -15   2    1.15    1.60
  -6 -15   3   66.50    4.57
  -6 -15   3   73.58    5.06
  -6 -15   4   17.79    2.77
  -6 -15   5   22.93    2.92
  -6 -15   6    9.10    2.18
  -6 -15   7    9.82    2.15
  -6 -15   8   99.82    5.52
  -6 -15   9  269.06    9.02
  -6 -15  10   34.12    3.17
  -6  15 -10   41.90    9.34
  -6 -15  11    4.44    1.45
  -6 -16 -12   12.91    2.12
   6  16 -12   11.27    2.17
  -6 -16 -11    5.19    1.61
   6  16 -11    4.32    1.62
  -6 -16 -10   64.48    4.38
  -6 -16 -10   67.12    4.11
   6  16 -10   64.72    4.66
  -6 -16  -9   20.06    2.64
  -6 -16  -9   18.25    2.44
   6  16  -9   13.67    2.51
  -6 -16  -8  302.08    9.77
  -6 -16  -8  298.64    9.25
   6  16  -8  282.22   10.09
  -6 -16  -7  109.20    5.80
  -6 -16  -7  111.95    5.67
   6  16  -7  109.75    6.19
  -6 -16  -6    2.41    1.49
  -6 -16  -6    3.26    1.47
   6  16  -6    2.59    1.63
  -6 -16  -5   18.33    2.57
  -6 -16  -5   22.11    2.80
  -6 -16  -4   40.43    3.67
  -6 -16  -4   39.60    3.65
  -6 -16  -3   11.38    2.22
  -6 -16  -3   12.72    2.31
  -6 -16  -2  127.94    6.25
   6  16  -2  118.40    6.52
  -6 -16  -1   99.07    5.53
   6  16  -1  111.48    6.29
  -6 -16   0  566.25   13.99
  -6 -16   0  578.52   14.61
   6  16   0  575.81   15.09
  -6 -16   1   96.77    5.39
  -6 -16   1  109.70    5.94
   6  16   1  115.67    6.43
  -6 -16   2  127.92    6.44
   6  16   2  140.53    7.04
  -6 -16   3   10.56    2.31
   6  16   3   14.60    2.92
  -6 -16   4   42.71    3.80
   6  16   4   48.91    4.35
   6  16   5   31.06    3.57
  -6 -16   5   21.91    2.84
  -6 -16   6    1.63    1.42
   6  16   6    9.82    2.65
  -6 -16   7  113.94    5.71
   6  16   7  137.91    6.71
  -6 -16   8  281.59    8.94
  -6 -16   9   16.25    2.28
  -6 -16  10   55.07    3.69
   6  17  -8    9.14    1.96
  -6 -17  -7   19.71    2.49
  -6 -17  -7   19.35    2.45
   6  17  -7   17.55    2.55
  -6 -17  -6   19.04    2.49
  -6 -17  -6   20.81    2.52
   6  17  -6   20.51    2.72
  -6 -17  -5   40.28    3.44
  -6 -17  -5   36.85    3.30
  -6 -17  -4   11.85    2.13
  -6 -17  -4    9.30    1.89
  -6 -17  -3   58.63    4.06
  -6 -17  -3   59.12    4.12
  -6 -17  -2    1.36    1.24
   6  17  -2    0.90    1.16
  -6 -17  -1   10.87    1.98
   6  17  -1   18.38    2.71
  -6 -17   0   51.07    3.73
  -6 -17   0   50.46    3.83
   6  17   0   53.68    4.15
  -6 -17   1   12.99    2.32
   6  17   1   14.14    2.46
  -6 -17   2    3.30    1.34
   6  17   2    3.61    1.76
  -6 -17   3   66.72    4.41
   6  17   3   69.40    4.70
  -6 -17   4   12.96    2.20
   6  17   4   12.70    2.37
  -6 -17   5   36.40    3.22
   6  17   5   38.39    3.56
  -6 -17   6   18.98    2.40
   6  17   6   26.85    3.06
   7   0   0    0.92    0.82
   7   0   0    1.34    0.67
   7   0   0    0.80    0.79
   7   0   1   26.33    2.38
   7   0  -1   21.66    2.16
   7   0   1   25.85    1.91
   7   0  -1   25.12    1.88
   7   0  -1   23.71    1.76
   7   0   1   23.87    2.31
   7   0  -1   24.81    2.34
   7   0  -2  808.04   15.54
   7   0   2  835.89   13.92
   7   0  -2  818.02   13.62
   7   0   2  802.65   15.39
   7   0   2  821.52   15.53
   7   0  -2  816.04   13.62
   7   0  -2  799.61   15.44
  -7   0  -3  302.14    6.69
   7   0  -3  308.87    8.56
   7   0   3  296.01    7.27
   7   0  -3  308.62    7.18
   7   0  -3  306.95    8.62
   7   0   3  323.95    8.65
   7   0  -3  309.13    7.42
   7   0   3  305.63    8.38
  -7   0  -4   64.47    2.89
   7   0  -4   56.14    3.49
   7   0   4   52.70    2.84
   7   0  -4   49.05    2.67
   7   0  -4   49.18    3.33
   7   0   4   56.76    3.45
   7   0  -4   53.74    3.00
   7   0   4   54.57    3.40
  -7   0  -5   59.76    2.94
   7   0  -5   52.36    3.49
   7   0   5   45.10    2.72
   7   0  -5   60.18    2.98
   7   0   5   54.12    3.43
   7   0   5   54.48    3.42
   7   0  -5   50.73    3.05
  -7   0  -6  121.05    4.53
  -7   0   6  121.21    4.32
   7   0  -6  126.73    4.49
   7   0   6  129.92    5.36
   7   0  -6  129.15    5.05
   7   0   6  123.80    5.28
  -7   0  -7   67.78    3.47
   7   0  -7   72.76    3.42
   7   0   7   70.96    4.00
   7   0  -7   74.92    3.94
   7   0   7   75.61    4.16
   7   0  -8  178.11    5.67
   7   0   8  181.47    6.64
   7   0   8  170.36    6.45
   7   0  -8  181.52    6.46
   7   0   9   60.66    3.88
   7   0  -9   67.96    4.00
   7   0   9   58.31    3.79
   7   0  10  240.90    8.01
   7   0  10  232.96    7.89
   7   0 -10  235.39    7.93
   7   0  11  260.80    8.54
   7   0  11  276.94    8.70
   7   0 -11  250.98    8.54
   7   0  12    0.93    1.17
   7   0  12    0.91    1.13
   7   0 -12    1.48    1.21
   7   0  13  116.59    5.76
   7   0 -13  123.92    6.16
   7   0  13  132.30    6.14
  -7   0 -14 1222.52   20.28
   7   0  14 1186.31   22.53
   7   0  14 1252.49   22.94
   7   0  15    0.17    1.12
   7   0  15    0.17    1.06
   7   0  16  522.66   13.92
   7   0  16  520.17   13.67
   7   0  17  223.21    8.73
   7   0  17  215.83    8.49
   7   0  18  460.51   13.27
   7   0  18  481.09   13.46
   7   0  19  119.81    6.49
   7   0  19  118.12    6.45
   7   0  20   95.88    5.88
   7   0  20  111.06    6.22
   7   0  21    0.21    1.25
   7   0  21    1.22    1.25
   7   0  22  775.37   18.40
   7   0  22  809.48   18.86
   7   0  23   79.74    5.33
   7   0  23   81.75    5.47
   7   0  24    9.62    2.32
   7   0  24   12.04    2.40
   7   0  25  149.45    7.25
   7   0  25  159.35    7.50
   7   0  26  251.10    9.26
   7   0  26  241.05    9.14
   7   0  27   61.13    4.42
   7   0  27   53.73    4.14
   7   0  28   95.56    5.28
   7   0  28   97.42    5.28
   7   0  29    2.90    1.19
   7  -1  28   58.08    4.18
   7  -1  27  293.05    9.87
   7  -1  26  267.26    9.66
   7  -1  25   89.19    5.67
   7  -1  24    5.76    1.91
   7  -1  23   44.40    4.14
   7  -1  22   23.76    3.20
   7  -1  21  661.77   16.83
   7  -1  20   71.23    5.14
   7  -1  19  268.98    9.96
   7  -1  18   67.89    4.82
   7  -1  17  145.80    7.08
   7  -1  16   25.41    3.01
   7   1 -15  330.82   11.00
   7  -1  15  305.69   10.20
  -7  -1 -14   91.01    4.33
   7   1 -14   93.54    5.59
   7  -1  14   96.28    5.39
  -7  -1 -13  632.89   12.98
   7   1 -13  636.11   15.40
   7  -1  13  640.16   14.99
  -7  -1 -12  438.43   10.57
   7   1 -12  435.42   11.99
   7  -1  12  427.81   11.63
  -7  -1 -11  920.68   17.36
   7  -1  11  930.94   18.47
   7   1 -11  925.03   18.61
   7  -1  10  188.15    7.10
   7   1 -10  179.92    6.98
   7  -1   9   30.25    2.83
   7   1  -9   35.39    2.95
   7  -1   8    8.00    1.60
   7   1  -8    9.43    1.65
  -7  -1  -7   21.27    2.05
   7   1  -7   23.26    2.26
   7  -1   7   26.97    2.59
  -7  -1  -6    0.65    0.60
   7  -1   6    4.83    1.33
   7  -1   6    4.61    1.02
   7   1  -6    1.93    0.78
   7   1  -6    1.48    0.88
  -7  -1  -5  676.07   12.33
   7  -1   5  691.71   12.34
   7   1  -5  688.17   12.72
   7  -1   5  692.37   14.07
   7   1  -5  660.79   13.11
  -7  -1  -4  307.13    7.18
   7   1  -4  329.65    8.89
   7  -1   4  323.37    7.41
   7   1  -4  321.84    7.72
   7   1  -4  315.43    8.77
   7   1  -4  308.27    7.88
   7  -1   4  310.95    8.76
  -7  -1  -3  464.05    8.98
   7   1  -3  481.05   11.13
   7  -1   3  478.19    9.42
   7   1  -3  468.65    9.79
   7   1  -3  489.75   11.28
   7   1  -3  498.62   10.13
   7  -1   3  482.81   11.16
   7   1  -2  301.24    8.36
   7  -1   2  292.40    6.84
   7   1  -2  304.79    7.42
   7   1  -2  292.39    7.18
   7  -1   2  313.73    8.55
   7   1  -2  303.68    8.40
   7  -1   1  109.67    4.79
   7   1  -1  105.82    4.62
   7  -1   1   92.81    3.52
   7   1  -1  103.05    4.04
   7   1  -1  102.36    3.77
   7   1  -1  105.31    4.71
   7  -1   0   25.56    2.35
   7   1   0   31.99    2.56
   7   1   0   24.85    2.00
   7  -1   0   28.19    1.86
   7   1   0   24.09    1.76
   7   1   0   24.92    2.32
   7  -1  -1  104.07    4.74
   7   1   1  100.87    4.49
   7   1   1   98.51    3.96
   7  -1  -1   95.24    3.46
   7   1   1   97.11    4.48
   7   1   2  322.69    8.52
   7  -1  -2  311.62    8.64
   7   1   2  316.01    7.67
   7  -1  -2  315.58    6.91
   7   1   2  317.48    8.58
  -7   1  -3  487.14    8.99
   7  -1  -3  453.71   10.93
   7   1   3  472.15    9.92
   7  -1  -3  465.27    8.95
   7   1   3  457.77   10.75
   7   1   3  482.45   10.86
  -7   1  -4  324.78    7.31
   7  -1  -4  321.02    8.97
   7  -1  -4  319.49    7.06
   7   1   4  320.93    8.73
   7   1   4  323.34    8.67
  -7   1  -5  682.68   12.28
   7  -1  -5  675.47   14.21
  -7  -1   5  682.42   12.53
   7  -1  -5  681.68   11.78
   7   1   5  721.93   14.12
   7   1   5  684.28   13.77
   7  -1  -5  639.51   12.64
  -7   1  -6    3.39    0.87
   7   1   6    1.33    0.94
   7  -1  -6    1.83    0.69
   7   1   6    2.08    1.02
   7  -1  -6    1.70    0.81
  -7   1  -7   18.37    1.87
   7  -1  -7   18.53    1.67
   7   1   7   21.60    2.26
   7   1   7   21.01    2.21
   7   1   8   10.72    1.73
   7   1   8    9.92    1.69
   7   1   9   34.85    3.00
   7   1   9   32.37    2.84
   7   1  10  196.51    7.11
   7   1  10  185.70    6.97
  -7  -1  11  846.00   16.22
   7   1  11  909.57   17.72
   7   1  11  883.20   17.57
  -7  -1  12  408.77    9.91
   7   1  12  431.39   11.43
   7   1  12  428.08   11.44
   7   1  13  635.49   14.74
   7   1  13  653.15   14.90
   7   1  14   91.70    5.16
   7   1  14   83.37    4.97
   7   1  15  318.46   10.19
   7   1  15  315.55   10.11
   7   1  16   30.87    3.17
   7   1  16   28.36    3.21
   7   1  17  135.46    6.67
   7   1  17  137.57    6.76
   7   1  18   75.42    5.04
   7   1  18   80.39    5.19
   7   1  19  262.51    9.74
   7   1  19  279.63   10.03
   7   1  20   75.83    5.21
   7   1  20   68.42    4.93
   7   1  21  675.36   16.84
   7   1  21  670.27   16.78
   7   1  22   26.37    3.23
   7   1  22   21.63    3.04
   7   1  23   36.65    3.73
   7   1  23   28.69    3.36
   7   1  24    3.62    1.65
   7   1  24    3.00    1.71
   7   1  25   88.52    5.54
   7   1  25   97.33    5.80
   7   1  26  266.62    9.51
   7   1  26  260.82    9.44
   7   1  27  296.81    9.79
   7   1  27  292.23    9.75
   7   1  28   59.09    4.08
   7   1  28   59.39    4.16
   7  -2  28    3.85    1.47
   7  -2  28    3.86    1.40
   7  -2  27  215.53    8.30
   7  -2  27  199.69    7.82
   7  -2  26  379.20   11.64
   7  -2  26  377.50   11.38
   7  -2  25  207.28    8.37
   7  -2  25  187.90    8.21
   7  -2  24   30.64    3.39
   7  -2  24   34.53    3.62
   7  -2  23   27.06    3.16
   7  -2  23   27.59    3.38
   7  -2  22  771.25   18.04
   7  -2  22  731.76   18.04
   7  -2  21  184.62    8.11
   7  -2  21  183.28    8.30
   7  -2  20  114.68    6.34
   7  -2  20  118.57    6.58
   7  -2  19  150.34    7.17
   7  -2  19  141.89    7.19
   7  -2  18   94.02    5.61
   7  -2  18  100.20    5.92
   7   2 -17   27.04    3.11
   7  -2  17   29.56    3.17
   7   2 -17   27.97    3.54
   7  -2  17   33.09    3.53
   7   2 -16   23.19    2.85
   7  -2  16   28.43    3.07
   7   2 -16   25.03    3.18
   7  -2  16   31.10    3.24
   7  -2  15    5.96    1.74
   7   2 -15    5.39    1.69
   7  -2  15    5.83    1.69
   7   2 -15    5.29    1.83
  -7  -2 -14  574.85   12.09
   7   2 -14  587.29   14.04
   7  -2  14  615.45   14.56
   7   2 -14  616.27   15.51
   7  -2  14  627.91   15.08
  -7  -2 -13   25.29    2.62
   7   2 -13   21.14    2.45
   7  -2  13   23.81    2.69
   7   2 -13   26.28    3.10
   7  -2  13   30.55    3.13
  -7  -2 -12  161.44    5.96
   7   2 -12  148.24    6.08
   7  -2  12  167.58    6.96
   7  -2  12  159.55    6.63
   7   2 -12  164.26    7.13
  -7  -2 -11  338.59    8.96
   7   2 -11  320.96    8.97
   7  -2  11  325.64    9.85
   7  -2  11  326.69    9.64
   7   2 -11  325.27   10.11
  -7  -2 -10  288.11    8.30
   7   2 -10  276.93    7.93
   7   2 -10  269.87    8.88
   7  -2  10  273.68    8.81
   7  -2  10  271.69    8.56
  -7  -2  -9   53.02    3.85
   7   2  -9   45.71    2.95
   7  -2   9   46.74    3.44
   7   2  -9   45.40    3.45
   7  -2   9   47.52    3.43
  -7  -2  -8  352.16    9.65
   7   2  -8  360.81    8.53
   7  -2   8  351.45    9.60
   7   2  -8  346.17    9.72
   7  -2   8  373.16   10.05
   7  -2   7  423.85    9.08
   7   2  -7  422.24    9.02
   7  -2   7  426.97   10.55
   7   2  -7  411.66   10.45
   7  -2   7  433.49   10.88
  -7  -2  -6  449.17    9.91
   7  -2   6  443.13    9.24
   7  -2   6  463.39   11.16
   7  -2   6  463.57   10.93
   7   2  -6  458.74   10.80
  -7  -2  -5   13.66    1.53
   7  -2   5   13.83    1.43
   7  -2   5   16.73    2.09
   7  -2   5   19.30    2.13
  -7  -2  -4  110.29    4.04
   7   2  -4  105.88    4.77
   7  -2   4  111.88    3.89
   7  -2   4  111.64    4.90
   7   2  -4  109.69    4.99
   7  -2   4  120.96    5.16
   7   2  -4  114.15    4.68
   7   2  -3  314.40    8.54
   7  -2   3  310.06    6.87
   7   2  -3  312.28    8.74
   7   2  -3  310.78    7.94
   7  -2   3  331.86    8.76
   7  -2   3  323.48    8.82
   7   2  -2 1184.25   19.82
   7  -2   2 1162.14   17.22
   7   2  -2 1186.70   18.94
   7   2  -2 1175.84   18.65
   7  -2   2 1206.27   20.04
   7   2  -2 1150.90   19.97
   7  -2   1  320.20    8.73
   7   2  -1  318.82    8.44
   7  -2   1  307.40    6.60
   7   2  -1  321.30    7.93
   7   2  -1  309.74    7.44
   7  -2   1  314.94    8.56
   7   2  -1  310.46    8.58
   7  -2   0    3.53    1.13
   7   2   0    4.23    1.03
   7  -2   0    2.27    0.63
   7  -2   0    5.72    1.26
   7   2   0    2.29    1.02
   7   2   0    2.58    0.79
   7  -2  -1  322.81    8.78
   7   2   1  300.30    8.11
   7  -2  -1  306.72    6.40
   7   2   1  294.10    6.82
   7   2   1  314.57    8.46
   7  -2  -1  307.90    8.42
   7   2   2 1126.06   19.06
   7  -2  -2 1177.29   20.01
   7  -2  -2 1115.47   16.33
   7   2   2 1171.68   19.63
   7  -2  -2 1178.65   19.85
   7  -2  -3  315.57    8.96
   7  -2  -3  308.44    6.46
   7  -2  -3  320.12    8.76
   7   2   3  321.53    8.62
   7   2   3  323.01    8.41
  -7   2  -4  107.74    3.93
   7  -2  -4  112.63    5.11
   7  -2  -4  104.44    3.43
   7   2   4  109.83    4.70
   7   2   4  111.18    4.88
   7  -2  -4  101.62    4.81
  -7   2  -5   20.72    1.80
   7  -2  -5   23.20    2.47
   7  -2  -5   16.83    1.39
   7   2   5   21.42    2.18
   7   2   5   19.27    2.02
  -7   2  -6  467.76    9.95
   7  -2  -6  452.19    8.60
   7   2   6  472.73   10.89
   7   2   6  463.48   11.08
   7   2   7  424.27   10.54
   7   2   7  423.47   10.33
  -7  -2   8  329.82    9.14
   7   2   8  341.90    9.39
   7   2   8  360.21    9.49
  -7  -2   9   45.56    3.16
   7   2   9   47.16    3.28
   7   2   9   44.11    3.28
  -7  -2  10  272.29    7.85
   7   2  10  284.29    8.74
   7   2  10  271.35    8.39
  -7  -2  11  301.94    8.22
   7   2  11  320.08    9.31
   7   2  11  304.82    9.29
   7   2  12  170.06    6.77
   7   2  12  157.71    6.45
   7   2  13   32.82    3.03
   7   2  13   30.71    2.97
   7   2  14  597.92   14.40
   7   2  14  588.71   14.20
   7   2  15    2.53    1.24
   7   2  15    2.40    1.26
   7   2  16   32.67    3.25
   7   2  16   29.78    3.15
   7   2  17   44.51    3.82
   7   2  17   38.02    3.53
   7   2  18  106.07    5.96
   7   2  18   99.94    5.79
   7   2  19  131.78    6.75
   7   2  19  140.23    6.94
   7   2  20  121.42    6.54
   7   2  20  122.81    6.57
   7   2  21  177.97    8.03
   7   2  21  171.09    7.83
   7   2  22  751.72   17.86
   7   2  22  729.18   17.61
   7   2  23   33.79    3.57
   7   2  23   38.46    3.82
   7   2  24   33.86    3.55
   7   2  24   30.09    3.36
   7   2  25  171.02    7.67
   7   2  25  172.07    7.59
   7   2  26  376.52   11.36
   7   2  26  364.67   11.17
   7   2  27  206.70    7.94
   7   2  27  210.72    8.04
   7   2  28    4.66    1.52
   7   2  28    2.77    1.40
   7  -3  28  143.72    6.14
   7  -3  27  175.07    7.12
   7  -3  26  174.05    7.32
   7  -3  25   21.21    2.80
   7  -3  24   40.80    3.78
   7  -3  23   70.59    4.95
   7  -3  22  117.47    6.39
   7  -3  21  538.38   14.53
   7   3 -20    4.39    1.71
   7  -3  20    1.17    1.35
   7   3 -19  164.35    7.67
   7  -3  19  175.28    7.77
   7   3 -18  268.79    9.84
   7  -3  18  280.51    9.90
   7   3 -17  198.90    8.15
   7  -3  17  189.74    7.91
   7   3 -16   44.17    3.81
   7  -3  16   39.21    3.56
   7   3 -16   50.58    4.43
   7   3 -15   51.28    3.93
   7  -3  15   43.33    3.59
   7   3 -15   44.18    4.09
  -7  -3 -14   56.75    3.39
   7   3 -14   63.96    4.25
   7  -3  14   62.25    4.25
   7   3 -14   67.94    4.87
   7   3 -13  756.59   16.00
  -7  -3 -13  744.25   14.49
   7  -3  13  755.47   16.38
   7   3 -13  759.98   17.53
   7   3 -12  405.71   10.67
  -7  -3 -12  410.50   10.07
   7  -3  12  411.09   11.18
   7   3 -12  419.61   12.13
  -7  -3 -11  574.33   12.41
   7   3 -11  565.50   12.66
   7  -3  11  578.91   13.50
   7   3 -11  583.07   14.37
   7   3 -10  271.21    7.84
  -7  -3 -10  254.51    7.74
   7   3 -10  264.09    8.98
   7  -3  10  271.32    8.55
   7   3  -9    9.48    1.47
   7  -3   9   13.94    1.96
   7   3  -9   10.49    1.85
  -7  -3  -8   94.38    4.74
   7   3  -8   82.74    3.83
   7  -3   8   88.36    4.55
   7   3  -8   89.00    4.77
   7  -3   7   43.00    2.48
  -7  -3  -7   51.61    3.67
   7   3  -7   39.01    2.49
   7  -3   7   46.02    3.22
   7   3  -7   44.53    3.29
   7  -3   6   42.27    2.39
  -7  -3  -6   48.69    3.59
   7  -3   6   44.26    3.08
   7   3  -6   43.33    3.16
   7  -3   5 1372.90   20.11
  -7  -3  -5 1357.47   21.51
  -7  -3  -5 1442.94   23.51
   7  -3   5 1530.81   23.45
   7   3  -5 1482.77   23.31
   7  -3   4  591.39   10.40
  -7  -3  -4  629.47   13.48
   7  -3   4  633.56   12.98
   7   3  -4  609.07   12.63
   7   3  -3  545.32   11.97
   7  -3   3  565.75    9.76
  -7  -3  -3  573.10   12.83
   7   3  -3  589.97   12.80
   7   3  -3  584.45   11.95
   7  -3   3  585.64   12.35
   7   3  -2  204.78    6.57
   7  -3   2  196.32    4.78
   7   3  -2  205.64    6.27
   7  -3   2  202.50    6.66
   7   3  -2  211.70    6.89
   7   3  -1  322.14    8.45
   7  -3   1  322.43    6.35
   7   3  -1  322.94    7.94
   7  -3   1  334.92    8.82
   7   3  -1  330.80    8.91
   7   3   0  123.81    3.53
   7   3   0  149.19    5.41
   7  -3   0  132.97    3.59
   7   3   0  138.63    4.74
   7  -3   0  136.76    5.41
   7   3   0  149.44    5.63
   7   3   1  347.73    8.75
   7  -3  -1  330.06    6.27
   7   3   1  325.16    6.72
  -7  -3   1  334.64    9.38
   7   3   1  350.04    7.83
   7   3   1  355.50    9.09
   7  -3  -1  347.49    9.01
   7   3   2  206.27    6.49
   7  -3  -2  198.91    4.46
   7   3   2  211.53    5.35
  -7  -3   2  215.90    7.27
   7   3   2  209.19    5.64
   7   3   2  201.64    6.70
   7  -3  -2  214.44    6.96
   7   3   3  560.01   11.59
  -7  -3   3  545.12   12.37
   7  -3  -3  572.76   12.32
   7   3   3  549.24   11.90
   7   3   4  587.28   11.17
  -7  -3   4  631.83   13.33
   7   3   4  600.73   12.76
   7   3   4  623.62   12.55
   7   3   5 1354.74   20.71
  -7  -3   5 1408.82   22.68
   7   3   5 1357.32   22.27
   7   3   5 1345.55   21.73
   7   3   6   49.46    2.95
  -7   3  -6   49.60    2.99
  -7  -3   6   54.51    3.55
   7   3   6   53.62    3.44
   7   3   6   56.08    3.34
  -7  -3   7   42.91    3.08
   7   3   7   42.40    3.07
   7   3   7   37.06    2.82
  -7  -3   8   80.42    4.14
   7   3   8   84.02    4.39
   7   3   8   75.96    4.09
   7   3   9    9.42    1.63
  -7  -3   9   14.38    1.98
   7   3   9   13.16    1.92
  -7  -3  10  287.09    8.02
   7   3  10  270.84    8.55
   7   3  10  272.80    8.32
  -7  -3  11  552.78   11.97
   7   3  11  578.57   13.33
   7   3  11  555.60   12.89
  -7  -3  12  399.71    9.68
   7   3  12  397.54   10.73
   7   3  12  385.04   10.80
  -7  -3  13  771.56   14.59
   7   3  13  791.83   16.70
   7   3  13  754.26   16.14
   7   3  14   63.90    4.30
   7   3  14   63.92    4.21
   7   3  15   47.67    3.82
   7   3  15   47.03    3.74
   7   3  16   45.42    3.78
   7   3  16   43.98    3.70
   7   3  17  184.00    7.81
   7   3  17  195.39    7.89
   7   3  18  293.13   10.10
   7   3  18  287.28    9.92
   7   3  19  179.29    7.84
   7   3  19  172.23    7.65
   7   3  20    4.60    1.66
   7   3  20    5.90    1.81
   7   3  21  538.04   14.51
   7   3  21  519.81   14.22
   7   3  22  124.79    6.58
   7   3  22  116.23    6.33
   7   3  23   81.03    5.28
   7   3  23   77.92    5.18
   7   3  24   39.14    3.74
   7   3  24   39.82    3.71
   7   3  25   24.83    3.01
   7   3  25   23.04    2.91
   7   3  26  164.16    7.04
   7   3  26  160.20    7.04
   7   3  27  164.00    6.89
   7   3  27  164.41    6.79
   7   3  28  146.92    6.24
   7  -4  28   74.78    4.47
   7  -4  27  230.73    7.95
   7  -4  27  217.34    8.01
   7  -4  26   70.74    4.55
   7  -4  26   73.04    4.78
   7  -4  25   89.70    5.18
   7  -4  25   82.84    5.26
   7  -4  24    6.83    1.96
   7  -4  24    8.31    1.95
   7  -4  23   74.54    5.21
   7  -4  23   72.74    4.91
   7  -4  22  237.38    9.03
   7  -4  22  230.95    9.29
   7   4 -21   43.34    4.06
   7  -4  21   55.10    4.32
   7  -4  21   51.38    4.42
   7   4 -20   63.94    4.86
   7  -4  20   67.79    4.83
   7   4 -20   69.38    5.54
   7  -4  20   71.38    5.11
   7   4 -19   55.29    4.45
   7  -4  19   58.68    4.42
   7  -4  19   60.33    4.68
   7   4 -18   48.85    4.15
   7  -4  18   49.21    4.05
   7  -4  18   54.18    4.43
   7   4 -17   61.12    4.54
   7  -4  17   70.78    4.73
   7  -4  17   68.60    4.92
   7   4 -16   60.66    4.38
   7  -4  16   59.33    4.30
   7  -4  16   60.23    4.53
   7   4 -15   92.75    5.32
   7  -4  15   95.38    5.64
   7  -4  15   95.14    5.35
   7   4 -15   96.24    5.96
   7   4 -14  309.10    9.76
  -7  -4 -14  310.34    8.39
   7  -4  14  327.73   10.43
   7  -4  14  312.71    9.85
   7   4 -14  307.28   10.80
  -7  -4 -13  391.81    9.79
   7   4 -13  400.19   10.96
   7  -4  13  411.95   11.22
   7  -4  13  386.89   11.41
   7   4 -13  405.02   12.30
  -7  -4 -12  173.35    6.23
   7   4 -12  168.63    6.59
   7  -4  12  180.15    7.04
   7  -4  12  173.05    7.17
   7   4 -12  181.68    7.74
  -7  -4 -11  117.68    5.24
   7   4 -11  121.82    5.36
   7  -4  11  132.66    5.83
   7  -4  11  131.94    6.10
   7   4 -11  127.46    6.31
   7  -4  10    3.83    1.39
  -7  -4 -10   -0.49    1.73
   7   4 -10    2.33    1.06
   7  -4  10    1.40    1.12
   7   4 -10    2.72    1.19
  -7  -4  -9   77.93    4.31
   7   4  -9   80.81    4.00
   7  -4   9   86.57    4.53
   7   4  -9   86.03    4.95
   7  -4   9   80.89    4.60
  -7  -4  -8  145.87    5.86
   7   4  -8  144.25    5.20
   7  -4   8  143.17    5.81
   7   4  -8  157.86    6.56
   7  -4   8  149.59    6.17
  -7  -4  -7  212.27    7.18
   7  -4   7  218.73    7.14
   7   4  -7  218.90    7.66
   7  -4   7  213.98    7.42
  -7  -4  -6  449.76   10.88
   7  -4   6  445.23   10.69
   7  -4   6  440.84   11.04
   7   4  -6  445.92   11.17
  -7  -4  -5  916.93   16.92
   7   4  -5  889.79   16.97
   7  -4   5  886.42   16.52
   7  -4   5  907.76   17.21
  -7  -4  -4  375.75    9.71
   7   4  -4  359.77    9.40
   7  -4   4  354.71    9.19
   7  -4   4  359.51    9.71
  -7  -4  -3  640.08   13.57
   7   4  -3  657.94   13.76
   7   4  -3  661.58   13.35
   7  -4   3  661.65   13.41
   7  -4   3  664.13   13.92
   7  -4   2  144.68    5.82
   7   4  -2  141.54    5.29
   7   4  -2  135.95    5.56
   7   4  -2  142.29    5.35
   7  -4   2  142.90    5.45
   7  -4   1  584.05   12.74
   7   4  -1  554.10   11.71
   7   4  -1  553.28   11.57
   7  -4   1  577.50   12.20
   7   4  -1  574.35   12.39
   7  -4   0  346.86    9.48
   7   4   0  342.11    8.60
  -7  -4   0  347.70    9.35
   7   4   0  336.95    8.30
   7  -4   0  358.21    9.09
   7   4   0  338.51    8.99
   7  -4  -1  584.50   12.86
   7   4   1  548.35   11.60
   7   4   1  554.62   10.09
  -7  -4   1  580.25   12.62
   7   4   1  586.82   11.39
   7   4   1  564.93   12.24
   7  -4  -1  571.24   12.26
   7   4   2  152.45    5.42
   7  -4  -2  160.76    6.22
   7   4   2  137.43    4.49
  -7  -4   2  154.57    5.98
   7  -4  -2  152.08    5.84
   7   4   2  149.45    4.97
   7   4   2  145.07    5.57
   7   4   3  619.14   12.40
   7  -4  -3  621.26   13.66
   7   4   3  590.75   11.34
  -7  -4   3  617.40   13.18
   7   4   3  617.18   11.50
   7   4   3  622.07   12.98
   7  -4  -3  657.95   13.43
   7  -4  -4  371.18   10.09
   7   4   4  333.64    8.11
  -7  -4   4  363.90    9.48
   7   4   4  352.05    7.83
   7   4   4  360.21    9.29
   7   4   4  366.13    8.92
   7   4   5  831.24   14.96
  -7  -4   5  874.25   16.24
   7   4   5  856.80   16.10
   7   4   5  837.87   15.38
  -7  -4   6  433.68   10.47
   7   4   6  439.12   10.57
   7   4   6  428.17   10.05
  -7  -4   7  214.05    6.97
   7   4   7  215.61    6.82
   7   4   7  206.11    6.96
  -7  -4   8  134.39    5.43
   7   4   8  136.55    5.66
   7   4   8  130.98    5.31
  -7  -4   9   91.48    4.49
   7   4   9   90.83    4.65
   7   4   9   86.76    4.38
   7   4  10   -0.13    0.88
  -7  -4  10    0.48    0.96
   7   4  10    2.24    1.14
  -7  -4  11  141.41    5.56
   7   4  11  149.98    6.23
   7   4  11  133.43    5.71
  -7  -4  12  155.78    5.79
   7   4  12  168.60    6.53
   7   4  12  157.78    6.59
  -7  -4  13  391.58    9.71
   7   4  13  419.34   11.08
   7   4  13  429.60   11.50
   7   4  14  288.07    9.18
   7   4  14  304.75    9.64
   7   4  15  111.01    5.81
   7   4  15  107.58    5.52
   7   4  16   63.26    4.44
   7   4  16   59.50    4.19
   7   4  17   62.10    4.45
   7   4  17   59.13    4.27
   7   4  18   55.88    4.32
   7   4  18   45.68    3.85
   7   4  19   62.80    4.59
   7   4  19   58.01    4.31
   7   4  20   60.26    4.54
   7   4  20   54.19    4.26
   7   4  21   47.93    4.05
   7   4  21   45.94    3.97
   7   4  22  240.41    9.11
   7   4  22  244.50    9.04
   7   4  23   66.53    4.72
   7   4  23   75.85    4.94
   7   4  24    9.47    2.04
   7   4  24    7.95    1.95
   7   4  25   80.41    4.93
   7   4  25   74.31    4.71
   7   4  26   72.87    4.64
   7   4  26   70.05    4.43
   7   4  27  200.06    7.41
   7   4  27  193.30    7.06
   7  -5  27   88.46    4.68
   7  -5  27   89.87    4.89
   7  -5  26  207.77    7.53
   7  -5  26  210.11    7.93
   7  -5  25   93.90    5.18
   7  -5  25   94.95    5.46
   7  -5  24   28.03    3.03
   7  -5  24   22.55    2.95
   7   5 -23   38.32    3.80
   7  -5  23   40.72    3.64
   7  -5  23   44.02    3.94
   7   5 -22   38.52    3.85
   7  -5  22   40.64    3.62
   7  -5  22   42.45    3.96
   7   5 -21  266.26   10.02
   7  -5  21  280.37    9.76
   7  -5  21  278.43   10.19
   7   5 -21  271.54   10.94
   7   5 -20  110.57    6.31
   7  -5  20  111.78    6.33
   7   5 -20   97.74    6.44
   7  -5  20  104.50    5.81
   7   5 -19  125.44    6.68
   7  -5  19  117.60    6.48
   7  -5  19  129.05    6.46
   7   5 -19  125.67    7.31
   7   5 -18   71.33    4.97
   7  -5  18   70.97    5.03
   7  -5  18   71.46    4.78
   7   5 -17   28.84    3.24
   7  -5  17   32.64    3.26
   7  -5  17   33.68    3.50
   7   5 -16   47.25    3.98
   7  -5  16   47.57    3.86
   7  -5  16   58.00    4.47
   7   5 -15   94.26    5.40
   7  -5  15   93.28    5.23
   7  -5  15   94.97    5.55
  -7  -5 -14  202.59    6.73
   7   5 -14  208.87    7.91
   7  -5  14  206.68    7.82
   7  -5  14  201.53    8.15
   7   5 -14  199.17    8.68
  -7  -5 -13  879.15   16.59
   7   5 -13  869.94   17.91
   7  -5  13  902.54   18.86
   7   5 -13  908.25   20.04
   7  -5  13  903.89   18.20
  -7  -5 -12  214.54    7.14
   7   5 -12  220.48    7.70
   7  -5  12  216.88    7.73
   7  -5  12  218.15    8.18
   7   5 -12  224.04    8.85
  -7  -5 -11  211.60    7.12
   7   5 -11  222.52    7.51
   7  -5  11  221.79    7.63
   7   5 -11  212.91    8.50
   7  -5  11  211.53    7.96
  -7  -5 -10  122.14    5.29
   7   5 -10  107.83    4.94
   7  -5  10  118.97    5.42
   7  -5  10  116.05    5.71
   7   5 -10  123.83    6.20
  -7  -5  -9  121.84    5.29
   7   5  -9  118.07    4.98
   7  -5   9  119.78    5.33
   7   5  -9  118.75    5.93
   7  -5   9  114.63    5.54
  -7  -5  -8  111.36    5.17
   7   5  -8  108.76    4.57
   7   5  -8  109.43    5.59
   7  -5   8  118.35    5.22
   7  -5   8  115.09    5.50
  -7  -5  -7  238.14    7.73
   7   5  -7  242.45    8.25
   7  -5   7  236.54    7.50
   7  -5   7  242.77    7.99
  -7  -5  -6  622.00   13.50
   7   5  -6  623.89   14.02
   7  -5   6  630.24   13.18
   7  -5   6  613.99   13.74
  -7  -5  -5  628.24   13.52
   7   5  -5  621.82   13.70
   7  -5   5  624.70   13.02
   7  -5   5  598.93   13.55
  -7  -5  -4  202.16    7.11
   7  -5   4  206.44    7.12
   7   5  -4  198.41    6.94
   7  -5   4  197.66    6.59
   7  -5   3  452.72   11.16
  -7  -5  -3  428.84   10.86
   7   5  -3  459.38   10.96
   7  -5   3  452.74   10.51
   7  -5   2  636.44   13.74
   7   5  -2  653.75   13.49
   7   5  -2  622.39   13.12
   7  -5   2  625.24   12.96
   7  -5   1  541.47   12.28
   7   5  -1  501.62   10.85
   7   5  -1  524.63   11.72
   7   5  -1  515.05   11.43
   7  -5   1  518.46   11.47
   7  -5   0  203.22    7.15
   7   5   0  215.61    6.46
  -7  -5   0  215.88    7.21
   7   5   0  212.88    6.64
   7  -5   0  211.30    6.87
   7   5   0  211.43    6.89
   7  -5  -1  552.12   12.58
   7   5   1  521.62   11.02
  -7  -5   1  554.77   12.38
   7  -5  -1  542.67   11.91
   7   5   1  521.69   11.18
   7   5   1  527.98   11.76
   7   5   2  609.85   12.20
   7  -5  -2  648.23   13.93
  -7  -5   2  622.96   13.43
   7   5   2  611.30   12.18
   7  -5  -2  620.17   13.11
   7   5   2  636.59   13.05
   7   5   3  411.71    9.59
   7  -5  -3  451.91   11.26
  -7  -5   3  433.69   10.73
   7   5   3  438.50    9.63
   7   5   3  423.80   10.24
   7   5   4  209.71    6.43
   7  -5  -4  230.35    7.78
  -7  -5   4  208.96    7.16
   7   5   4  211.67    6.20
   7   5   4  200.69    6.72
  -7  -5   5  614.07   13.44
   7   5   5  630.05   11.98
   7   5   5  655.63   12.72
   7   5   5  630.99   13.17
  -7  -5   6  609.46   13.17
   7   5   6  589.36   12.80
   7   5   6  595.16   12.19
  -7  -5   7  218.18    7.28
   7   5   7  242.93    7.61
   7   5   7  236.33    7.05
  -7  -5   8  110.95    5.03
   7   5   8  106.66    4.99
   7   5   8  104.52    4.64
  -7  -5   9  113.06    5.09
   7   5   9  113.78    4.93
   7   5   9  118.25    5.31
  -7  -5  10  102.62    4.81
   7   5  10  107.25    5.13
   7   5  10  103.15    4.79
  -7  -5  11  206.33    6.97
   7   5  11  208.47    7.47
   7   5  11  229.06    7.45
  -7  -5  12  232.01    7.31
   7   5  12  235.65    7.75
   7   5  12  228.23    8.02
  -7  -5  13  864.25   16.20
   7   5  13  881.51   17.91
   7   5  13  872.97   17.24
   7   5  14  206.34    7.83
   7   5  14  204.59    7.44
   7   5  15  100.67    5.27
   7   5  15  114.69    5.85
   7   5  16   45.88    3.67
   7   5  16   43.79    3.72
   7   5  17   26.37    2.90
   7   5  17   22.89    2.79
   7   5  18   64.35    4.40
   7   5  18   55.18    4.28
   7   5  19  138.68    6.51
   7   5  19  134.63    6.62
   7   5  20   93.32    5.34
   7   5  20   99.54    5.66
   7   5  21  260.98    9.10
   7   5  21  262.05    9.38
   7   5  22   37.96    3.47
   7   5  22   43.64    3.76
   7   5  23   32.37    3.32
   7   5  23   31.51    3.13
   7   5  24   25.21    2.98
   7   5  24   26.19    2.85
   7   5  25   89.19    5.02
   7   5  25   84.72    4.73
   7   5  26  203.59    7.48
   7  -6  26   88.85    4.60
   7  -6  26   90.95    4.94
   7  -6  25  104.55    5.17
   7  -6  25  107.11    5.60
   7  -6  24   46.30    3.64
   7  -6  24   43.92    3.79
   7   6 -23   64.97    4.77
   7  -6  23   67.89    4.44
   7  -6  23   65.68    4.64
   7   6 -22  132.87    6.84
   7  -6  22  144.84    6.95
   7   6 -22  132.97    7.41
   7  -6  22  134.32    6.39
   7   6 -21  169.15    7.80
   7  -6  21  176.39    7.41
   7  -6  21  166.22    7.58
   7   6 -21  155.56    8.16
   7   6 -20   17.69    2.72
   7  -6  20   22.02    2.70
   7  -6  20   20.72    2.87
   7   6 -20   25.02    3.32
   7   6 -19   74.19    5.13
   7  -6  19   75.41    5.14
   7   6 -19   63.48    5.22
   7  -6  19   76.14    4.85
   7   6 -18  110.95    6.20
   7  -6  18  108.28    5.76
   7  -6  18  104.56    6.02
   7   6 -18  121.53    7.11
   7   6 -17  107.46    6.05
   7  -6  17  115.87    6.27
   7  -6  17  112.12    5.82
   7   6 -16   80.61    5.15
   7  -6  16   80.16    4.86
   7  -6  16   80.19    5.19
   7   6 -15  102.48    5.67
   7  -6  15  112.47    5.66
   7  -6  15  103.22    5.80
  -7  -6 -14  159.29    6.07
   7   6 -14  172.00    7.20
   7  -6  14  169.28    6.95
   7  -6  14  162.10    7.20
  -7  -6 -13  882.37   16.94
   7   6 -13  895.72   18.33
   7  -6  13  894.56   17.97
   7   6 -13  912.07   20.42
   7  -6  13  915.85   19.05
  -7  -6 -12  355.03    9.69
   7   6 -12  341.94   10.06
   7  -6  12  370.44   10.29
   7   6 -12  359.13   11.74
   7  -6  12  355.99   10.75
  -7  -6 -11   55.35    3.69
   7   6 -11   58.86    3.88
   7  -6  11   56.79    3.78
   7   6 -11   58.62    4.53
   7  -6  11   56.69    4.07
  -7  -6 -10   36.72    3.08
   7   6 -10   30.43    2.75
   7  -6  10   33.87    2.89
   7   6 -10   34.44    3.46
   7  -6  10   33.03    3.10
  -7  -6  -9  862.47   16.81
   7   6  -9  849.30   16.13
   7  -6   9  846.94   17.42
   7   6  -9  848.67   18.32
   7  -6   9  830.65   16.43
  -7  -6  -8  201.74    7.17
   7   6  -8  202.14    6.53
   7   6  -8  203.76    7.93
   7  -6   8  196.22    6.88
   7  -6   8  200.98    7.42
  -7  -6  -7  419.78   10.82
   7   6  -7  415.71   11.58
   7  -6   7  418.96   10.45
   7  -6   7  433.28   11.24
  -7  -6  -6  116.03    5.35
   7   6  -6  111.19    5.52
   7  -6   6  117.92    5.08
   7  -6   6  122.08    5.53
  -7  -6  -5 1825.88   28.47
   7   6  -5 1802.57   28.98
   7  -6   5 1779.84   28.36
   7  -6   5 1812.56   27.45
   7  -6   4  825.10   16.37
  -7  -6  -4  796.91   16.18
   7   6  -4  823.53   16.59
   7  -6   4  810.98   15.41
   7  -6   3 1105.64   19.77
  -7  -6  -3 1073.90   19.60
   7   6  -3 1073.42   19.63
   7  -6   3 1068.60   18.59
   7  -6   2   10.98    1.89
   7   6  -2   11.40    1.79
   7  -6   2   12.01    1.67
   7  -6   1  387.43   10.30
   7   6  -1  383.72    9.93
   7   6  -1  368.30    9.55
   7  -6   1  385.71    9.60
   7  -6   0  115.24    5.40
  -7  -6   0  117.65    5.42
   7  -6   0  115.96    4.96
   7   6   0  119.80    5.05
   7   6   0  114.96    5.07
   7  -6  -1  379.68   10.22
  -7  -6   1  362.57    8.65
  -7  -6   1  376.01   10.13
   7   6   1  370.68    9.49
   7  -6  -1  366.60    9.45
   7   6   1  375.24    9.49
   7  -6  -2   10.42    1.84
  -7  -6   2   14.00    2.10
   7   6   2   15.09    1.97
   7   6   2   14.20    1.74
   7  -6  -3 1091.01   20.15
  -7  -6   3 1068.57   19.56
   7   6   3 1083.13   18.53
   7   6   3 1075.37   18.78
  -7  -6   4  792.64   16.01
   7   6   4  810.53   15.07
   7   6   4  784.18   15.19
  -7  -6   5 1837.76   28.87
   7   6   5 1885.14   27.62
   7   6   5 1842.67   28.01
  -7  -6   6  107.25    5.13
   7   6   6  102.40    4.79
  -7  -6   7  416.33   10.71
   7   6   7  412.80   10.35
  -7  -6   8  201.65    7.14
   7   6   8  204.14    6.47
   7   6   8  207.67    7.09
   7   6   9  830.48   16.42
   7   6   9  821.27   15.46
  -7  -6  10   37.86    3.06
   7   6  10   34.08    2.69
   7   6  10   33.14    2.85
  -7  -6  11   44.21    3.23
   7   6  11   45.86    3.41
   7   6  11   45.17    3.19
  -7  -6  12  385.61   10.00
   7   6  12  369.02   10.43
   7   6  12  380.65    9.92
  -7  -6  13  908.68   16.84
   7   6  13  896.21   17.96
   7   6  13  850.47   16.87
   7   6  14  147.66    6.44
   7   6  14  149.50    6.15
   7   6  15   93.41    4.90
   7   6  15  100.01    5.34
   7   6  16   73.21    4.65
   7   6  16   79.55    4.55
   7   6  17   95.28    5.06
   7   6  17  101.04    5.51
   7   6  18  112.87    5.89
   7   6  18  113.19    5.58
   7   6  19   72.16    4.51
   7   6  19   89.37    5.22
   7   6  20   19.90    2.59
   7   6  20   16.37    2.30
   7   6  21  156.94    6.94
   7   6  22  131.81    6.28
   7   6  23   67.44    4.43
   7   6  24   47.70    3.68
   7   6  25   92.60    4.90
  -7  -7 -26  128.25    5.70
   7  -7  25  138.09    6.06
   7   7 -24   41.71    3.72
   7  -7  24   42.38    3.56
   7   7 -23   74.80    5.00
   7  -7  23   77.37    4.84
   7   7 -22   63.31    4.69
   7  -7  22   62.72    4.07
   7  -7  22   63.09    4.51
   7   7 -22   60.01    4.96
   7   7 -21  144.69    7.13
   7  -7  21  148.54    6.48
   7  -7  21  154.07    7.09
   7   7 -21  147.84    7.86
   7   7 -20   57.98    4.56
   7  -7  20   63.14    4.26
   7  -7  20   59.24    4.45
   7   7 -20   61.35    5.10
   7   7 -19  284.37   10.20
   7  -7  19  286.36    9.31
   7   7 -19  265.73   10.95
   7  -7  19  289.50    9.97
   7   7 -18  225.38    8.95
   7  -7  18  237.50    8.35
   7  -7  18  236.83    8.96
   7   7 -17  166.80    7.60
   7   7 -17  167.78    8.49
   7  -7  17  178.25    7.75
   7  -7  17  168.68    6.97
   7   7 -16   67.34    4.73
   7  -7  16   71.93    4.46
   7  -7  16   73.91    4.95
   7   7 -15  229.54    8.73
   7  -7  15  235.93    8.23
   7  -7  15  258.86    9.21
  -7  -7 -14  196.80    6.94
   7   7 -14  198.19    7.84
   7  -7  14  197.34    7.99
   7  -7  14  192.23    7.27
   7   7 -13   53.06    3.95
  -7  -7 -13   42.98    3.35
   7  -7  13   42.06    3.35
   7   7 -13   43.06    4.19
   7  -7  13   51.69    4.02
   7   7 -12   23.75    2.71
  -7  -7 -12   27.98    2.74
   7  -7  12   27.88    2.98
   7  -7  12   25.28    2.63
   7   7 -12   22.08    3.09
   7   7 -11  244.83    8.22
  -7  -7 -11  253.55    8.27
   7  -7  11  263.49    8.98
   7  -7  11  247.19    8.06
   7   7 -11  236.43    9.41
   7   7 -10  127.12    5.63
  -7  -7 -10  125.61    5.74
   7   7 -10  122.88    6.59
   7  -7  10  133.80    5.67
   7  -7  10  122.53    5.94
   7   7  -9   25.81    2.58
  -7  -7  -9   29.59    2.88
   7   7  -9   35.37    3.51
   7  -7   9   29.45    2.66
   7  -7   9   28.68    2.87
   7   7  -8  149.99    5.72
  -7  -7  -8  143.80    6.18
   7   7  -8  153.01    7.05
   7  -7   8  154.75    5.99
   7  -7   8  156.42    6.53
  -7  -7  -7 1470.01   24.90
   7   7  -7 1527.05   26.63
   7  -7   7 1484.79   25.11
   7  -7   7 1465.80   23.78
  -7  -7  -6  443.58   11.55
   7   7  -6  446.79   12.30
   7  -7   6  450.48   11.58
   7  -7   6  472.06   10.88
   7  -7   5   76.59    4.45
  -7  -7  -5   77.82    4.50
   7   7  -5   85.76    4.92
   7  -7   5   79.17    4.05
   7  -7   4  138.05    5.89
  -7  -7  -4  139.08    6.02
   7   7  -4  141.72    6.26
   7  -7   4  135.05    5.34
   7  -7   3  419.33   10.86
  -7  -7  -3  377.23   10.49
   7   7  -3  401.94   10.95
   7  -7   3  400.86    9.77
   7  -7   2  636.56   14.07
   7   7  -2  623.37   14.15
   7  -7   2  655.63   13.21
   7  -7   1  112.71    5.34
  -7  -7  -1  116.39    4.98
   7  -7   1  123.09    5.05
   7   7  -1  116.32    5.42
   7  -7   0   13.60    1.98
  -7  -7   0   13.73    1.77
  -7  -7   0   14.94    2.14
   7  -7   0   15.50    1.85
   7   7   0   13.15    1.71
   7   7   0   13.96    2.14
  -7  -7   1  103.90    4.52
   7  -7  -1  115.62    5.43
  -7  -7   1  106.31    5.28
   7   7   1  104.54    4.65
   7   7   1  106.14    5.06
   7  -7  -2  676.22   14.72
  -7  -7   2  661.78   14.69
   7   7   2  683.50   14.34
   7   7   2  649.68   13.37
  -7  -7   3  382.24   10.60
   7   7   3  411.43   10.45
   7   7   3  385.63    9.64
  -7  -7   4  144.30    6.22
   7   7   4  152.78    5.69
  -7  -7   5   84.08    4.70
   7   7   5   81.56    4.15
  -7  -7   6  456.27   11.62
   7   7   6  439.88   10.58
  -7  -7   7 1510.08   24.97
   7   7   7 1437.17   23.56
  -7  -7   8  140.02    6.03
   7   7   8  147.51    5.80
  -7  -7   9   20.91    2.49
   7   7   9   21.68    2.34
  -7  -7  10  110.27    5.26
   7   7  10  110.57    5.14
  -7  -7  11  285.75    8.64
   7   7  11  257.47    8.26
  -7  -7  12   26.24    2.66
   7   7  12   22.96    2.52
  -7  -7  13   54.22    3.65
   7   7  13   58.15    3.88
   7   7  14  182.04    7.05
   7   7  15  224.47    7.98
   7   7  16   79.29    4.67
   7   7  17  188.25    7.37
   7   7  18  235.81    8.30
   7   7  19  266.46    8.91
   7   7  20   59.02    4.07
   7   7  21  142.65    6.31
   7   7  22   63.26    4.16
  -7  -8 -25   47.48    3.66
  -7  -8 -24   26.59    2.96
   7   8 -24   24.18    2.79
   7  -8  24   23.32    2.52
   7   8 -23   78.14    4.97
   7  -8  23   80.27    4.65
   7   8 -22   22.17    2.85
   7  -8  22   31.61    3.10
   7   8 -22   25.62    3.38
   7   8 -21  164.80    7.46
   7  -8  21  160.59    6.93
   7   8 -21  167.26    8.25
   7   8 -20   93.32    5.68
   7   8 -20  105.69    6.65
   7  -8  20   91.83    5.28
   7   8 -19  239.66    9.21
   7  -8  19  240.07    8.05
   7   8 -19  245.72   10.34
   7  -8  19  243.25    8.88
   7  -8  18    6.20    1.83
   7   8 -18    5.36    1.82
   7  -8  18    5.52    1.66
   7   8 -18    6.35    2.18
   7   8 -17   70.06    4.89
   7  -8  17   67.65    4.66
   7  -8  17   66.05    4.16
   7   8 -17   69.27    5.47
   7   8 -16  266.03    9.66
   7  -8  16  302.20    9.92
   7  -8  16  273.41    8.69
   7   8 -16  287.92   11.32
   7   8 -15  232.83    8.83
   7  -8  15  240.07    8.77
   7  -8  15  238.53    7.96
   7  -8  14   11.75    2.15
   7   8 -14   11.13    2.13
  -7  -8 -14   11.87    1.97
   7  -8  14   12.68    1.94
   7   8 -13  190.21    7.66
  -7  -8 -13  208.85    7.42
   7  -8  13  207.70    7.26
   7  -8  13  196.48    7.78
   7   8 -12  718.35   16.12
  -7  -8 -12  749.20   15.81
   7   8 -12  724.81   18.42
   7  -8  12  751.03   15.34
   7  -8  12  770.33   16.74
   7   8 -11  502.85   12.70
  -7  -8 -11  512.69   12.66
   7   8 -11  533.92   14.99
   7  -8  11  513.24   12.03
   7  -8  11  515.99   13.10
   7   8 -10   76.16    4.48
  -7  -8 -10   77.49    4.66
   7   8 -10   81.22    5.45
   7  -8  10   77.54    4.68
   7  -8  10   76.37    4.17
  -7  -8  -9  141.91    6.25
   7   8  -9  127.29    5.62
   7  -8   9  138.07    6.19
   7   8  -9  130.85    6.89
   7  -8   9  138.04    5.57
   7   8  -8  125.83    5.40
  -7  -8  -8  137.58    6.17
   7   8  -8  135.77    6.84
   7  -8   8  124.07    5.23
   7  -8   8  120.09    5.77
   7  -8   7  116.67    5.59
  -7  -8  -7  124.33    5.88
   7   8  -7  117.86    6.30
   7  -8   7  123.30    5.11
   7  -8   6  304.94    9.27
  -7  -8  -6  290.34    9.30
   7  -8   6  290.54    8.16
   7   8  -6  308.32   10.22
   7  -8   5  766.81   16.07
  -7  -8  -5  743.63   16.26
   7   8  -5  791.17   17.39
   7  -8   5  770.26   14.69
  -7  -8  -4  108.98    5.52
   7   8  -4  122.38    6.10
   7  -8   4  112.01    4.77
   7  -8   3  183.41    6.89
  -7  -8  -3  172.56    6.62
   7   8  -3  178.96    7.34
   7  -8   3  175.68    6.05
   7  -8   2   70.78    4.16
  -7  -8  -2   59.64    3.76
   7  -8   2   64.14    3.56
   7   8  -2   59.23    4.18
  -7  -8  -1  255.25    7.94
   7  -8   1  254.73    8.25
   7   8  -1  257.53    8.72
  -7  -8   0  134.46    5.52
   7  -8   0  136.75    5.93
  -7  -8   0  134.13    6.15
   7   8   0  141.04    6.22
  -7  -8   1  246.82    7.53
   7  -8  -1  250.54    8.29
  -7  -8   1  240.68    8.44
   7   8   1  257.64    8.53
  -7  -8   2   59.34    3.53
  -7  -8   2   62.36    4.20
   7   8   2   63.16    4.18
  -7  -8   3  161.25    6.79
  -7  -8   4  119.56    5.82
  -7  -8   5  741.01   16.13
  -7  -8   6  299.47    9.44
  -7  -8   7  103.53    5.33
  -7  -8   8  129.05    5.93
  -7  -8   9  131.80    6.01
  -7  -8  10   71.80    4.41
  -7  -8  11  540.67   12.92
  -7  -8  12  712.99   15.25
  -7  -8  13  207.98    7.35
  -7  -9 -24   60.21    4.03
  -7  -9 -23   48.15    3.77
   7   9 -23   46.89    3.70
   7   9 -23   49.87    4.20
  -7  -9 -22  112.16    5.85
   7   9 -22  111.66    5.81
   7   9 -22  106.09    6.22
  -7  -9 -21   46.10    3.92
   7   9 -21   44.63    3.89
   7   9 -21   44.27    4.28
   7   9 -20   39.12    3.66
   7   9 -20   42.22    4.27
   7  -9  20   34.52    3.18
   7   9 -19  123.94    6.41
   7   9 -19  106.95    6.75
   7  -9  19  116.54    5.69
   7   9 -18  219.84    8.66
   7   9 -18  223.44    9.88
   7  -9  18  214.12    7.93
   7   9 -17  333.82   10.93
   7   9 -17  338.81   12.35
   7  -9  17  343.58   10.33
   7   9 -16  140.50    6.84
   7   9 -16  146.26    7.98
   7  -9  16  132.50    6.24
   7   9 -15  502.90   13.46
   7  -9  15  459.71   12.34
   7   9 -14  137.64    6.61
  -7  -9 -14  130.28    5.75
   7  -9  14  144.16    6.48
   7   9 -13   52.43    4.06
  -7  -9 -13   51.27    3.77
   7  -9  13   53.36    3.95
  -7  -9 -12   15.51    2.31
   7   9 -12   16.84    2.49
   7  -9  12   17.55    2.40
   7   9 -11   74.97    4.61
  -7  -9 -11   77.78    4.77
   7  -9  11   73.84    4.59
   7   9 -11   82.44    5.81
   7   9 -10  549.38   13.35
  -7  -9 -10  587.34   14.05
   7  -9  10  581.36   13.82
   7   9 -10  594.48   16.07
   7  -9   9   86.58    4.85
   7   9  -9   80.36    4.58
  -7  -9  -9   86.68    4.96
   7   9  -9   82.20    5.61
   7  -9   8  124.98    5.81
  -7  -9  -8  123.06    5.97
   7   9  -8  125.68    6.79
   7  -9   7 1063.96   19.86
  -7  -9  -7 1045.58   20.67
  -7  -9  -7 1006.89   20.18
   7   9  -7 1043.14   22.06
   7  -9   6   82.66    4.68
  -7  -9  -6   77.39    4.83
  -7  -9  -6   84.33    5.00
   7   9  -6   84.24    5.43
   7  -9   5  122.06    5.65
  -7  -9  -5  122.55    5.90
  -7  -9  -5  128.62    6.21
   7   9  -5  136.34    6.79
   7  -9   4   84.75    4.63
  -7  -9  -4   79.47    4.68
  -7  -9  -4   83.33    4.98
   7   9  -4   81.43    5.21
  -7  -9  -3  238.02    8.17
   7  -9   3  247.25    8.10
   7   9  -3  239.89    8.96
   7  -9   2  367.73   10.10
  -7  -9  -2  337.00    9.87
   7   9  -2  359.46   11.01
  -7  -9  -1  157.40    6.30
   7  -9   1  153.76    6.28
   7   9  -1  154.09    6.90
   7  -9   0   74.69    4.33
  -7  -9   0   67.78    4.08
  -7  -9   0   76.41    4.78
   7   9   0   70.63    4.67
  -7  -9   1  160.27    6.21
  -7  -9   1  164.89    7.12
   7   9   1  178.40    7.33
  -7  -9   2  353.93    9.57
   7   9   2  365.96   10.94
  -7  -9   2  361.89   10.87
  -7  -9   3  228.96    8.46
  -7  -9   4   75.06    4.77
  -7  -9   5  139.22    6.50
  -7  -9   6   87.42    5.12
  -7  -9   7 1009.35   20.02
  -7  -9   8  114.75    5.76
  -7  -9   9   68.89    4.41
  -7  -9  10  582.79   13.98
  -7  -9  11   69.05    4.37
  -7  -9  12   13.30    2.19
  -7  -9  13   58.03    3.94
  -7 -10 -23  102.81    5.18
   7  10 -23  107.65    5.77
  -7 -10 -22   86.91    4.95
   7  10 -22   92.43    5.54
  -7 -10 -21  125.64    6.17
   7  10 -21  128.34    6.09
   7  10 -21  139.94    7.08
   7  10 -20   31.23    3.22
   7  10 -20   32.02    3.65
   7  10 -19  196.48    7.98
   7  10 -19  204.40    9.08
   7  10 -18   59.88    4.45
   7  10 -18   65.21    5.31
  -7 -10 -17    6.57    1.97
   7  10 -17    7.74    1.92
   7  10 -17    6.24    2.14
  -7 -10 -16  166.03    7.77
   7  10 -16  185.14    7.74
   7  10 -16  178.23    8.80
  -7 -10 -15   16.55    2.74
   7  10 -15   13.51    2.30
   7 -10  15   15.82    2.26
   7  10 -15   19.98    3.18
   7 -10  14   68.99    4.30
  -7 -10 -14   78.25    5.29
   7  10 -14   70.19    4.72
  -7 -10 -14   71.02    4.31
   7 -10  13   91.94    4.95
  -7 -10 -13   97.84    5.91
   7  10 -13   96.09    5.47
  -7 -10 -13   95.24    5.11
   7 -10  12  100.77    5.15
  -7 -10 -12   97.79    5.88
   7  10 -12   89.21    5.22
  -7 -10 -12   95.75    5.21
   7 -10  11  102.83    5.23
  -7 -10 -11  111.24    6.21
   7  10 -11   98.97    5.38
  -7 -10 -11  110.43    5.71
   7 -10  10   34.35    3.07
  -7 -10 -10   26.89    3.28
   7  10 -10   29.50    3.00
  -7 -10 -10   29.71    3.17
   7  10 -10   38.93    4.10
   7 -10   9    6.29    1.59
  -7 -10  -9    5.71    1.74
   7  10  -9    3.26    1.40
  -7 -10  -9    4.93    1.74
   7  10  -9    6.17    2.00
   7 -10   8   14.33    2.13
  -7 -10  -8   10.78    2.14
  -7 -10  -8   11.87    2.33
   7  10  -8    9.16    2.28
  -7 -10  -7  253.40    9.12
   7 -10   7  254.24    8.23
  -7 -10  -7  251.23    9.01
   7  10  -7  255.45   10.06
  -7 -10  -6  157.37    6.99
   7 -10   6  152.12    6.26
  -7 -10  -6  149.31    6.93
   7  10  -6  171.78    8.03
  -7 -10  -5  205.37    7.97
   7 -10   5  214.32    7.44
  -7 -10  -5  208.28    8.18
   7  10  -5  200.95    8.62
  -7 -10  -4  306.08    9.73
   7 -10   4  291.09    8.82
  -7 -10  -4  286.06    9.78
   7  10  -4  292.51   10.38
  -7 -10  -3  100.67    5.36
   7 -10   3   95.98    4.86
   7  10  -3  107.60    6.11
  -7 -10  -2  248.98    8.54
   7 -10   2  249.87    8.06
   7  10  -2  260.67    9.60
  -7 -10  -1   62.63    4.14
   7  10  -1   66.42    4.78
  -7 -10   0   45.10    3.52
  -7 -10   0   40.26    3.71
   7  10   0   49.25    4.09
  -7 -10   1   65.06    4.09
  -7 -10   1   66.64    4.74
   7  10   1   64.02    4.65
  -7 -10   2  230.66    7.81
  -7 -10   2  246.67    9.04
  -7 -10   3  117.60    6.10
  -7 -10   4  272.54    9.51
  -7 -10   5  214.67    8.33
  -7 -10   6  145.81    6.82
  -7 -10   7  260.79    9.12
  -7 -10   8    9.00    1.88
  -7 -10   9    6.34    1.85
  -7 -10  10   38.75    3.49
  -7 -10  11  103.69    5.45
  -7 -10  12  101.38    5.29
  -7 -10  13   90.24    4.93
  -7 -11 -22   58.87    3.94
   7  11 -22   59.23    4.26
  -7 -11 -21   51.09    3.86
   7  11 -21   54.52    4.26
   7  11 -20   83.11    5.46
   7  11 -19   61.11    4.83
  -7 -11 -18  153.07    6.99
   7  11 -18  147.02    7.62
  -7 -11 -17  183.86    7.91
   7  11 -17  201.47    9.02
  -7 -11 -16   70.26    4.90
   7  11 -16   69.05    4.60
   7  11 -16   63.72    5.22
  -7 -11 -15  109.85    6.20
   7  11 -15  112.16    5.86
   7  11 -15  113.53    7.00
  -7 -11 -14   23.17    3.19
   7  11 -14   16.75    2.45
   7  11 -14   18.75    3.21
  -7 -11 -13   30.88    3.49
   7  11 -13   25.58    3.04
  -7 -11 -13   28.00    3.01
  -7 -11 -12   20.10    2.93
  -7 -11 -12   17.36    2.44
   7  11 -12   17.82    2.57
  -7 -11 -11   26.40    3.21
   7  11 -11   23.76    2.80
  -7 -11 -11   33.81    3.24
  -7 -11 -10  206.52    8.53
  -7 -11 -10  210.19    8.11
  -7 -11  -9  231.03    9.04
  -7 -11  -9  231.49    8.70
   7  11  -9  249.32   10.21
  -7 -11  -8  166.55    7.50
  -7 -11  -8  163.90    7.29
   7  11  -8  168.11    8.31
  -7 -11  -7  539.76   14.17
  -7 -11  -7  542.02   14.11
   7  11  -7  546.84   15.54
  -7 -11  -6  116.79    6.12
  -7 -11  -6  111.56    6.01
   7  11  -6  120.34    6.85
  -7 -11  -5   36.23    3.51
  -7 -11  -5   35.02    3.53
   7  11  -5   37.44    3.86
  -7 -11  -4   26.03    2.98
  -7 -11  -4   20.67    2.84
   7  11  -4   22.51    3.06
  -7 -11  -3  151.18    6.78
   7  11  -3  152.84    7.55
  -7 -11  -2  236.49    8.52
   7  11  -2  239.31    9.40
  -7 -11  -1  225.55    8.19
   7  11  -1  220.09    8.93
  -7 -11   0  116.94    5.78
  -7 -11   0  115.80    6.23
   7  11   0  114.05    6.37
  -7 -11   1  213.94    7.87
  -7 -11   1  217.82    8.68
   7  11   1  231.54    9.08
  -7 -11   2  223.08    7.94
  -7 -11   2  250.02    9.29
   7  11   2  254.23    9.51
  -7 -11   3  152.32    7.18
   7  11   3  156.70    7.43
  -7 -11   4   25.89    3.16
  -7 -11   5   34.87    3.49
  -7 -11   6  119.52    6.29
  -7 -11   7  543.25   14.06
  -7 -11   8  157.19    7.05
  -7 -11   9  241.00    8.73
  -7 -11  10  209.34    8.02
  -7 -11  11   25.55    2.82
  -7 -11  12   20.35    2.57
   7  12 -20   21.44    2.76
   7  12 -19   28.44    3.25
  -7 -12 -18   35.48    3.39
   7  12 -18   37.08    3.74
  -7 -12 -17   11.10    2.26
   7  12 -17    9.51    2.26
  -7 -12 -16   35.97    3.54
   7  12 -16   35.48    3.90
  -7 -12 -15   69.29    4.83
   7  12 -15   69.23    5.28
  -7 -12 -14   31.41    3.43
   7  12 -14   32.37    3.94
  -7 -12 -13    4.96    1.75
  -7 -12 -13    2.49    1.34
   7  12 -13    1.65    1.76
  -7 -12 -12   97.59    5.77
  -7 -12 -12   93.81    5.21
  -7 -12 -11   59.32    4.60
  -7 -12 -11   69.71    4.57
  -7 -12 -10  127.88    6.66
  -7 -12 -10  127.80    6.28
  -7 -12  -9   35.41    3.61
  -7 -12  -9   32.75    3.31
  -7 -12  -8   17.45    2.75
  -7 -12  -8   21.62    2.85
   7  12  -8   23.29    3.33
  -7 -12  -7   81.77    5.25
  -7 -12  -7   81.46    5.20
   7  12  -7   76.01    5.57
  -7 -12  -6  349.02   11.04
  -7 -12  -6  328.23   10.85
   7  12  -6  352.49   12.12
  -7 -12  -5  224.21    8.64
  -7 -12  -5  222.35    8.75
   7  12  -5  212.32    9.25
  -7 -12  -4  144.90    6.80
  -7 -12  -4  149.09    7.11
   7  12  -4  146.78    7.58
  -7 -12  -3  208.36    8.21
   7  12  -3  223.59    9.28
  -7 -12  -2  876.87   18.64
   7  12  -2  885.37   20.17
  -7 -12  -1  180.82    7.43
   7  12  -1  173.40    8.12
  -7 -12   0   28.27    3.09
  -7 -12   0   34.95    3.58
   7  12   0   28.94    3.65
  -7 -12   1  183.71    7.43
  -7 -12   1  195.32    8.25
   7  12   1  184.38    8.28
  -7 -12   2  870.96   18.00
  -7 -12   2  881.43   19.55
   7  12   2  899.52   19.87
  -7 -12   3  220.35    8.90
   7  12   3  220.73    8.99
  -7 -12   4  150.35    7.22
  -7 -12   5  220.43    8.81
  -7 -12   6  363.61   11.42
  -7 -12   7   74.26    4.93
  -7 -12   8   23.54    2.94
  -7 -12   9   35.78    3.48
  -7 -12  10  131.55    6.30
  -7 -12  11   63.27    4.33
  -7 -12  12   88.65    4.99
  -7 -13 -18    5.80    1.65
   7  13 -18    9.53    2.06
  -7 -13 -17  134.18    6.16
   7  13 -17  120.23    6.39
  -7 -13 -16   49.33    3.86
   7  13 -16   53.76    4.45
  -7 -13 -15   80.43    4.99
   7  13 -15   89.47    5.71
  -7 -13 -14   79.38    5.02
   7  13 -14   79.80    5.54
  -7 -13 -13   13.25    2.39
   7  13 -13   10.39    2.34
  -7 -13 -12    9.63    2.22
  -7 -13 -12    8.61    1.97
   7  13 -12    8.78    2.29
  -7 -13 -11   -0.32    1.34
  -7 -13 -11    0.75    1.33
  -7 -13 -10  110.76    6.08
  -7 -13 -10  103.72    5.59
  -7 -13  -9  369.78   11.52
  -7 -13  -9  356.27   10.92
  -7 -13  -8  139.13    6.86
  -7 -13  -8  143.38    6.78
   7  13  -8  139.25    7.49
  -7 -13  -7  229.26    8.88
  -7 -13  -7  235.87    8.88
   7  13  -7  236.97    9.79
  -7 -13  -6   69.76    4.84
  -7 -13  -6   74.80    5.02
   7  13  -6   76.18    5.49
  -7 -13  -5    5.33    1.81
  -7 -13  -5    8.69    2.09
   7  13  -5    7.15    2.31
  -7 -13  -4   22.58    2.89
  -7 -13  -4   25.81    3.10
   7  13  -4   28.27    3.42
  -7 -13  -3   30.57    3.28
  -7 -13  -3   25.03    3.07
   7  13  -3   30.85    3.51
  -7 -13  -2   18.98    2.69
   7  13  -2   21.61    3.19
  -7 -13  -1  439.99   12.29
   7  13  -1  443.22   13.41
  -7 -13   0  257.90    9.04
  -7 -13   0  267.48    9.89
   7  13   0  276.18   10.34
  -7 -13   1  447.62   12.14
  -7 -13   1  459.40   13.25
   7  13   1  439.65   13.26
  -7 -13   2   21.54    2.87
   7  13   2   19.55    3.06
  -7 -13   3   34.74    3.65
   7  13   3   37.06    3.92
   7  13   4   34.33    3.80
  -7 -13   4   23.68    3.05
  -7 -13   5    8.15    2.07
   7  13   5   14.46    2.92
  -7 -13   6   74.81    4.99
  -7 -13   7  222.96    8.61
  -7 -13   8  140.09    6.72
  -7 -13   9  389.29   11.39
  -7 -13  10   99.25    5.41
  -7 -13  11    1.07    1.43
  -7 -13  12    8.78    1.86
  -7 -14 -16   17.79    2.40
   7  14 -16   17.16    2.48
  -7 -14 -15   80.66    4.76
   7  14 -15   82.53    5.21
  -7 -14 -14  154.77    6.70
   7  14 -14  156.17    7.34
  -7 -14 -13   48.32    3.88
   7  14 -13   46.44    4.11
  -7 -14 -12   12.19    2.22
   7  14 -12    9.06    2.16
  -7 -14 -11   33.29    3.46
  -7 -14 -11   33.72    3.15
  -7 -14 -10  194.61    7.93
  -7 -14 -10  184.95    7.30
  -7 -14  -9  158.80    7.19
  -7 -14  -9  165.85    7.02
  -7 -14  -8   45.70    3.99
  -7 -14  -8   50.09    4.04
  -7 -14  -7   91.49    5.44
  -7 -14  -7   86.17    5.23
   7  14  -7   85.57    5.79
  -7 -14  -6  348.69   10.96
  -7 -14  -6  369.72   11.29
   7  14  -6  365.50   12.13
  -7 -14  -5   40.88    3.73
  -7 -14  -5   45.86    3.98
   7  14  -5   41.90    4.06
  -7 -14  -4    4.28    1.70
  -7 -14  -4    5.82    2.12
   7  14  -4    6.05    2.09
  -7 -14  -3   55.58    4.22
  -7 -14  -3   56.79    4.48
   7  14  -3   54.44    4.54
  -7 -14  -2  282.25    9.57
   7  14  -2  296.24   10.69
  -7 -14  -1   31.70    3.26
   7  14  -1   41.45    4.10
  -7 -14   0    2.18    1.34
  -7 -14   0    2.91    1.70
   7  14   0    2.68    2.02
  -7 -14   1   36.13    3.36
  -7 -14   1   41.72    3.84
   7  14   1   38.66    3.96
  -7 -14   2  283.11   10.09
   7  14   2  294.23   10.50
  -7 -14   3   60.81    4.64
   7  14   3   58.38    4.73
  -7 -14   4    3.77    1.77
   7  14   4   12.31    2.63
  -7 -14   5   47.03    4.12
   7  14   5   59.62    4.68
   7  14   6  373.72   11.66
  -7 -14   6  364.71   11.29
   7  14   7   96.37    5.75
  -7 -14   7   86.59    5.20
   7  14   8   60.65    4.69
  -7 -14   8   42.11    3.73
   7  14   9  178.60    7.51
  -7 -14   9  161.19    6.87
  -7 -14  10  174.30    6.98
  -7 -14  11   36.02    3.20
  -7 -15 -13   11.05    2.00
   7  15 -13   12.01    2.16
  -7 -15 -12    9.94    1.95
   7  15 -12    7.98    1.96
  -7 -15 -11   15.97    2.39
   7  15 -11   12.56    2.31
  -7 -15 -10    1.11    1.32
  -7 -15 -10    2.10    1.44
  -7 -15  -9   71.03    4.62
  -7 -15  -9   71.71    4.46
  -7 -15  -8   78.26    4.86
  -7 -15  -8   68.76    4.45
  -7 -15  -7  156.56    6.87
  -7 -15  -7  153.59    6.75
  -7 -15  -6   73.19    4.74
  -7 -15  -6   68.51    4.60
   7  15  -6   83.04    5.38
  -7 -15  -5   10.78    2.13
  -7 -15  -5   11.79    2.14
   7  15  -5   10.75    2.28
  -7 -15  -4    4.68    1.54
  -7 -15  -4    6.98    1.73
   7  15  -4    7.11    2.02
  -7 -15  -3   24.45    2.91
  -7 -15  -3   31.60    3.23
   7  15  -3   25.92    3.21
  -7 -15  -2   16.78    2.44
   7  15  -2   22.72    3.03
  -7 -15  -1  258.50    8.82
   7  15  -1  268.75    9.91
  -7 -15   0  151.85    6.59
  -7 -15   0  150.60    7.08
   7  15   0  161.37    7.47
  -7 -15   1  268.82    9.59
   7  15   1  269.53    9.82
  -7 -15   2   20.60    2.84
   7  15   2   15.71    2.72
  -7 -15   3   34.24    3.41
   7  15   3   29.52    3.44
  -7 -15   4    8.06    1.88
   7  15   4    7.53    2.18
  -7 -15   5   11.26    2.26
   7  15   5   18.75    2.82
  -7 -15   6   71.57    4.70
   7  15   6   71.97    4.82
  -7 -15   7  168.13    7.02
   7  15   7  162.89    7.10
  -7 -15   8   59.26    4.16
   7  15   8   68.34    4.59
  -7 -15   9   72.34    4.42
  -7 -15  10   -0.40    1.41
   7  16 -10   80.90    4.96
  -7 -16  -9   30.03    2.95
  -7 -16  -8    3.37    1.36
  -7 -16  -8    3.36    1.46
  -7 -16  -7   41.99    3.48
  -7 -16  -7   41.46    3.40
  -7 -16  -6  235.76    8.09
  -7 -16  -6  234.57    8.05
   7  16  -6  241.99    8.92
  -7 -16  -5   19.81    2.52
  -7 -16  -5   23.35    2.75
   7  16  -5   22.94    2.90
  -7 -16  -4    8.09    1.85
  -7 -16  -4    6.74    1.87
   7  16  -4    7.68    1.95
  -7 -16  -3   18.65    2.46
  -7 -16  -3   18.22    2.58
   7  16  -3   20.84    2.75
  -7 -16  -2   86.51    4.81
   7  16  -2   89.92    5.39
   7  16  -1   46.22    3.95
  -7 -16   0    0.82    1.36
   7  16   0   -0.18    1.34
  -7 -16   1   39.41    3.57
   7  16   1   38.14    3.63
  -7 -16   2   93.22    5.29
   7  16   2   92.62    5.40
  -7 -16   3   20.49    2.73
   7  16   3   21.43    2.81
  -7 -16   4   10.64    2.08
   7  16   4    4.79    1.86
  -7 -16   5   20.81    2.64
   7  16   5   21.41    2.73
  -7 -16   6  224.96    7.90
   7  16   6  237.32    8.26
  -7 -16   7   50.88    3.72
   7  16   7   39.87    3.45
  -7 -17   0   20.59    2.51
  -7 -17   1  157.61    6.42
   8   0   0 1412.25   24.27
   8   0   0 1472.26   24.42
   8   0   1  310.98    9.25
   8   0  -1  328.18    9.43
   8   0   1  311.14    9.22
   8   0  -1  318.31    9.47
   8   0   2  243.79    7.99
   8   0  -2  215.14    7.72
   8   0   2  238.79    7.91
   8   0  -2  220.85    7.74
   8   0   3   16.45    2.23
   8   0  -3   11.90    2.03
   8   0  -3   13.38    2.06
   8   0   3   13.34    2.02
   8   0  -3   12.33    1.53
   8   0  -4   12.55    1.98
   8   0   4   14.61    2.07
   8   0   4   11.35    1.86
   8   0  -4   10.98    1.57
   8   0   5   66.04    4.09
   8   0  -5   63.76    3.56
   8   0   5   68.23    4.24
   8   0   6   26.01    2.67
   8   0  -6   24.68    2.36
   8   0   6   25.99    2.69
   8   0   7   12.17    1.94
   8   0   7   11.96    1.95
   8   0  -7    9.88    1.70
   8   0   8    6.78    1.66
   8   0  -8    6.82    1.48
   8   0   8    7.04    1.67
   8   0   9  167.93    6.90
   8   0  -9  162.28    6.60
   8   0   9  164.45    6.89
   8   0  10  365.44   10.69
   8   0  10  367.31   10.77
   8   0  11   31.05    3.08
   8   0  11   28.57    2.96
   8   0  12   52.12    4.03
   8   0  12   50.92    3.96
   8   0  13    1.08    1.28
  -8   0  13    3.07    1.04
   8   0  13    0.36    1.21
  -8   0 -14  343.64    9.39
   8   0  14  327.16   10.72
   8   0  14  332.83   10.82
   8   0  15   11.01    2.20
   8   0  15   13.01    2.27
   8   0  16    1.37    1.46
   8   0  16    3.29    1.44
   8   0  17   38.47    3.66
   8   0  17   43.89    3.96
   8   0  18   39.56    3.85
   8   0  18   42.84    3.96
   8   0  19  126.85    6.77
   8   0  19  125.78    6.77
   8   0  20  332.70   11.32
   8   0  20  349.79   11.60
   8   0  21    4.94    1.84
   8   0  21    6.11    1.70
   8   0  22  283.02   10.20
   8   0  22  261.27    9.92
   8   0  23   93.21    5.71
   8   0  23   89.85    5.65
   8   0  24  172.23    7.61
   8   0  24  165.39    7.51
   8   0  25   53.41    4.17
   8   0  25   56.07    4.31
   8   0  26  147.97    6.72
   8   0  26  151.61    6.77
   8   0  27  239.62    8.25
   8   0  27  235.19    8.23
   8  -1  27  132.28    6.09
   8  -1  26  171.52    7.27
   8  -1  25   13.67    2.39
   8  -1  24   21.10    2.87
   8  -1  23  297.57   10.45
   8  -1  22  179.66    8.10
   8  -1  21  782.55   18.55
   8  -1  20  142.82    7.27
   8  -1  19  542.94   14.93
   8  -1  18  164.04    7.70
   8  -1  17  110.76    6.32
   8  -1  16    7.32    2.09
   8  -1  15  262.89    9.64
  -8  -1 -14  217.59    7.17
   8  -1  14  207.58    8.43
  -8  -1 -13  506.97   11.94
   8  -1  13  490.22   13.45
   8   1 -13  506.27   13.91
   8  -1  12   34.66    3.34
   8   1 -12   40.12    3.69
  -8  -1 -11   46.39    4.05
   8  -1  11   36.56    3.49
   8   1 -11   40.63    3.56
   8   1 -10  276.95    9.24
   8  -1  10  283.22    9.49
   8   1  -9  628.04   14.39
   8  -1   9  608.61   14.58
   8  -1   8   57.06    4.04
   8   1  -8   52.87    3.70
   8  -1   7  440.70   11.69
   8   1  -7  423.17   10.87
   8   1  -6  189.35    6.70
   8  -1   6  200.56    7.43
   8   1  -5   88.05    4.30
   8  -1   5   95.15    5.05
   8  -1   4   10.19    1.88
   8   1  -4   12.29    2.03
   8   1  -4    9.78    1.46
   8  -1   3  295.92    8.98
   8   1  -3  275.94    8.78
   8   1  -3  301.24    9.21
   8   1  -3  271.75    7.43
   8  -1   2  461.12   11.63
   8   1  -2  453.75   11.47
   8  -1   2  429.13    9.27
   8   1  -2  441.10   11.41
   8   1  -2  433.87    9.48
   8  -1   1  788.10   16.51
   8   1  -1  823.99   16.35
   8  -1   1  795.03   13.83
   8   1  -1  844.13   16.74
   8  -1   0  223.50    7.78
   8   1   0  229.91    7.70
   8  -1   0  209.63    5.89
   8   1   0  224.77    7.66
   8   1   1  795.25   16.12
   8  -1  -1  819.32   16.66
   8  -1  -1  792.08   13.61
   8   1   1  835.63   16.57
   8  -1  -2  430.41   11.37
   8   1   2  444.98   11.25
   8   1   2  443.26   11.27
   8   1   3  289.28    8.77
   8  -1  -3  276.94    8.96
   8   1   3  292.60    8.87
   8  -1  -4   10.13    1.93
   8   1   4   14.05    2.03
   8   1   4   12.29    1.95
   8   1   5   79.04    4.60
   8   1   5   82.84    4.57
   8   1   6  204.80    7.33
   8   1   6  199.93    7.33
   8   1   7  429.07   11.45
   8   1   7  433.17   11.31
   8   1   8   52.01    3.73
   8   1   8   57.81    3.99
   8   1   9  599.15   14.21
   8   1   9  626.02   14.35
  -8  -1  10  271.93    8.76
   8   1  10  274.10    9.13
   8   1  10  269.04    9.01
  -8  -1  11   38.99    3.21
   8   1  11   36.17    3.34
   8   1  11   41.91    3.56
  -8  -1  12   30.97    2.82
   8   1  12   30.42    3.08
   8   1  12   30.17    3.03
  -8  -1  13  491.76   11.47
   8   1  13  518.10   13.53
   8   1  13  497.73   13.24
   8   1  14  207.74    8.23
   8   1  14  188.14    7.85
   8   1  15  254.52    9.41
   8   1  15  258.22    9.43
   8   1  16    6.30    1.85
   8   1  16    6.95    1.87
   8   1  17  120.03    6.52
   8   1  17  114.57    6.32
   8   1  18  161.74    7.58
   8   1  18  166.21    7.72
   8   1  19  571.18   15.16
   8   1  19  550.85   14.99
   8   1  20  149.14    7.29
   8   1  20  137.03    7.05
   8   1  21  794.13   18.56
   8   1  21  791.11   18.53
   8   1  22  171.28    7.82
   8   1  22  160.47    7.55
   8   1  23  332.96   11.00
   8   1  23  305.23   10.53
   8   1  24   17.93    2.68
   8   1  24   19.79    2.83
   8   1  25    5.13    1.66
   8   1  25   10.00    2.13
   8   1  26  165.11    7.05
   8   1  26  177.35    7.23
   8   1  27  137.02    6.10
   8   1  27  133.63    6.05
   8  -2  27   52.84    3.77
   8  -2  27   52.00    3.83
   8  -2  26   13.63    2.22
   8  -2  26   13.31    2.25
   8  -2  25  134.92    6.43
   8  -2  25  133.49    6.55
   8  -2  24   79.37    5.05
   8  -2  24   81.59    5.24
   8  -2  23   16.07    2.71
   8  -2  23   11.83    2.26
   8  -2  22  103.01    5.97
   8  -2  22   95.06    5.86
   8  -2  21   15.78    2.62
   8  -2  21   16.77    2.54
   8  -2  20  306.81   10.66
   8  -2  20  306.85   10.93
   8  -2  19   93.63    5.74
   8  -2  19   87.96    5.71
   8  -2  18   58.56    4.57
   8  -2  18   53.86    4.54
   8  -2  17   32.38    3.48
   8  -2  17   25.52    3.16
   8  -2  16  100.79    5.85
   8  -2  16   88.30    5.67
   8   2 -16  100.98    6.26
   8  -2  15   21.45    2.83
   8  -2  15   20.76    2.88
   8   2 -15   20.28    3.00
  -8  -2 -14  271.44    8.19
   8  -2  14  277.27    9.67
   8  -2  14  267.87    9.79
   8   2 -14  287.33   10.38
  -8  -2 -13  141.25    5.96
   8  -2  13  150.71    6.88
   8  -2  13  147.74    7.00
   8   2 -13  134.31    6.85
  -8  -2 -12   78.37    4.61
   8  -2  12   74.32    4.77
   8  -2  12   85.32    5.21
   8   2 -12   76.13    5.06
  -8  -2 -11   67.29    4.34
   8  -2  11   54.70    4.06
   8   2 -11   54.99    4.21
   8  -2  11   60.47    4.37
  -8  -2 -10  174.30    6.91
   8  -2  10  158.74    6.90
   8   2 -10  172.65    7.25
   8  -2  10  169.94    7.24
  -8  -2  -9  266.12    8.72
   8  -2   9  249.90    8.56
   8   2  -9  250.80    8.62
   8  -2   9  247.97    8.73
  -8  -2  -8   75.44    4.91
   8  -2   8   62.30    4.26
   8  -2   8   63.41    4.20
   8   2  -8   65.60    4.17
  -8  -2  -7   54.15    4.37
   8  -2   7   48.97    3.63
   8   2  -7   43.24    3.34
   8  -2   7   41.73    3.46
   8  -2   6  114.65    5.58
   8  -2   6  115.99    5.49
   8   2  -6  101.99    4.94
   8   2  -5   81.37    4.23
   8  -2   5   79.12    4.49
   8  -2   5   81.18    4.72
   8   2  -4   54.11    3.37
   8  -2   4   60.18    3.88
   8  -2   4   60.02    4.04
   8  -2   3  169.48    6.73
   8   2  -3  160.74    6.42
   8   2  -3  164.81    5.79
   8   2  -3  168.53    6.71
   8  -2   3  180.48    6.80
   8  -2   2  403.52   10.95
   8   2  -2  393.57   10.70
   8   2  -2  392.02    9.19
   8  -2   2  416.10   10.72
   8  -2   1  455.94   11.76
   8   2  -1  442.70   11.11
   8   2  -1  440.94    9.64
   8  -2   1  448.22   11.34
   8   2  -1  463.17   11.57
   8  -2   0 1158.46   21.34
   8   2   0 1149.26   20.53
   8  -2   0 1176.08   20.96
   8   2   0 1187.41   21.14
   8   2   1  435.21   10.95
   8  -2  -1  436.15   11.57
   8   2   1  440.65   11.25
   8  -2  -1  437.88   11.35
   8   2   2  414.96   10.67
   8  -2  -2  430.51   11.34
   8  -2  -2  420.08   11.03
   8   2   2  396.02   10.68
   8   2   3  175.28    6.57
   8  -2  -3  173.64    7.06
   8  -2  -3  179.72    6.99
   8   2   3  172.85    6.64
   8   2   4   45.17    3.34
   8  -2  -4   46.18    3.59
   8   2   4   47.09    3.48
   8   2   5   89.93    4.81
   8   2   5   95.13    4.80
   8   2   6  102.97    5.21
   8   2   6  104.81    5.08
  -8  -2   7   35.93    3.27
   8   2   7   46.55    3.50
   8   2   7   42.04    3.31
  -8  -2   8   64.64    4.20
   8   2   8   60.27    4.04
   8   2   8   58.09    3.85
  -8  -2   9  251.46    8.15
   8   2   9  261.67    8.54
   8   2   9  256.18    8.68
  -8  -2  10  159.61    6.26
   8   2  10  150.48    6.58
   8   2  10  143.09    6.37
  -8  -2  11   55.15    3.66
   8   2  11   55.42    4.04
   8   2  11   55.64    4.02
  -8  -2  12   84.77    4.44
   8   2  12   86.26    5.17
   8   2  12   83.55    5.01
  -8  -2  13  141.35    5.65
   8   2  13  136.71    6.60
   8   2  13  135.97    6.45
   8   2  14  276.47    9.65
   8   2  14  262.92    9.33
   8   2  15   24.19    2.94
   8   2  15   22.02    2.80
   8   2  16   84.08    5.29
   8   2  16   79.52    5.14
   8   2  17   35.32    3.57
   8   2  17   35.50    3.57
   8   2  18   52.69    4.37
   8   2  18   57.30    4.50
   8   2  19   99.25    5.95
   8   2  19   85.63    5.47
   8   2  20  301.72   10.62
   8   2  20  284.18   10.18
   8   2  21   16.65    2.71
   8   2  21   20.92    2.85
   8   2  22   95.74    5.76
   8   2  22   84.20    5.39
   8   2  23   11.80    2.22
   8   2  23   17.33    2.69
   8   2  24   86.84    5.33
   8   2  24   92.47    5.47
   8   2  25  115.01    5.91
   8   2  25  119.47    6.07
   8   2  26   14.81    2.38
   8   2  26   16.29    2.42
   8   2  27   47.30    3.60
   8  -3  26   59.33    4.02
   8  -3  25   82.50    4.91
   8  -3  24   48.12    3.93
   8  -3  23   90.27    5.46
   8  -3  22   84.49    5.36
   8  -3  21  396.80   12.18
   8  -3  20   42.83    3.89
   8  -3  19    8.70    1.93
   8  -3  18   12.58    2.46
   8  -3  17   83.86    5.34
   8   3 -17   86.37    5.88
   8  -3  16  168.25    7.58
   8   3 -16  161.47    8.01
   8  -3  15  161.62    7.31
   8   3 -15  167.67    8.05
  -8  -3 -14   86.48    4.46
   8  -3  14   90.32    5.39
   8   3 -14   89.39    5.75
  -8  -3 -13  375.56    9.99
   8  -3  13  363.44   11.08
   8   3 -13  375.70   11.98
  -8  -3 -12  806.07   16.28
   8  -3  12  826.58   17.79
   8   3 -12  826.84   18.63
  -8  -3 -11  295.37    9.01
   8  -3  11  309.96    9.80
   8   3 -11  300.81   10.18
  -8  -3 -10  337.15    9.67
   8  -3  10  318.08    9.88
   8   3 -10  328.80   10.42
  -8  -3  -9  117.52    5.64
   8  -3   9  122.21    5.83
   8   3  -9  113.63    5.80
  -8  -3  -8  350.03   10.01
   8   3  -8  344.21   10.30
   8  -3   8  337.94    9.97
  -8  -3  -7  760.87   15.95
   8  -3   7  757.46   15.97
   8   3  -7  741.57   15.97
   8   3  -6  233.89    7.94
   8  -3   6  239.13    8.13
  -8  -3  -5  275.95    8.98
   8   3  -5  260.11    8.18
   8  -3   5  268.63    8.59
  -8  -3  -4  143.34    6.45
   8   3  -4  131.71    5.51
   8  -3   4  130.56    5.77
   8   3  -3  462.64   11.52
  -8  -3  -3  441.48   11.79
   8   3  -3  460.52   11.82
   8   3  -3  473.88   10.95
   8  -3   3  474.47   11.63
   8   3  -2  406.50   10.64
   8   3  -2  408.06   10.96
   8   3  -2  415.53    9.88
   8  -3   2  411.35   10.82
   8   3  -1  363.26    9.84
   8   3  -1  361.59    8.86
   8  -3   1  353.84    9.95
   8   3  -1  377.04   10.27
   8   3   0  561.67   12.80
  -8  -3   0  597.19   13.85
   8   3   0  577.85   11.56
   8  -3   0  601.78   13.42
   8   3   0  574.11   13.31
   8   3   1  346.14    9.51
  -8  -3   1  367.99   10.41
   8   3   1  339.90    9.73
   8  -3  -1  359.43   10.02
   8   3   2  369.45    9.93
  -8  -3   2  394.16   10.83
   8  -3  -2  391.63   10.63
   8   3   2  380.00   10.33
   8   3   3  426.01   10.76
  -8  -3   3  425.27   11.31
   8  -3  -3  439.80   11.48
   8   3   3  438.52   11.22
   8   3   4  135.70    5.67
  -8  -3   4  134.80    6.05
   8   3   4  125.47    5.65
  -8  -3   5  262.76    8.51
   8   3   5  275.58    8.29
   8   3   5  262.43    8.38
  -8  -3   6  226.64    7.83
   8   3   6  241.70    7.82
   8   3   6  231.54    7.94
  -8  -3   7  740.68   15.36
   8   3   7  709.52   15.03
   8   3   7  722.73   15.51
  -8  -3   8  341.54    9.68
   8   3   8  352.50   10.13
   8   3   8  341.54    9.72
  -8  -3   9  121.61    5.45
   8   3   9  115.90    5.49
   8   3   9  111.55    5.54
  -8  -3  10  342.36    9.48
   8   3  10  323.17    9.77
   8   3  10  317.40    9.88
  -8  -3  11  296.98    8.72
   8   3  11  293.39    9.51
   8   3  11  286.49    9.26
  -8  -3  12  786.23   15.68
   8   3  12  816.01   17.41
   8   3  12  757.39   16.74
  -8  -3  13  346.80    9.38
   8   3  13  354.09   10.86
   8   3  13  368.36   10.83
   8   3  14   95.23    5.48
   8   3  14   91.28    5.27
   8   3  15  185.40    7.88
   8   3  15  178.62    7.59
   8   3  16  179.75    7.79
   8   3  16  176.13    7.61
   8   3  17   77.28    5.18
   8   3  17   69.99    4.85
   8   3  18   13.34    2.41
   8   3  18   18.51    2.70
   8   3  19    7.01    1.87
   8   3  19    7.93    1.84
   8   3  20   37.26    3.66
   8   3  20   32.17    3.45
   8   3  21  397.56   12.16
   8   3  21  385.17   11.77
   8   3  22   91.12    5.56
   8   3  22   91.55    5.45
   8   3  23   91.78    5.50
   8   3  23   90.28    5.33
   8   3  24   45.74    3.86
   8   3  24   38.95    3.52
   8   3  25   88.79    5.09
   8   3  25   90.50    5.07
   8   3  26   66.48    4.28
   8   3  26   67.06    4.24
   8  -4  26   42.21    3.35
   8  -4  26   49.86    3.76
   8  -4  25   31.89    3.09
   8  -4  25   29.38    3.06
   8  -4  24   41.10    3.55
   8  -4  24   37.85    3.58
   8  -4  23   32.35    3.19
   8  -4  23   30.07    3.39
   8  -4  22   62.95    4.52
   8  -4  22   63.68    4.74
   8  -4  21   10.57    2.31
   8  -4  21   14.46    2.34
   8  -4  20   78.09    5.17
   8  -4  20   82.88    5.44
   8  -4  19  113.00    6.21
   8  -4  19  122.03    6.65
   8   4 -19  107.99    6.73
   8  -4  18   25.12    3.02
   8  -4  18   22.37    3.09
   8   4 -18   20.78    3.20
   8  -4  17    1.44    1.42
   8   4 -17    1.26    1.20
   8  -4  17    2.85    1.35
   8   4 -17    0.93    1.32
   8   4 -16   38.72    3.49
   8  -4  16   33.06    3.35
   8  -4  16   38.29    3.79
   8   4 -16   35.37    3.86
   8  -4  15   16.91    2.70
   8   4 -15   19.44    2.50
   8  -4  15   23.02    2.81
   8   4 -15   21.69    3.07
  -8  -4 -14   46.84    3.40
   8   4 -14   45.87    3.64
   8  -4  14   50.14    3.98
   8   4 -14   53.33    4.49
   8  -4  14   49.31    4.14
  -8  -4 -13   28.47    2.80
   8   4 -13   21.53    2.53
   8  -4  13   27.91    2.94
   8   4 -13   23.37    2.99
   8  -4  13   27.32    3.19
  -8  -4 -12  169.09    6.58
   8   4 -12  162.81    6.42
   8  -4  12  172.77    7.24
   8   4 -12  184.50    8.11
   8  -4  12  173.66    7.56
  -8  -4 -11  113.62    5.46
   8   4 -11  108.65    4.97
   8  -4  11  108.70    5.62
   8   4 -11  121.47    6.34
   8  -4  11  107.57    5.92
  -8  -4 -10    7.63    2.08
   8  -4  10   13.90    2.30
   8  -4  10   10.49    1.98
   8   4 -10   11.85    2.10
   8  -4   9    1.19    1.21
  -8  -4  -9   -0.29    2.02
   8  -4   9    0.93    0.93
   8   4  -9    4.42    1.41
  -8  -4  -8  108.55    5.51
   8  -4   8  120.09    5.65
   8   4  -8  113.63    5.81
   8  -4   8  113.30    5.74
  -8  -4  -7  107.90    5.47
   8  -4   7  110.43    5.63
   8   4  -7  110.39    5.55
   8  -4   7  107.98    5.30
  -8  -4  -6  114.20    5.72
   8   4  -6  119.43    5.69
   8  -4   6  118.38    5.48
   8  -4   6  111.58    5.60
  -8  -4  -5   20.09    2.85
   8   4  -5   17.20    2.24
   8  -4   5   23.60    2.52
   8  -4   5   17.15    2.34
   8  -4   4    8.49    1.81
  -8  -4  -4   13.28    2.52
   8  -4   4    7.54    1.62
   8   4  -4    9.45    1.70
   8  -4   3  132.56    6.12
  -8  -4  -3  138.57    6.15
   8   4  -3  130.95    5.52
   8  -4   3  137.09    5.83
   8  -4   2  828.60   16.98
   8   4  -2  796.93   15.83
   8   4  -2  794.24   16.53
   8   4  -2  802.95   15.48
   8  -4   2  785.73   16.09
   8  -4   1  856.31   17.52
   8   4  -1  820.47   16.16
   8   4  -1  816.59   16.75
   8   4  -1  825.73   15.54
   8  -4   1  850.07   16.77
   8  -4   0 2848.44   40.75
   8   4   0 2771.71   38.89
  -8  -4   0 2769.76   39.90
   8   4   0 2764.22   37.68
   8  -4   0 2740.52   39.58
   8   4   0 2684.00   39.67
   8   4   1  853.62   16.29
   8  -4  -1  863.87   17.73
  -8  -4   1  835.28   16.97
   8  -4  -1  869.11   17.06
   8   4   1  835.01   15.10
   8   4   1  851.79   17.01
   8   4   2  790.12   15.59
   8  -4  -2  806.61   17.05
  -8  -4   2  794.03   16.44
   8  -4  -2  791.30   16.38
   8   4   2  802.69   16.34
   8   4   3  120.47    5.27
   8  -4  -3  137.03    6.26
  -8  -4   3  125.53    5.80
   8   4   3  125.47    5.67
   8   4   4   11.59    1.78
   8  -4  -4   15.15    2.31
  -8  -4   4   13.20    2.26
   8   4   4   10.53    1.81
   8   4   5   20.46    2.25
  -8  -4   5   22.12    2.72
   8   4   5   18.76    2.29
  -8  -4   6  121.93    5.69
   8   4   6  107.49    5.28
   8   4   6  117.90    5.24
  -8  -4   7   99.64    5.08
   8   4   7   95.02    4.79
   8   4   7   92.80    4.92
  -8  -4   8  109.90    5.30
   8   4   8  114.58    5.31
   8   4   8  119.59    5.69
   8   4   9    2.55    1.25
  -8  -4   9    2.94    1.46
   8   4   9    2.48    1.24
   8   4  10   12.12    1.93
  -8  -4  10   16.52    2.30
   8   4  10   12.89    2.16
  -8  -4  11  106.64    5.10
   8   4  11  105.76    5.34
   8   4  11  101.39    5.47
  -8  -4  12  176.09    6.56
   8   4  12  179.83    7.40
   8   4  12  169.92    6.96
  -8  -4  13   27.29    2.68
   8   4  13   31.43    3.15
   8   4  13   29.13    2.97
   8   4  14   63.76    4.49
   8   4  14   54.13    4.03
   8   4  15   23.56    2.86
   8   4  15   19.67    2.58
   8   4  16   31.56    3.28
   8   4  16   30.91    3.21
   8   4  17    0.89    1.19
   8   4  17    2.28    1.40
   8   4  18   15.43    2.39
   8   4  18   18.77    2.69
   8   4  19  127.05    6.58
   8   4  19  120.32    6.21
   8   4  20   75.47    5.08
   8   4  20   72.33    4.78
   8   4  21   12.10    2.19
   8   4  21   13.68    2.30
   8   4  22   57.32    4.33
   8   4  22   52.25    4.04
   8   4  23   35.62    3.35
   8   4  23   29.68    3.05
   8   4  24   35.78    3.34
   8   4  24   35.90    3.23
   8   4  25   26.01    2.84
   8   4  25   28.74    2.84
   8   4  26   41.94    3.36
   8  -5  26   13.49    2.08
   8  -5  25   49.14    3.55
   8  -5  25   45.49    3.68
   8  -5  24   69.27    4.35
   8  -5  24   74.94    4.79
   8  -5  23   64.56    4.34
   8  -5  23   59.07    4.45
   8  -5  22   31.47    3.23
   8  -5  22   27.86    3.22
   8  -5  21  107.84    5.80
   8  -5  21   98.58    5.87
   8  -5  20  221.70    8.54
   8  -5  20  221.80    9.00
   8   5 -19  102.10    5.77
   8  -5  19  108.45    5.89
   8  -5  19  111.62    6.36
   8   5 -18   94.53    5.51
   8  -5  18  108.17    5.87
   8   5 -18  102.15    6.45
   8  -5  18   99.25    5.97
   8   5 -17   93.50    5.42
   8  -5  17   98.60    5.61
   8   5 -17   93.15    6.24
   8  -5  17   99.75    5.99
   8   5 -16  181.48    7.49
   8  -5  16  177.78    7.62
   8   5 -16  175.80    8.49
   8  -5  16  192.32    8.30
   8   5 -15   82.39    4.91
   8  -5  15   79.56    4.98
   8   5 -15   81.36    5.69
   8  -5  15   83.59    5.41
   8   5 -14  141.51    6.32
  -8  -5 -14  137.97    5.80
   8  -5  14  151.97    6.84
   8   5 -14  138.19    7.34
   8  -5  14  158.43    7.36
   8   5 -13  326.39    9.70
  -8  -5 -13  326.70    9.42
   8  -5  13  324.70   10.24
   8   5 -13  325.44   11.34
   8  -5  13  348.32   11.08
   8   5 -12 1116.11   20.38
  -8  -5 -12 1147.83   20.76
   8  -5  12 1152.82   22.57
   8  -5  12 1123.79   21.60
   8   5 -12 1172.51   23.65
  -8  -5 -11  348.98    9.99
   8  -5  11  339.20   10.86
   8  -5  11  352.29   10.45
   8   5 -11  346.62   11.38
  -8  -5 -10  162.92    6.60
   8  -5  10  162.63    6.74
   8   5 -10  161.62    7.38
   8  -5  10  160.37    7.14
  -8  -5  -9  470.66   11.99
   8   5  -9  475.49   13.10
   8  -5   9  472.73   12.16
   8  -5   9  461.84   12.62
  -8  -5  -8  848.77   17.31
   8  -5   8  864.86   18.04
   8   5  -8  849.83   18.34
   8  -5   8  836.54   17.19
  -8  -5  -7  211.93    7.79
   8   5  -7  203.71    7.90
   8  -5   7  209.97    7.53
   8  -5   7  210.22    7.93
  -8  -5  -6  111.88    5.63
   8   5  -6  118.39    5.78
   8  -5   6  115.12    5.72
   8  -5   6  107.97    5.23
   8  -5   5  296.38    9.53
  -8  -5  -5  306.33    9.53
   8   5  -5  309.98    9.50
   8  -5   5  325.22    9.35
   8  -5   4  848.78   17.55
  -8  -5  -4  820.86   17.17
   8   5  -4  859.05   17.13
   8  -5   4  828.66   16.61
   8  -5   3  338.80   10.11
  -8  -5  -3  326.21    9.82
   8   5  -3  317.36    9.28
   8  -5   3  325.54    9.37
   8  -5   2  190.33    7.44
   8   5  -2  178.37    6.58
   8  -5   2  174.31    6.70
   8  -5   1  364.77   10.61
   8   5  -1  377.98    9.69
   8   5  -1  397.62   10.62
   8   5  -1  361.86    9.66
   8  -5   1  369.79   10.16
   8  -5   0 1980.81   30.99
   8   5   0 1934.85   28.96
  -8  -5   0 1862.23   30.18
   8  -5   0 1899.81   29.84
   8   5   0 1933.69   30.04
   8   5   0 1904.56   28.77
   8  -5  -1  390.97   10.95
   8   5   1  348.66    9.30
  -8  -5   1  359.45   10.32
   8  -5  -1  374.26   10.22
   8   5   1  362.44    9.23
   8   5   1  377.00   10.28
   8   5   2  164.79    6.06
  -8  -5   2  161.41    6.76
   8   5   2  160.51    5.71
   8   5   2  173.62    6.65
   8   5   3  318.69    8.77
   8  -5  -3  324.86   10.09
  -8  -5   3  344.30   10.02
   8   5   3  308.62    8.08
   8   5   3  333.23    9.48
   8   5   4  837.21   15.96
  -8  -5   4  841.54   17.13
   8   5   4  824.73   16.65
   8   5   5  279.93    8.21
  -8  -5   5  286.32    9.07
   8   5   5  285.11    8.80
   8   5   6  119.80    5.24
  -8  -5   6  123.81    5.82
   8   5   6  115.33    5.47
   8   5   7  195.35    6.79
  -8  -5   7  179.06    7.05
   8   5   7  189.85    7.14
  -8  -5   8  868.82   17.20
   8   5   8  812.75   17.03
   8   5   8  838.33   16.37
  -8  -5   9  453.98   11.60
   8   5   9  457.74   11.91
   8   5   9  441.67   11.13
  -8  -5  10  164.37    6.56
   8   5  10  177.62    7.15
   8   5  10  168.73    6.54
  -8  -5  11  342.95    9.71
   8   5  11  346.83   10.45
   8   5  11  339.97    9.81
  -8  -5  12 1106.41   20.04
   8   5  12 1106.71   20.56
   8   5  12 1114.95   21.47
  -8  -5  13  349.29    9.62
   8   5  13  352.54   10.26
   8   5  13  345.70   10.70
   8   5  14  148.19    6.84
   8   5  14  144.50    6.42
   8   5  15   74.29    4.84
   8   5  15   74.19    4.62
   8   5  16  198.28    8.03
   8   5  16  193.82    7.59
   8   5  17   90.24    5.43
   8   5  17   91.04    5.16
   8   5  18  110.64    5.99
   8   5  18  110.48    5.72
   8   5  19   93.38    5.47
   8   5  19   93.62    5.27
   8   5  20  216.15    8.42
   8   5  20  201.92    7.79
   8   5  21  104.67    5.72
   8   5  21  106.60    5.51
   8   5  22   24.86    2.93
   8   5  22   25.26    2.80
   8   5  23   53.12    3.96
   8   5  23   48.39    3.64
   8   5  24   67.50    4.32
   8   5  25   41.66    3.35
   8  -6  25   23.56    2.63
   8  -6  24   30.02    3.03
   8  -6  24   22.83    2.53
   8  -6  23   31.62    3.19
   8  -6  23   33.67    3.00
   8  -6  22   88.26    4.96
   8  -6  22   91.38    5.42
   8  -6  21   35.65    3.28
   8  -6  21   34.18    3.50
   8   6 -20   33.72    3.36
   8  -6  20   32.35    3.47
   8   6 -19  103.47    5.72
   8  -6  19  105.07    5.65
   8  -6  19  100.45    5.88
   8   6 -18   56.30    4.26
   8  -6  18   60.15    4.32
   8  -6  18   60.77    4.61
   8   6 -17   45.28    3.80
   8  -6  17   53.21    4.02
   8   6 -17   56.49    4.84
   8  -6  17   48.52    4.16
   8  -6  16    9.07    2.17
   8   6 -16    7.08    1.74
   8  -6  16    9.32    1.76
   8   6 -16    9.18    2.24
   8  -6  15    6.62    1.89
   8   6 -15    7.68    1.75
   8  -6  15   10.59    1.99
   8   6 -15    7.65    2.05
   8   6 -14   19.83    2.52
  -8  -6 -14   20.40    2.41
   8  -6  14   23.40    2.94
   8  -6  14   20.86    2.63
   8   6 -14   26.14    3.29
   8  -6  13   12.81    2.29
  -8  -6 -13   14.04    2.14
   8   6 -13    9.56    1.80
   8  -6  13   12.55    2.13
   8   6 -13   14.42    2.66
   8   6 -12  226.02    7.76
  -8  -6 -12  236.38    8.05
   8  -6  12  243.69    8.50
   8   6 -12  239.48    9.65
   8  -6  12  227.97    8.74
  -8  -6 -11  136.64    6.15
   8  -6  11  148.18    6.45
   8   6 -11  147.03    7.36
   8  -6  11  134.91    6.64
  -8  -6 -10   17.77    2.39
   8   6 -10   18.15    2.75
   8  -6  10   22.58    2.63
   8  -6  10   19.66    2.74
  -8  -6  -9  113.90    5.61
   8   6  -9  109.49    6.13
   8  -6   9  111.01    5.47
   8  -6   9  101.64    5.65
  -8  -6  -8  552.86   13.35
   8   6  -8  543.30   14.19
   8  -6   8  510.50   13.31
   8  -6   8  533.08   12.86
  -8  -6  -7  575.24   13.79
   8   6  -7  588.31   14.57
   8  -6   7  552.76   13.13
   8  -6   7  575.24   14.07
   8  -6   6  821.46   17.36
  -8  -6  -6  814.04   17.10
   8   6  -6  807.46   17.51
   8  -6   6  802.88   16.38
   8  -6   5  354.18   10.57
  -8  -6  -5  358.68   10.46
   8   6  -5  360.91   10.65
   8  -6   5  352.25    9.85
   8  -6   4  127.38    6.04
  -8  -6  -4  118.64    5.83
   8   6  -4  120.98    5.82
   8  -6   4  121.17    5.51
   8  -6   3   11.88    2.06
   8   6  -3    7.71    1.62
   8  -6   3   12.34    1.91
   8  -6   2   69.95    4.50
   8   6  -2   69.87    4.24
   8  -6   2   63.58    3.95
   8  -6   1   77.32    4.65
   8  -6   1   77.53    4.37
   8   6  -1   71.77    4.21
   8  -6   0  151.95    6.69
  -8  -6   0  158.75    6.74
   8  -6   0  151.73    6.18
   8   6   0  149.12    6.27
   8   6   0  145.48    5.94
   8  -6  -1   84.67    4.99
  -8  -6   1   84.84    4.94
   8   6   1   86.95    4.67
   8   6   1   83.69    4.38
   8  -6  -2   60.69    4.26
  -8  -6   2   67.02    4.30
   8   6   2   61.92    3.69
   8   6   2   65.66    4.06
   8  -6  -3   13.87    2.19
  -8  -6   3   16.36    2.26
   8   6   3   14.86    1.88
   8   6   3   11.77    1.83
  -8  -6   4  144.11    6.35
   8   6   4  131.73    5.20
   8   6   4  137.35    5.89
  -8  -6   5  359.59   10.35
   8   6   5  333.12    9.64
  -8  -6   6  842.71   17.21
   8   6   6  796.51   16.45
  -8  -6   7  569.70   13.48
   8   6   7  527.41   12.87
  -8  -6   8  545.22   13.19
   8   6   8  545.78   13.05
  -8  -6   9  105.52    5.32
   8   6   9  101.34    5.23
   8   6  10   13.92    1.99
  -8  -6  10   17.49    2.33
   8   6  10   16.69    2.36
  -8  -6  11  141.52    6.10
   8   6  11  135.35    6.22
   8   6  11  138.78    5.79
  -8  -6  12  237.21    7.93
   8   6  12  227.58    8.31
   8   6  12  234.94    7.77
  -8  -6  13   13.65    2.05
   8   6  13   15.82    2.44
   8   6  13   15.80    2.17
   8   6  14   25.22    2.89
   8   6  14   20.94    2.47
   8   6  15    8.74    2.01
   8   6  16    8.28    1.70
   8   6  17   42.72    3.61
   8   6  18   55.26    4.18
   8   6  19  106.49    5.67
   8   6  20   33.08    3.19
   8   6  21   33.95    3.23
   8   6  22   98.36    5.20
   8   6  23   27.81    2.75
   8   6  24   29.16    2.80
   8  -7  24  152.49    6.26
   8  -7  23   45.49    3.63
   8  -7  22   -0.33    1.26
   8  -7  21   97.30    5.05
   8  -7  21  103.52    5.64
   8   7 -21  106.74    6.45
   8   7 -20  441.23   12.40
   8  -7  20  464.05   11.94
   8   7 -19   30.51    3.23
   8  -7  19   37.85    3.62
   8  -7  19   36.95    3.24
   8   7 -18   70.70    4.72
   8  -7  18   81.14    5.16
   8  -7  18   64.77    4.32
   8   7 -17   94.64    5.39
   8  -7  17  107.20    5.96
   8  -7  17   96.22    5.22
   8   7 -16  263.01    9.05
   8  -7  16  254.09    8.74
   8  -7  16  268.27    9.64
   8   7 -16  273.63   10.86
   8   7 -15  114.27    5.77
   8  -7  15  104.73    5.52
   8   7 -15  108.31    6.78
   8  -7  15  112.78    6.10
   8   7 -14   17.43    2.39
  -8  -7 -14   18.81    2.36
   8  -7  14   20.80    2.58
   8  -7  14   17.67    2.69
   8   7 -14   18.25    3.03
  -8  -7 -13  179.97    6.98
   8   7 -13  186.52    7.16
   8  -7  13  174.55    7.08
   8   7 -13  191.35    8.76
   8  -7  13  194.50    8.00
  -8  -7 -12 1031.44   19.77
   8  -7  12 1055.58   21.16
   8   7 -12 1027.38   22.63
   8  -7  12 1029.19   19.87
  -8  -7 -11  224.11    8.05
   8   7 -11  213.75    9.18
   8  -7  11  226.03    7.96
   8  -7  11  225.53    8.60
   8  -7  10   14.94    2.41
  -8  -7 -10   12.85    2.20
   8  -7  10   12.44    1.98
   8   7 -10   13.33    2.51
   8  -7   9   13.09    2.32
  -8  -7  -9   13.82    2.27
   8   7  -9   17.40    2.62
   8  -7   9   10.75    1.93
   8  -7   8  401.11   11.54
  -8  -7  -8  392.90   11.23
   8   7  -8  396.08   12.17
   8  -7   8  396.46   10.67
   8  -7   7   78.03    4.85
  -8  -7  -7   75.09    4.73
   8   7  -7   77.32    5.13
   8  -7   7   82.00    4.54
   8  -7   6    8.21    1.84
  -8  -7  -6   10.62    2.06
   8  -7   6    9.35    1.78
   8   7  -6    9.88    2.14
   8  -7   5   15.24    2.35
  -8  -7  -5   14.41    2.30
   8   7  -5   13.76    2.24
   8  -7   5   14.87    2.11
   8  -7   4  302.67    9.64
  -8  -7  -4  286.63    9.47
   8   7  -4  290.82    9.59
   8  -7   4  289.39    8.72
   8  -7   3  264.64    8.95
   8   7  -3  264.01    8.96
   8  -7   3  271.39    8.35
   8  -7   2  190.12    7.47
  -8  -7  -2  189.58    6.76
   8  -7   2  180.64    6.70
   8   7  -2  182.25    7.22
   8  -7   1  111.52    5.74
  -8  -7  -1  101.23    4.81
   8  -7   1  106.95    5.08
   8   7  -1  112.27    5.50
   8  -7   0 1161.84   21.92
  -8  -7   0 1178.71   22.13
   8   7   0 1147.56   21.06
   8  -7  -1  113.30    5.78
  -8  -7   1  117.33    5.90
   8   7   1  110.79    5.31
   8   7   1  113.17    5.30
   8  -7  -2  186.49    7.50
  -8  -7   2  178.41    7.28
   8   7   2  165.33    6.49
   8   7   2  172.21    6.60
  -8  -7   3  284.17    9.32
   8   7   3  273.06    8.29
   8   7   3  269.91    8.42
  -8  -7   4  281.65    9.34
   8   7   4  272.89    8.19
   8   7   4  287.63    8.70
  -8  -7   5   15.10    2.30
   8   7   5   15.42    2.09
   8   7   5   15.24    2.12
  -8  -7   6   11.45    2.16
   8   7   6    9.26    1.72
  -8  -7   7   81.97    4.91
   8   7   7   79.30    4.50
  -8  -7   8  362.80   10.61
   8   7   8  379.72   10.36
  -8  -7   9   17.17    2.46
   8   7   9   16.04    2.26
  -8  -7  10   15.75    2.29
   8   7  10   17.82    2.32
  -8  -7  11  204.05    7.54
   8   7  11  209.84    7.66
  -8  -7  12 1023.82   19.33
   8   7  12  994.39   19.51
  -8  -7  13  186.41    6.97
   8   7  13  184.40    7.26
   8   7  14   14.35    2.23
   8   7  15  125.97    6.04
   8   7  16  239.95    8.45
   8   7  17  107.47    5.50
   8   7  18   72.71    4.53
   8   7  19   39.30    3.34
   8   7  20  456.53   11.77
   8   7  21  104.92    5.26
  -8  -8 -23    1.99    1.39
   8  -8  22   27.84    2.82
   8  -8  21  151.42    6.49
   8   8 -21  154.49    7.64
   8  -8  20  191.50    7.51
   8   8 -20  181.26    8.46
   8  -8  19  141.02    6.54
   8  -8  18  148.50    6.78
   8  -8  17   82.91    5.09
   8   8 -16  128.90    6.13
   8  -8  16  126.80    6.32
   8  -8  16  122.90    5.68
   8   8 -15   91.82    5.18
   8  -8  15  106.56    5.78
   8   8 -15  103.39    6.62
   8  -8  15   92.05    4.92
  -8  -8 -14  434.12   11.19
   8   8 -14  454.62   14.25
   8  -8  14  432.83   11.24
   8  -8  14  459.39   12.62
  -8  -8 -13   89.85    4.96
   8   8 -13  105.26    6.57
   8  -8  13  100.59    5.06
   8  -8  13   93.22    5.48
  -8  -8 -12  114.56    5.67
   8   8 -12  109.58    6.71
   8  -8  12  109.49    5.29
   8  -8  12  114.68    6.01
  -8  -8 -11   17.24    2.43
   8  -8  11   17.74    2.22
   8   8 -11   12.29    2.59
   8  -8  11   18.30    2.54
   8  -8  10   80.31    5.00
  -8  -8 -10   78.72    4.83
   8   8 -10   77.88    5.56
   8  -8  10   80.89    4.50
   8  -8   9   17.97    2.54
  -8  -8  -9   13.53    2.23
   8  -8   9   12.67    1.97
   8   8  -9   17.01    2.76
   8  -8   8    4.49    1.65
  -8  -8  -8    4.05    1.63
   8  -8   8    4.81    1.34
   8   8  -8    7.30    1.93
   8  -8   7   12.83    2.19
  -8  -8  -7    9.37    1.99
   8  -8   7   10.57    1.79
   8   8  -7   10.51    2.18
   8  -8   6  369.65   10.95
  -8  -8  -6  375.43   11.14
   8   8  -6  356.53   11.44
   8  -8   6  348.14    9.64
   8  -8   5  201.21    7.86
  -8  -8  -5  213.29    8.21
   8   8  -5  208.90    8.45
   8  -8   5  205.97    7.15
   8  -8   4  137.92    6.38
  -8  -8  -4  136.40    6.10
  -8  -8  -4  140.33    6.60
   8  -8   4  140.73    5.79
   8   8  -4  138.96    6.73
   8  -8   3   68.76    4.44
  -8  -8  -3   57.22    3.88
   8  -8   3   61.48    3.78
   8   8  -3   64.66    4.51
   8  -8   2  370.96   10.89
  -8  -8  -2  374.66   10.25
   8   8  -2  390.09   11.31
   8  -8   1   58.30    4.14
  -8  -8  -1   65.75    4.00
   8   8  -1   64.68    4.38
  -8  -8   0   26.84    2.57
   8  -8   0   31.11    3.04
  -8  -8   0   29.50    3.13
   8   8   0   28.62    2.96
   8  -8  -1   63.23    4.32
  -8  -8   1   65.19    4.50
   8   8   1   69.19    4.39
  -8  -8   2  375.27   11.26
   8   8   2  387.55   10.71
  -8  -8   3   65.96    4.55
   8   8   3   59.07    4.01
  -8  -8   4  146.71    6.75
   8   8   4  146.16    6.15
  -8  -8   5  205.68    7.99
   8   8   5  196.80    7.11
  -8  -8   6  377.06   11.07
   8   8   6  356.82    9.76
  -8  -8   7    8.03    1.83
  -8  -8   8    3.97    1.62
  -8  -8   9   10.57    2.00
  -8  -8  10   94.33    5.20
  -8  -8  11   13.58    2.21
  -8  -8  12  122.14    5.80
  -8  -8  13   85.95    4.79
   8   9 -21  117.56    6.49
  -8  -9 -20  354.12   10.83
   8   9 -20  355.68   11.84
  -8  -9 -19  126.00    6.38
   8  -9  19  117.87    5.63
   8   9 -19  123.97    6.99
  -8  -9 -18   12.24    2.36
   8  -9  18   12.98    2.08
   8  -9  17   95.19    5.22
   8  -9  16  235.20    8.42
   8  -9  15   28.74    3.04
   8   9 -15   29.22    3.68
   8  -9  14   39.83    3.53
  -8  -9 -14   35.23    3.15
   8   9 -14   45.80    4.55
   8  -9  13   81.26    4.98
  -8  -9 -13   86.77    4.92
   8   9 -13   89.15    6.10
   8  -9  12  422.81   11.90
  -8  -9 -12  435.44   11.78
   8   9 -12  452.87   14.25
   8  -9  11  232.99    8.52
  -8  -9 -11  226.61    8.36
   8   9 -11  233.92    9.87
   8  -9  10   30.22    3.12
  -8  -9 -10   30.67    3.03
   8   9 -10   33.46    3.78
   8  -9   9   77.47    4.83
  -8  -9  -9   82.06    5.06
   8   9  -9   76.93    5.50
   8  -9   8  374.51   11.05
  -8  -9  -8  359.29   11.20
  -8  -9  -8  378.75   11.33
   8   9  -8  404.05   12.79
   8  -9   7   71.29    4.62
  -8  -9  -7   68.80    4.65
  -8  -9  -7   73.57    4.83
   8   9  -7   72.85    5.25
   8  -9   6   22.06    2.72
  -8  -9  -6   22.25    2.84
  -8  -9  -6   30.13    3.13
   8   9  -6   26.87    3.24
   8  -9   5  106.18    5.54
  -8  -9  -5   96.47    5.33
  -8  -9  -5  100.14    5.66
   8   9  -5  102.55    6.03
  -8  -9  -4  458.66   12.14
   8  -9   4  462.56   12.29
  -8  -9  -4  468.67   12.95
   8   9  -4  452.53   13.18
  -8  -9  -3  183.89    7.17
   8  -9   3  186.92    7.43
   8   9  -3  183.95    7.89
  -8  -9  -2   99.91    5.14
   8  -9   2   93.29    5.18
   8   9  -2   98.46    5.70
  -8  -9  -1  144.80    6.10
   8  -9   1  133.74    6.24
   8   9  -1  140.59    6.72
  -8  -9   0  889.28   17.37
  -8  -9   0  887.50   19.30
   8   9   0  921.25   19.20
  -8  -9   1  143.43    6.81
   8   9   1  137.15    6.45
  -8  -9   2   96.21    5.55
   8   9   2   99.07    5.41
  -8  -9   3  201.44    8.07
   8   9   3  188.41    7.50
  -8  -9   4  444.91   12.65
   8   9   4  468.75   12.16
  -8  -9   5  117.42    6.11
   8   9   5  115.96    5.68
  -8  -9   6   25.55    2.88
   8   9   6   18.89    2.54
  -8  -9   7   63.28    4.49
   8   9   7   70.87    4.31
  -8  -9   8  373.49   11.17
  -8  -9   9   83.15    4.98
  -8  -9  10   28.17    3.04
  -8  -9  11  212.44    7.92
  -8  -9  12  450.53   11.86
   8  10 -21   68.44    4.76
  -8 -10 -20   30.07    3.10
   8  10 -20   30.26    3.43
  -8 -10 -19   15.11    2.46
   8  10 -19   16.16    2.69
  -8 -10 -18   69.85    4.71
   8  10 -18   75.00    5.40
  -8 -10 -17   24.59    3.09
  -8 -10 -16   73.01    4.99
  -8 -10 -15   60.99    4.66
   8 -10  14   98.87    5.16
  -8 -10 -14  105.87    6.03
   8  10 -14  103.41    6.57
   8 -10  13   49.39    3.77
  -8 -10 -13   50.16    4.23
  -8 -10 -13   45.89    3.64
   8  10 -13   51.97    4.73
   8 -10  12   42.83    3.53
  -8 -10 -12   44.73    3.98
  -8 -10 -12   44.66    3.71
   8  10 -12   42.79    4.37
   8 -10  11   16.16    2.41
  -8 -10 -11   17.59    2.78
  -8 -10 -11   21.07    2.72
   8  10 -11   16.92    2.92
   8 -10  10   38.30    3.37
  -8 -10 -10   43.19    3.93
  -8 -10 -10   40.40    3.62
   8  10 -10   40.92    4.20
   8 -10   9  102.80    5.37
  -8 -10  -9  100.78    5.82
  -8 -10  -9   89.75    5.39
   8  10  -9  113.28    6.83
  -8 -10  -8  539.01   14.09
   8 -10   8  530.68   13.16
  -8 -10  -8  534.37   13.95
   8  10  -8  552.77   15.58
  -8 -10  -7  219.15    8.45
   8 -10   7  208.44    7.76
  -8 -10  -7  223.00    8.60
   8  10  -7  219.62    9.35
  -8 -10  -6  395.90   11.64
   8 -10   6  395.70   11.08
  -8 -10  -6  411.98   12.12
   8  10  -6  413.33   12.97
  -8 -10  -5  121.12    6.05
   8 -10   5  118.61    5.78
  -8 -10  -5  118.05    6.22
   8  10  -5  121.16    6.68
  -8 -10  -4  215.05    8.09
   8 -10   4  211.46    7.81
  -8 -10  -4  219.77    8.63
   8  10  -4  217.34    8.99
  -8 -10  -3  287.14    9.34
   8 -10   3  299.54    9.38
   8  10  -3  290.54   10.35
  -8 -10  -2   70.84    4.43
   8  10  -2   72.46    5.04
  -8 -10  -1    1.20    1.14
  -8 -10  -1    3.79    1.53
   8  10  -1    1.35    1.44
  -8 -10   0   31.17    2.98
  -8 -10   0   38.70    3.68
   8  10   0   29.93    3.33
  -8 -10   1    2.28    1.29
   8  10   1    3.84    1.53
  -8 -10   2   78.58    5.19
   8  10   2   76.35    4.94
  -8 -10   3  278.07    9.89
   8  10   3  271.31    9.33
  -8 -10   4  223.33    8.75
   8  10   4  226.25    8.36
  -8 -10   5  116.53    6.22
   8  10   5  119.47    5.91
  -8 -10   6  404.12   11.96
   8  10   6  405.89   11.27
  -8 -10   7  222.51    8.56
   8  10   7  212.73    7.79
  -8 -10   8  525.24   13.73
   8  10   8  525.98   12.74
  -8 -10   9  114.30    5.97
  -8 -10  10   47.03    3.81
  -8 -10  11   18.81    2.57
  -8 -10  12   37.13    3.36
  -8 -11 -20   29.33    2.93
   8  11 -20   23.38    2.86
  -8 -11 -19   47.70    3.63
   8  11 -19   49.22    4.14
  -8 -11 -18   66.78    4.45
   8  11 -18   63.05    4.77
  -8 -11 -17  152.69    6.83
  -8 -11 -16    4.20    1.54
  -8 -11 -15   19.39    2.75
  -8 -11 -14  120.43    6.26
  -8 -11 -13  253.66    9.29
  -8 -11 -13  260.45    8.48
   8  11 -13  264.67   10.55
  -8 -11 -12  121.01    6.39
  -8 -11 -12  116.71    5.76
   8  11 -12  132.90    7.36
  -8 -11 -11   53.37    4.29
  -8 -11 -11   52.39    4.03
   8  11 -11   47.11    4.52
  -8 -11 -10  183.22    7.87
  -8 -11 -10  185.28    7.58
   8  11 -10  198.62    9.05
  -8 -11  -9  236.83    9.02
  -8 -11  -9  248.60    8.97
   8  11  -9  264.89   10.43
  -8 -11  -8  155.48    7.19
  -8 -11  -8  177.14    7.58
   8  11  -8  178.38    8.46
  -8 -11  -7  134.79    6.62
  -8 -11  -7  142.37    6.86
   8  11  -7  125.59    7.07
  -8 -11  -6   28.50    3.17
  -8 -11  -6   28.28    3.36
   8  11  -6   23.35    3.25
  -8 -11  -5  115.00    6.00
  -8 -11  -5  125.74    6.59
   8  11  -5  128.97    7.02
  -8 -11  -4  311.46   10.03
  -8 -11  -4  313.41   10.63
   8  11  -4  306.31   11.01
  -8 -11  -3  103.99    5.56
   8  11  -3  101.07    6.07
  -8 -11  -2   37.35    3.39
   8  11  -2   44.69    4.09
  -8 -11  -1   41.75    3.52
  -8 -11  -1   45.28    4.12
   8  11  -1   45.06    4.03
  -8 -11   0  188.35    8.17
   8  11   0  181.78    7.94
  -8 -11   1   52.58    4.35
   8  11   1   53.48    4.28
  -8 -11   2   44.41    3.97
   8  11   2   34.57    3.65
  -8 -11   3  105.27    6.03
   8  11   3   95.98    5.60
  -8 -11   4  313.84   10.57
   8  11   4  296.45    9.96
  -8 -11   5  136.89    6.87
   8  11   5  151.05    6.85
  -8 -11   6   24.11    3.04
   8  11   6   28.60    3.23
  -8 -11   7  129.58    6.48
   8  11   7  126.53    6.09
  -8 -11   8  155.86    7.06
   8  11   8  160.15    6.72
  -8 -11   9  228.28    8.49
  -8 -11  10  194.48    7.66
  -8 -11  11   51.14    3.95
  -8 -11  12  136.03    6.17
  -8 -12 -18   25.82    2.78
   8  12 -18   29.92    3.23
  -8 -12 -17   29.62    3.02
   8  12 -17   29.71    3.28
  -8 -12 -16   59.31    4.24
  -8 -12 -15   70.74    4.68
  -8 -12 -14   14.98    2.47
  -8 -12 -13   10.38    2.13
  -8 -12 -12   32.68    3.42
  -8 -12 -12   27.23    2.90
   8  12 -12   33.31    3.78
  -8 -12 -11   49.20    4.11
  -8 -12 -11   44.60    3.74
   8  12 -11   40.20    4.15
  -8 -12 -10   29.18    3.28
  -8 -12 -10   29.45    3.12
   8  12 -10   29.20    3.59
  -8 -12  -9    6.88    1.90
  -8 -12  -9    7.24    1.78
   8  12  -9    5.20    1.89
  -8 -12  -8  301.42   10.16
  -8 -12  -8  313.76   10.26
   8  12  -8  332.83   11.63
  -8 -12  -7  242.92    8.92
  -8 -12  -7  230.70    8.75
   8  12  -7  240.30    9.75
  -8 -12  -6  226.86    8.61
  -8 -12  -6  220.03    8.62
   8  12  -6  228.96    9.53
  -8 -12  -5   50.07    4.03
  -8 -12  -5   50.37    4.18
   8  12  -5   54.17    4.59
  -8 -12  -4  116.71    5.98
  -8 -12  -4  117.62    6.30
   8  12  -4  117.74    6.68
  -8 -12  -3  114.62    5.87
   8  12  -3  115.42    6.54
  -8 -12  -2  142.33    6.50
   8  12  -2  154.53    7.50
  -8 -12  -1   81.12    4.81
   8  12  -1   82.38    5.40
  -8 -12   0  154.16    7.43
   8  12   0  150.53    7.31
  -8 -12   1   87.45    5.47
   8  12   1   72.37    5.03
  -8 -12   2  164.57    7.64
   8  12   2  157.96    7.34
  -8 -12   3  109.05    6.15
   8  12   3  110.25    6.04
  -8 -12   4  123.30    6.50
   8  12   4  114.76    6.12
  -8 -12   5   49.12    4.15
   8  12   5   46.04    4.00
  -8 -12   6  217.46    8.53
   8  12   6  211.21    8.15
  -8 -12   7  248.42    9.01
   8  12   7  229.78    8.35
  -8 -12   8  311.92   10.16
  -8 -12   9    6.86    1.74
  -8 -12  10   28.25    3.01
  -8 -12  11   43.34    3.60
  -8 -13 -16   42.81    3.43
   8  13 -16   44.43    3.81
  -8 -13 -15  185.85    7.15
  -8 -13 -14  228.16    8.12
  -8 -13 -13   45.02    3.74
  -8 -13 -12   43.64    3.75
   8  13 -12   49.30    4.34
  -8 -13 -11  200.96    7.88
  -8 -13 -11  191.11    7.24
  -8 -13 -10   99.35    5.56
  -8 -13 -10  103.29    5.44
   8  13 -10   98.54    6.10
  -8 -13  -9  193.78    7.82
  -8 -13  -9  194.77    7.69
   8  13  -9  195.08    8.61
  -8 -13  -8    5.20    1.72
  -8 -13  -8    4.60    1.70
   8  13  -8    6.85    2.07
  -8 -13  -7  238.77    8.75
  -8 -13  -7  251.06    9.02
   8  13  -7  244.95    9.74
  -8 -13  -6  139.90    6.61
  -8 -13  -6  153.51    6.99
   8  13  -6  134.53    7.13
  -8 -13  -5   59.47    4.32
  -8 -13  -5   55.20    4.34
   8  13  -5   59.80    4.81
  -8 -13  -4   27.75    3.05
  -8 -13  -4   32.36    3.49
   8  13  -4   30.65    3.52
  -8 -13  -3  309.93    9.86
  -8 -13  -3  308.67   10.48
   8  13  -3  324.59   11.07
  -8 -13  -2  255.86    8.74
   8  13  -2  252.64    9.67
   8  13  -1  308.96   10.69
  -8 -13   0    2.11    1.64
   8  13   0    0.79    1.32
  -8 -13   1  298.03   10.29
   8  13   1  291.16   10.20
  -8 -13   2  260.65    9.62
   8  13   2  256.19    9.43
  -8 -13   3  323.13   10.73
   8  13   3  315.56   10.48
  -8 -13   4   30.73    3.42
   8  13   4   25.47    3.15
  -8 -13   5   57.51    4.43
   8  13   5   51.33    4.14
  -8 -13   6  135.48    6.55
   8  13   6  123.54    6.18
  -8 -13   7  247.88    8.91
   8  13   7  222.10    8.14
  -8 -13   8    7.65    2.00
  -8 -13   9  196.89    7.59
  -8 -13  10  114.66    5.63
  -8 -13  11  193.69    7.14
  -8 -14 -13  192.16    7.13
  -8 -14 -12   69.90    4.39
  -8 -14 -11    1.99    1.31
   8  14 -11   -0.19    1.23
  -8 -14 -10   63.19    4.31
  -8 -14 -10   71.92    4.38
   8  14 -10   66.89    4.82
  -8 -14  -9   48.61    3.79
  -8 -14  -9   44.57    3.59
   8  14  -9   46.16    4.06
  -8 -14  -8  131.61    6.15
  -8 -14  -8  133.01    6.15
   8  14  -8  128.80    6.69
  -8 -14  -7  118.42    5.86
  -8 -14  -7  130.43    6.18
   8  14  -7  128.42    6.68
  -8 -14  -6  241.41    8.53
  -8 -14  -6  267.53    9.14
   8  14  -6  252.28    9.55
  -8 -14  -5   58.90    4.20
  -8 -14  -5   60.49    4.41
   8  14  -5   60.13    4.66
  -8 -14  -4   46.83    3.75
  -8 -14  -4   46.64    3.95
   8  14  -4   51.73    4.26
  -8 -14  -3   65.01    4.35
  -8 -14  -3   72.39    4.85
   8  14  -3   71.93    4.99
   8  14  -2   18.28    2.69
   8  14  -1   13.84    2.49
  -8 -14   0   58.28    4.42
   8  14   0   51.37    4.30
  -8 -14   1   21.27    2.80
   8  14   1   20.13    2.80
  -8 -14   2   25.08    3.11
   8  14   2   24.79    2.99
  -8 -14   3   64.66    4.57
   8  14   3   64.33    4.53
  -8 -14   4   50.58    4.10
   8  14   4   54.11    4.18
  -8 -14   5   57.08    4.25
   8  14   5   57.24    4.16
  -8 -14   6  260.86    9.03
   8  14   6  260.94    8.79
  -8 -14   7  126.26    6.09
  -8 -14   8  140.14    6.23
  -8 -14   9   48.04    3.63
  -8 -14  10   70.49    4.25
   8  15 -10   52.09    4.03
  -8 -15  -9   60.79    4.02
   8  15  -9   70.14    4.67
  -8 -15  -8   19.21    2.44
  -8 -15  -8   17.88    2.36
   8  15  -8   19.80    2.70
  -8 -15  -7   51.30    3.71
  -8 -15  -7   53.80    3.84
   8  15  -7   53.47    4.19
  -8 -15  -6   37.01    3.21
  -8 -15  -6   38.23    3.28
   8  15  -6   42.48    3.78
  -8 -15  -5   39.91    3.36
  -8 -15  -5   45.77    3.64
   8  15  -5   41.05    3.75
  -8 -15  -4    0.43    1.08
  -8 -15  -4    3.97    1.40
   8  15  -4    2.17    1.37
  -8 -15  -3  139.68    6.40
   8  15  -3  140.44    6.71
   8  15  -2  101.22    5.65
   8  15  -1  136.11    6.54
  -8 -15   0   61.95    4.40
   8  15   0   55.32    4.20
  -8 -15   1  126.59    6.15
   8  15   1  112.59    5.89
  -8 -15   2   92.87    5.24
   8  15   2   93.92    5.30
  -8 -15   3  138.75    6.38
   8  15   3  139.79    6.38
  -8 -15   4    2.83    1.17
   8  15   4    2.18    1.26
  -8 -15   5   44.94    3.61
  -8 -15   6   37.41    3.23
  -8 -15   7   61.29    4.05
  -8 -15   8   18.31    2.33
  -8 -16  -4   31.35    2.96
  -8 -16  -3   12.09    2.06
  -8 -16   0  101.77    5.21
  -8 -16   1    6.91    1.77
  -8 -16   2   10.52    2.02
  -8 -16   3    8.92    1.87
   9   0   0    2.33    1.26
   9   0   0    1.18    0.99
   9   0   1   52.01    3.94
   9   0  -1   53.69    4.06
   9   0  -1   53.97    4.01
   9   0   1   55.91    4.05
   9   0   2  382.79   11.10
   9   0  -2  356.64   10.90
   9   0  -2  354.57   10.93
   9   0   2  361.50   10.85
   9   0   3   85.31    5.02
   9   0  -3   74.14    4.80
   9   0  -3   70.06    4.76
   9   0   3   80.78    4.95
   9   0   4  293.31    9.76
   9   0   4  307.50    9.94
   9   0   5  501.71   13.06
   9   0   5  510.53   13.14
   9   0   6  192.89    7.71
   9   0   6  192.79    7.79
   9   0   7   50.97    4.02
   9   0   7   53.80    4.08
   9   0   8    0.35    1.13
   9   0   8    0.88    1.32
   9   0   9   11.52    2.19
   9   0   9    8.83    2.00
   9   0  10  255.99    9.25
   9   0  10  242.43    9.06
   9   0  11    1.69    1.42
  -9   0  11    4.26    1.88
   9   0  11    2.61    1.47
  -9   0 -12  584.70   14.19
  -9   0  12  552.65   13.49
   9   0  12  569.87   14.76
   9   0  12  553.39   14.62
  -9   0  13   78.60    4.50
   9   0  13   77.28    5.17
   9   0  13   85.15    5.42
   9   0  14   86.86    5.50
   9   0  14   89.23    5.59
   9   0  15    8.44    2.12
   9   0  15    7.97    2.07
   9   0  16    5.08    1.92
   9   0  16    4.03    1.80
   9   0  17  450.50   13.34
   9   0  17  453.64   13.35
   9   0  18  880.30   19.55
   9   0  18  825.01   19.26
   9   0  19  185.11    8.13
   9   0  19  182.95    8.14
   9   0  20   10.03    2.28
   9   0  20   10.11    2.11
   9   0  21   15.67    2.61
   9   0  21   15.48    2.48
   9   0  22  257.09    9.41
   9   0  22  244.00    9.19
   9   0  23   50.65    4.09
   9   0  23   47.81    4.04
   9   0  24   81.81    4.96
   9   0  24   80.35    4.94
   9   0  25  222.79    8.05
   9   0  25  215.08    7.92
   9  -1  25  245.74    8.49
   9  -1  24  237.96    8.64
   9  -1  23  214.22    8.41
   9  -1  22    0.95    1.42
   9  -1  21   28.87    3.41
   9  -1  20   25.75    3.22
   9  -1  19    1.65    1.45
   9  -1  18  214.36    8.99
   9  -1  17  152.81    7.51
   9  -1  16  201.96    8.61
   9  -1  15  408.51   12.57
  -9  -1 -14  142.66    6.09
   9  -1  14  134.45    6.95
  -9   1  13  133.22    6.18
  -9  -1 -13  152.12    6.43
   9  -1  13  138.59    7.01
   9  -1  12   13.84    2.50
  -9  -1 -12   22.56    3.18
   9  -1  11   15.50    2.55
  -9  -1 -11   29.42    3.79
  -9  -1 -10  165.41    7.31
   9  -1  10  152.81    7.18
  -9  -1  -9  435.20   12.32
   9   1  -9  400.61   11.41
   9  -1   9  415.65   12.27
   9  -1   8  393.04   11.68
   9   1  -8  383.48   10.79
   9  -1   7  524.76   13.80
   9   1  -7  529.44   12.69
   9  -1   6   22.74    2.84
   9   1  -6   23.75    2.45
   9  -1   5  185.37    7.65
   9   1  -5  179.99    6.49
   9  -1   4  289.94    9.68
   9   1  -4  279.06    8.00
   9  -1   3  344.87   10.62
   9   1  -3  333.92   10.43
   9  -1   2   54.11    4.11
   9   1  -2   49.50    3.84
   9   1  -2   59.51    4.34
   9  -1   1  200.42    7.93
   9   1  -1  186.58    7.51
   9   1  -1  198.25    7.87
   9  -1   0   19.65    2.54
   9   1   0   17.73    2.46
   9   1   1  183.32    7.34
   9  -1  -1  198.55    7.91
   9   1   1  192.51    7.68
   9   1   2   45.47    3.65
   9  -1  -2   46.96    3.87
   9   1   2   43.06    3.57
   9   1   3  345.11   10.36
   9  -1  -3  349.52   10.95
   9   1   3  345.76   10.49
   9   1   4  288.74    9.36
   9  -1  -4  286.11    9.87
   9   1   4  288.62    9.54
   9   1   5  181.66    7.35
   9   1   5  174.95    7.36
   9   1   6   35.47    3.31
   9   1   6   31.64    3.20
   9   1   7  521.96   13.45
   9   1   7  481.81   12.90
   9   1   8  422.45   11.99
   9   1   8  398.97   11.58
  -9  -1   9  434.02   12.04
   9   1   9  392.99   11.65
   9   1   9  410.12   12.02
  -9  -1  10  144.22    6.55
   9   1  10  152.29    7.05
   9   1  10  153.98    6.99
  -9  -1  11   16.83    2.48
   9   1  11   14.85    2.53
   9   1  11   17.89    2.59
   9   1  12   13.42    2.28
  -9  -1  12   14.56    2.06
   9   1  12   13.25    2.38
  -9  -1  13  135.41    5.84
   9   1  13  131.59    6.69
   9   1  13  134.67    6.80
  -9   1 -14  164.55    6.80
   9   1  14  149.91    7.27
   9   1  14  139.45    6.92
   9   1  15  398.15   12.30
   9   1  15  401.64   12.30
   9   1  16  179.20    8.01
   9   1  16  185.93    8.17
   9   1  17  147.25    7.27
   9   1  17  147.93    7.28
   9   1  18  231.43    9.20
   9   1  18  222.00    8.97
   9   1  19    1.00    1.26
   9   1  19    2.60    1.36
   9   1  20   23.11    2.90
   9   1  20   22.56    3.01
   9   1  21   34.80    3.54
   9   1  21   30.24    3.35
   9   1  22    2.22    1.53
   9   1  22   -0.37    1.35
   9   1  23  229.18    8.61
   9   1  23  206.17    8.18
   9   1  24  238.15    8.54
   9   1  24  248.40    8.73
   9   1  25  246.39    8.36
   9   1  25  245.30    8.42
   9  -2  25   44.60    3.59
   9  -2  25   44.46    3.52
   9  -2  24   40.31    3.55
   9  -2  24   33.03    3.24
   9  -2  23    6.69    1.87
   9  -2  23    6.90    1.78
   9  -2  22   56.62    4.30
   9  -2  22   54.48    4.34
   9  -2  21   25.63    3.11
   9  -2  21   24.27    3.15
   9  -2  20   82.56    5.30
   9  -2  20   87.01    5.54
   9  -2  19  281.27   10.17
   9  -2  19  276.14   10.21
   9  -2  18  235.40    9.24
   9  -2  18  239.02    9.47
   9  -2  17  327.92   11.09
   9  -2  17  333.83   11.38
   9  -2  16   97.35    5.86
   9  -2  16  105.45    6.20
   9  -2  15   29.24    3.29
   9  -2  15   26.07    3.28
  -9  -2 -14  183.55    6.96
   9  -2  14  192.13    8.44
   9  -2  14  187.59    8.16
  -9  -2 -13   50.04    3.90
   9  -2  13   46.83    4.18
   9  -2  13   47.19    4.03
   9   2 -13   54.20    4.43
  -9  -2 -12  151.75    6.69
   9  -2  12  147.96    7.29
   9  -2  12  156.86    7.26
   9   2 -12  146.29    7.12
  -9  -2 -11  462.13   12.14
   9  -2  11  479.60   13.15
   9   2 -11  466.23   13.10
  -9  -2 -10  378.27   10.98
   9  -2  10  371.36   11.42
   9   2 -10  364.15   11.17
   9  -2  10  363.89   11.59
  -9  -2  -9  616.98   14.61
   9  -2   9  580.38   15.03
   9  -2   9  585.50   14.80
   9   2  -9  579.07   14.40
   9  -2   8   60.82    4.33
   9   2  -8   58.82    4.12
   9  -2   8   56.27    4.35
  -9  -2  -7  351.80   10.94
   9  -2   7  340.20   10.66
   9   2  -7  345.90   10.14
   9  -2   7  348.20   11.03
  -9  -2  -6 1033.19   20.72
   9   2  -6 1006.07   19.18
   9  -2   6 1019.24   20.46
   9  -2   6 1044.46   20.93
   9  -2   5  417.37   12.07
  -9  -2  -5  419.02   12.20
   9   2  -5  408.08   10.61
   9  -2   5  426.37   11.85
   9  -2   4  175.35    7.42
   9   2  -4  161.20    6.11
   9  -2   4  179.82    7.38
   9  -2   3   58.99    4.30
   9   2  -3   48.81    3.82
   9   2  -3   52.51    3.30
   9  -2   3   54.71    4.03
   9  -2   2  252.07    9.07
   9   2  -2  243.83    8.64
   9   2  -2  251.09    8.91
   9  -2   2  238.99    8.58
   9  -2   1   69.69    4.65
   9   2  -1   72.47    4.53
   9   2  -1   71.42    4.61
   9  -2   1   64.14    4.42
   9   2   0   13.26    2.12
   9  -2   0   11.88    2.16
   9  -2   0   10.89    1.95
   9   2   0   13.20    2.15
   9   2   1   67.33    4.35
   9  -2  -1   71.42    4.72
   9  -2  -1   71.20    4.63
   9   2   1   72.48    4.57
   9   2   2  248.00    8.53
   9  -2  -2  257.45    9.34
   9  -2  -2  252.78    9.05
   9   2   2  253.79    8.84
   9   2   3   45.54    3.59
   9  -2  -3   39.36    3.63
   9   2   3   41.37    3.56
   9   2   4  173.05    7.08
   9  -2  -4  183.72    7.85
  -9  -2   4  186.93    7.87
   9   2   4  181.40    7.37
   9   2   5  396.08   11.17
  -9  -2   5  398.50   11.74
   9   2   5  400.85   11.43
   9   2   6  969.32   19.41
  -9  -2   6  993.39   20.11
   9   2   6 1015.71   20.01
  -9  -2   7  348.28   10.68
   9   2   7  366.45   10.87
   9   2   7  344.18   10.39
  -9  -2   8   65.24    4.46
   9   2   8   56.13    4.08
   9   2   8   68.54    4.63
  -9  -2   9  623.66   14.48
   9   2   9  615.66   15.06
   9   2   9  606.45   14.74
  -9  -2  10  359.65   10.38
   9   2  10  354.44   11.04
   9   2  10  356.44   10.87
  -9  -2  11  436.09   11.48
   9   2  11  443.01   12.61
   9   2  11  435.63   12.31
  -9  -2  12  151.80    6.36
   9   2  12  166.92    7.43
   9   2  12  146.93    6.90
  -9  -2  13   44.19    3.44
   9   2  13   42.91    3.78
   9   2  13   44.82    3.92
   9   2  14  209.52    8.45
   9   2  14  221.58    8.82
   9   2  15   22.36    2.91
   9   2  15   25.41    3.15
   9   2  16   91.16    5.67
   9   2  16   90.31    5.53
   9   2  17  344.41   11.36
   9   2  17  339.73   11.11
   9   2  18  232.52    9.17
   9   2  18  227.22    9.00
   9   2  19  270.52    9.89
   9   2  19  260.01    9.61
   9   2  20   86.55    5.46
   9   2  20   81.53    5.28
   9   2  21   30.37    3.32
   9   2  21   31.27    3.35
   9   2  22   43.00    3.84
   9   2  22   50.10    4.03
   9   2  23    4.36    1.55
   9   2  23    5.56    1.63
   9   2  24   40.99    3.46
   9   2  24   37.85    3.51
   9   2  25   36.86    3.17
   9   2  25   39.44    3.34
   9  -3  25   60.12    3.96
   9  -3  24   35.04    3.19
   9  -3  23   27.28    2.96
   9  -3  22   16.28    2.45
   9  -3  21    4.38    1.54
   9  -3  20    4.33    1.63
   9  -3  19   24.07    2.91
   9  -3  18  202.69    8.42
   9  -3  17  181.95    8.00
   9  -3  16  344.10   11.25
   9  -3  15  386.74   12.00
   9   3 -15  389.05   12.66
  -9  -3 -14  395.86   10.58
   9  -3  14  412.47   12.29
   9   3 -14  406.81   12.92
  -9  -3 -13   56.74    3.93
   9  -3  13   58.04    4.43
   9   3 -13   61.52    4.80
   9  -3  12   16.67    2.55
   9   3 -12   14.70    2.51
  -9  -3 -11   66.26    4.67
   9  -3  11   69.53    4.75
   9   3 -11   64.88    4.71
  -9  -3 -10  126.73    6.18
   9  -3  10  128.02    6.40
   9   3 -10  117.83    6.27
  -9  -3  -9  176.61    7.48
   9  -3   9  177.24    7.50
   9   3  -9  174.75    7.45
  -9  -3  -8  101.75    5.76
   9  -3   8  105.69    5.71
   9   3  -8  106.98    5.65
  -9  -3  -7  255.17    9.09
   9   3  -7  248.57    8.62
   9  -3   7  255.86    8.93
   9   3  -6   43.12    3.42
   9  -3   6   49.61    3.85
  -9  -3  -5  356.44   10.87
   9   3  -5  345.33    9.86
   9  -3   5  360.11   10.71
  -9  -3  -4  482.20   12.81
   9   3  -4  463.29   11.44
   9  -3   4  472.03   12.49
   9   3  -3  112.95    5.07
   9  -3   3  111.14    5.74
   9   3  -2  112.90    5.60
   9   3  -2  109.11    5.84
   9   3  -2  120.74    5.07
   9  -3   2  116.75    5.90
   9   3  -1  850.02   17.51
   9   3  -1  832.65   17.90
   9  -3   1  842.43   17.79
   9   3   0  515.26   12.79
  -9  -3   0  496.98   13.20
   9  -3   0  498.64   13.07
   9   3   0  504.70   13.07
   9   3   1  805.10   16.76
  -9  -3   1  798.54   17.41
   9  -3  -1  814.88   17.46
   9   3   1  778.75   17.14
   9   3   2  133.41    6.02
  -9  -3   2  141.16    6.81
   9  -3  -2  139.65    6.54
   9   3   2  137.85    6.41
   9   3   3  120.49    5.73
  -9  -3   3  115.78    6.09
   9   3   3  117.64    5.89
   9   3   4  471.99   12.20
  -9  -3   4  472.56   12.75
   9   3   4  494.04   12.77
   9   3   5  320.97    9.82
  -9  -3   5  341.16   10.42
   9   3   5  337.22   10.27
   9   3   6   54.48    3.92
  -9  -3   6   52.83    4.16
   9   3   6   48.62    3.84
   9   3   7  254.84    8.68
  -9  -3   7  269.40    9.04
   9   3   7  256.57    9.00
  -9  -3   8  104.93    5.52
   9   3   8   98.55    5.48
   9   3   8   90.02    5.11
  -9  -3   9  171.67    7.02
   9   3   9  150.08    6.74
   9   3   9  172.97    7.39
  -9  -3  10  132.20    6.11
   9   3  10  134.75    6.57
   9   3  10  137.17    6.40
  -9  -3  11   56.33    4.00
   9   3  11   53.81    4.19
   9   3  11   57.44    4.22
   9   3  12   11.05    2.14
  -9  -3  12   11.78    2.11
   9   3  12   16.05    2.48
  -9  -3  13   52.61    3.70
   9   3  13   62.04    4.55
   9   3  13   60.80    4.39
   9   3  14  409.60   12.06
   9   3  14  419.66   12.47
   9   3  15  380.55   11.58
   9   3  15  399.26   12.15
   9   3  16  321.18   10.61
   9   3  16  322.59   10.85
   9   3  17  177.70    7.69
   9   3  17  186.81    8.10
   9   3  18  211.28    8.41
   9   3  18  203.44    8.51
   9   3  19   21.05    2.83
   9   3  19   22.79    2.92
   9   3  20    3.40    1.55
   9   3  20    3.59    1.47
   9   3  21    2.08    1.48
   9   3  21    3.12    1.41
   9   3  22   21.50    2.70
   9   3  22   19.18    2.61
   9   3  23   21.80    2.64
   9   3  23   25.33    2.85
   9   3  24   35.29    3.17
   9   3  24   29.44    2.89
   9   3  25   77.15    4.45
   9  -4  25   30.59    2.96
   9  -4  24   28.70    2.88
   9  -4  24   36.63    3.33
   9  -4  23   13.59    2.25
   9  -4  23   13.55    2.18
   9  -4  22   13.92    2.42
   9  -4  22   14.25    2.27
   9  -4  21   65.91    4.75
   9  -4  21   70.57    4.62
   9  -4  20   33.01    3.55
   9  -4  20   38.18    3.61
   9  -4  19   12.30    2.39
   9  -4  19   14.68    2.35
   9  -4  18   98.03    5.93
   9  -4  18   92.06    5.52
   9  -4  17  376.60   12.15
   9  -4  17  395.17   11.93
   9   4 -17  366.10   12.51
   9  -4  16   27.80    3.39
   9  -4  16   28.24    3.24
   9   4 -16   26.54    3.41
   9  -4  15   68.36    5.00
   9  -4  15   68.34    4.77
   9   4 -15   63.68    4.98
  -9  -4 -14  338.75    9.67
   9  -4  14  350.77   11.10
   9  -4  14  319.97   11.16
   9   4 -14  348.63   11.88
  -9  -4 -13  166.14    6.69
   9  -4  13  151.87    7.06
   9   4 -13  160.95    7.78
  -9  -4 -12  237.39    8.30
   9  -4  12  255.93    9.23
   9   4 -12  243.95    9.59
  -9  -4 -11  145.09    6.44
   9  -4  11  139.83    6.71
   9   4 -11  138.76    6.99
  -9  -4 -10  140.14    6.60
   9  -4  10  138.72    6.61
   9   4 -10  138.79    6.88
  -9  -4  -9  487.63   12.87
   9   4  -9  482.10   13.28
   9  -4   9  487.84   13.00
  -9  -4  -8  532.39   13.55
   9   4  -8  528.02   13.76
   9  -4   8  529.67   13.59
  -9  -4  -7  664.32   15.37
   9   4  -7  638.29   15.14
   9  -4   7  620.19   14.99
  -9  -4  -6  763.27   16.85
   9   4  -6  746.07   16.41
   9  -4   6  753.86   16.65
  -9  -4  -5  263.72    9.08
   9   4  -5  241.64    8.35
   9  -4   5  256.89    8.84
  -9  -4  -4  102.36    5.79
   9   4  -4   93.87    4.95
   9  -4   4   98.32    5.32
   9   4  -3  312.61    9.17
   9  -4   3  322.21    9.93
   9   4  -2  588.02   13.02
   9  -4   2  598.46   14.28
   9   4  -1   90.71    4.93
   9   4  -1   94.07    5.33
   9   4  -1   92.85    4.48
   9  -4   1   89.28    5.08
   9   4   0   10.46    1.76
  -9  -4   0   10.70    2.48
   9  -4   0    8.24    1.72
   9   4   0   10.84    1.93
   9   4   1   78.30    4.54
  -9  -4   1   81.81    5.23
   9  -4  -1   80.99    4.86
   9   4   1   73.85    4.68
   9   4   2  604.50   13.90
  -9  -4   2  615.67   14.66
   9   4   2  592.87   14.32
   9   4   3  328.78    9.67
  -9  -4   3  316.78   10.12
   9   4   3  340.46   10.24
   9   4   4   83.96    4.71
  -9  -4   4   93.99    5.39
   9   4   4   84.96    4.96
   9   4   5  230.13    8.10
  -9  -4   5  250.36    8.82
   9   4   5  250.41    8.76
   9   4   6  717.97   15.77
  -9  -4   6  747.88   16.43
   9   4   6  763.63   16.67
   9   4   7  655.82   14.79
  -9  -4   7  643.33   14.99
   9   4   7  651.02   15.30
   9   4   8  521.93   12.90
  -9  -4   8  506.65   13.05
   9   4   8  514.93   13.40
  -9  -4   9  501.54   12.77
   9   4   9  508.74   12.89
   9   4   9  505.59   13.31
  -9  -4  10  128.24    6.06
   9   4  10  124.96    6.01
   9   4  10  129.75    6.39
  -9  -4  11  141.90    6.22
   9   4  11  146.33    6.87
   9   4  11  127.85    6.16
  -9  -4  12  230.86    7.94
   9   4  12  236.63    8.57
   9   4  12  227.68    8.76
  -9  -4  13  169.56    6.63
   9   4  13  165.05    7.45
   9   4  13  167.27    7.21
   9   4  14  370.65   11.50
   9   4  14  357.21   10.92
   9   4  15   73.79    4.97
   9   4  15   67.88    4.62
   9   4  16   32.94    3.47
   9   4  16   34.11    3.40
   9   4  17  374.57   11.67
   9   4  17  381.26   11.33
   9   4  18   74.71    4.82
   9   4  18   84.81    5.26
   9   4  19   10.37    2.03
   9   4  19   11.32    2.07
   9   4  20   27.73    3.01
   9   4  20   30.89    3.31
   9   4  21   74.77    4.77
   9   4  21   68.73    4.44
   9   4  22   12.31    2.10
   9   4  22    9.62    2.03
   9   4  23    9.24    1.78
   9   4  23    8.11    1.90
   9   4  24   32.83    3.08
   9  -5  24   95.19    5.02
   9  -5  23  140.51    6.02
   9  -5  23  138.12    6.30
   9  -5  22   91.20    5.02
   9  -5  22   86.96    5.15
   9  -5  21   37.94    3.36
   9  -5  21   33.96    3.46
   9  -5  20   17.04    2.54
   9  -5  20   19.34    2.73
   9  -5  19   33.10    3.30
   9  -5  19   29.74    3.31
   9  -5  18  109.66    5.90
   9  -5  18  113.77    6.30
   9   5 -18  110.33    6.59
   9  -5  17   14.58    2.68
   9  -5  17   10.22    2.13
   9   5 -17   12.57    2.43
   9  -5  16  176.28    7.58
   9  -5  16  180.21    8.05
   9   5 -16  171.26    8.33
   9  -5  15  170.89    7.46
   9  -5  15  158.06    7.56
   9   5 -15  158.09    7.93
  -9  -5 -14  339.94    9.75
   9  -5  14  353.38   11.05
   9   5 -14  352.74   12.05
   9  -5  14  352.34   11.54
  -9  -5 -13  223.89    7.93
   9  -5  13  220.94    8.56
   9   5 -13  245.78    9.76
   9  -5  13  241.56    9.31
   9  -5  12    7.35    2.01
  -9  -5 -12    7.38    1.76
   9  -5  12    5.55    1.74
   9   5 -12    7.24    1.82
  -9  -5 -11   37.52    3.39
   9  -5  11   36.85    3.47
   9   5 -11   32.95    3.54
   9  -5  11   36.79    3.68
  -9  -5 -10  110.64    5.74
   9  -5  10  126.95    6.55
   9   5 -10  123.09    6.55
   9  -5  10  125.22    6.22
  -9  -5  -9  213.10    8.09
   9  -5   9  206.04    8.41
   9   5  -9  206.67    8.48
   9  -5   9  203.16    7.96
   9  -5   8  171.64    7.57
  -9  -5  -8  168.91    7.17
   9   5  -8  158.24    7.27
   9  -5   8  164.00    7.04
   9  -5   7  312.27   10.54
  -9  -5  -7  312.34   10.19
   9   5  -7  318.76   10.35
   9  -5   7  319.34    9.97
   9  -5   6  113.30    6.12
  -9  -5  -6  106.69    5.96
   9   5  -6  106.46    5.70
   9  -5   6  118.01    5.83
   9  -5   5  164.83    7.38
  -9  -5  -5  150.34    7.11
   9   5  -5  162.27    6.89
   9  -5   5  167.13    7.00
   9  -5   4  105.52    5.98
  -9  -5  -4  105.86    5.90
   9   5  -4  103.20    5.39
   9  -5   4  107.16    5.50
   9  -5   3   36.01    3.56
   9   5  -3   37.31    3.21
   9  -5   3   36.61    3.23
   9  -5   2  181.08    7.69
   9   5  -2  171.77    6.68
   9  -5   2  188.93    7.38
   9  -5   1   60.53    4.42
   9  -5   1   66.03    4.38
   9   5  -1   57.25    3.70
   9  -5   0   13.70    2.26
   9   5   0    9.23    1.66
  -9  -5   0    8.15    2.33
   9  -5   0    9.77    1.83
   9   5   0    9.34    1.86
   9   5   0    6.51    1.42
   9  -5  -1   84.75    5.33
   9   5   1   81.45    4.49
  -9  -5   1   74.25    5.04
   9   5   1   79.28    4.84
   9   5   2  164.74    6.50
   9  -5  -2  168.05    7.51
  -9  -5   2  170.64    7.42
   9   5   2  173.69    7.14
   9   5   3   44.52    3.34
   9  -5  -3   37.65    3.67
  -9  -5   3   35.28    3.68
   9   5   3   43.94    3.58
   9   5   4  120.04    5.52
  -9  -5   4  106.59    5.95
   9   5   4  115.68    5.77
   9   5   5  155.10    6.32
  -9  -5   5  159.15    7.08
   9   5   5  145.88    6.61
   9   5   6   92.64    4.89
  -9  -5   6   88.84    5.27
   9   5   6  105.66    5.54
   9   5   7  314.94    9.42
  -9  -5   7  312.89    9.98
   9   5   7  308.11    9.88
   9   5   8  163.45    6.68
  -9  -5   8  168.50    7.04
   9   5   8  171.01    7.22
   9   5   9  198.71    7.44
  -9  -5   9  198.78    7.65
   9   5   9  203.89    7.97
   9   5  10  110.88    5.50
  -9  -5  10  115.48    5.74
   9   5  10  116.90    6.05
  -9  -5  11   42.19    3.49
   9   5  11   42.13    3.72
   9   5  11   40.94    3.44
   9   5  12    5.39    1.60
  -9  -5  12    4.20    1.49
   9   5  12    6.86    1.92
  -9  -5  13  230.69    7.84
   9   5  13  231.39    8.77
   9   5  13  216.83    8.03
   9   5  14  361.82   11.27
   9   5  14  364.45   10.67
   9   5  15  161.85    6.89
   9   5  15  168.66    7.44
   9   5  16  155.98    7.18
   9   5  16  149.15    6.61
   9   5  17   12.21    2.14
   9   5  17   12.98    2.34
   9   5  18   99.33    5.59
   9   5  18   99.71    5.29
   9   5  19   34.91    3.39
   9   5  19   29.15    3.00
   9   5  20   19.49    2.65
   9   5  20   18.28    2.38
   9   5  21   35.76    3.28
   9   5  22   83.01    4.75
   9   5  23  131.13    5.83
   9  -6  23   13.30    2.09
   9  -6  22   58.18    4.12
   9  -6  22   57.53    3.88
   9  -6  21  156.18    6.90
   9  -6  21  157.54    6.49
   9  -6  20   48.02    3.71
   9  -6  20   47.29    3.97
   9  -6  19   56.57    4.05
   9   6 -19   59.07    4.77
   9  -6  19   58.66    4.46
   9  -6  18   45.06    3.72
   9   6 -18   47.75    4.38
   9  -6  18   47.49    4.09
   9  -6  17  504.20   13.15
   9   6 -17  480.80   14.59
   9  -6  17  506.96   13.91
   9  -6  16  307.86   10.59
   9  -6  16  307.80   10.02
   9   6 -16  324.27   11.65
   9  -6  15  112.74    6.24
   9  -6  15  108.81    5.80
   9   6 -15  100.92    6.35
  -9  -6 -14   33.81    3.09
   9  -6  14   34.97    3.59
   9  -6  14   38.64    3.46
   9   6 -14   30.76    3.57
  -9  -6 -13   93.53    5.08
   9  -6  13   98.50    5.46
   9   6 -13   97.67    6.20
   9  -6  13   97.95    5.85
  -9  -6 -12  170.36    6.98
   9  -6  12  172.34    7.74
   9   6 -12  163.26    7.96
   9  -6  12  165.77    7.14
  -9  -6 -11   83.58    4.99
   9   6 -11   82.45    5.53
   9  -6  11   90.40    5.18
   9  -6  11   90.91    5.61
  -9  -6 -10  125.86    6.13
   9   6 -10  124.65    6.78
   9  -6  10  127.18    6.60
   9  -6  10  125.29    6.11
   9  -6   9  218.17    8.72
  -9  -6  -9  214.03    8.16
   9   6  -9  215.73    8.83
   9  -6   9  208.03    7.95
   9  -6   8  174.06    7.73
  -9  -6  -8  174.58    7.38
   9   6  -8  173.59    7.74
   9  -6   8  164.89    6.99
   9  -6   7  522.92   13.92
  -9  -6  -7  515.48   13.55
   9   6  -7  502.63   13.71
   9  -6   7  501.23   12.93
   9  -6   6  142.67    6.86
  -9  -6  -6  162.00    7.14
   9   6  -6  149.16    6.93
   9  -6   6  145.26    6.48
   9  -6   5  100.21    5.71
  -9  -6  -5   89.53    5.32
   9   6  -5   91.32    5.32
   9  -6   5   89.00    5.02
   9  -6   4  342.21   10.90
  -9  -6  -4  356.85   10.96
   9   6  -4  335.60   10.35
   9  -6   4  343.19   10.25
   9  -6   3  155.86    7.18
   9   6  -3  157.14    6.70
   9  -6   3  155.10    6.68
   9  -6   2   13.73    2.29
   9  -6   2   14.51    2.13
   9   6  -2   13.35    2.09
   9  -6   1   20.74    2.73
   9  -6   1   21.63    2.64
   9   6  -1   20.66    2.46
   9  -6   0   11.31    2.21
  -9  -6   0   16.20    2.46
   9   6   0    9.35    1.71
   9  -6  -1   29.08    3.23
  -9  -6   1   27.63    3.09
   9   6   1   31.56    3.12
   9   6   1   26.49    2.60
   9  -6  -2   17.85    2.60
  -9  -6   2   13.52    2.39
   9   6   2   16.26    2.34
  -9  -6   3  151.44    6.89
   9   6   3  135.82    6.28
  -9  -6   4  370.67   11.11
   9   6   4  369.50   10.81
  -9  -6   5   84.95    5.16
   9   6   5   88.45    5.04
  -9  -6   6  146.17    6.75
   9   6   6  153.54    6.70
  -9  -6   7  532.31   13.52
   9   6   7  509.08   13.10
  -9  -6   8  161.37    6.98
   9   6   8  169.60    7.12
  -9  -6   9  198.88    7.70
   9   6   9  191.86    7.64
  -9  -6  10  125.36    6.00
   9   6  10  112.77    5.84
  -9  -6  11   86.67    4.94
   9   6  11   83.58    5.01
  -9  -6  12  174.98    6.96
   9   6  12  174.61    7.36
  -9  -6  13   88.60    4.84
   9   6  13   93.97    5.42
   9   6  14   39.47    3.52
   9   6  15   95.45    5.43
   9   6  16  315.57   10.14
   9   6  17  482.67   12.83
   9   6  18   41.18    3.56
   9   6  19   59.33    4.17
   9   6  20   52.93    3.83
   9   6  21  161.72    6.52
   9   6  22   50.59    3.58
   9  -7  22  105.34    5.21
   9  -7  21  181.02    7.14
   9  -7  20   91.36    5.19
   9   7 -19  121.23    6.77
   9  -7  19  128.38    6.25
   9  -7  18  164.82    6.72
   9   7 -18  189.02    8.58
   9  -7  18  182.88    7.66
   9  -7  17   69.34    4.38
   9   7 -17   68.13    5.23
   9  -7  17   75.21    4.95
   9  -7  16  113.84    6.14
   9  -7  16  109.86    5.57
   9   7 -16  117.02    6.84
   9  -7  15  229.44    8.87
   9   7 -15  220.38    9.48
   9  -7  15  222.83    8.10
  -9  -7 -14  271.59    8.61
   9   7 -14  264.32   10.48
   9  -7  14  274.00    9.07
   9  -7  14  280.89    9.91
  -9  -7 -13  195.80    7.42
   9   7 -13  203.26    9.06
   9  -7  13  204.58    7.73
   9  -7  13  206.01    8.42
   9  -7  12   10.78    2.24
  -9  -7 -12    9.16    1.98
   9  -7  12   12.81    2.11
   9   7 -12   10.30    2.37
   9  -7  11  128.60    6.61
  -9  -7 -11  125.46    6.13
   9   7 -11  131.50    7.10
   9  -7  11  130.07    6.12
   9  -7  10  280.20    9.91
  -9  -7 -10  282.33    9.50
   9   7 -10  269.74   10.27
   9  -7  10  269.32    8.99
   9  -7   9   96.56    5.68
  -9  -7  -9  103.97    5.66
   9   7  -9  102.39    6.09
   9  -7   9   88.55    5.02
   9  -7   8   69.40    4.83
  -9  -7  -8   66.32    4.60
   9   7  -8   68.81    4.96
   9  -7   8   68.53    4.40
   9  -7   7  133.76    6.70
  -9  -7  -7  132.94    6.55
   9   7  -7  138.92    6.94
   9  -7   7  127.09    5.98
   9  -7   6  191.08    8.02
  -9  -7  -6  184.12    7.76
   9   7  -6  184.70    7.95
   9  -7   6  194.87    7.43
   9  -7   5  221.27    8.63
  -9  -7  -5  236.97    8.82
   9   7  -5  212.08    8.46
   9  -7   5  226.67    8.08
   9  -7   4  142.12    6.81
  -9  -7  -4  130.48    6.55
   9   7  -4  139.27    6.63
   9  -7   4  141.45    6.27
   9  -7   3   20.08    2.60
  -9  -7  -3   19.33    2.37
   9  -7   3   22.37    2.59
   9   7  -3   16.83    2.41
   9  -7   2   65.93    4.59
   9  -7   2   58.71    4.03
   9   7  -2   56.62    4.09
   9  -7   1   36.34    3.52
  -9  -7  -1   31.33    3.35
   9   7  -1   30.25    3.00
   9  -7   0    6.88    1.89
  -9  -7   0    6.00    1.72
   9   7   0    3.04    1.27
   9  -7  -1   27.82    3.08
  -9  -7   1   22.89    2.89
   9   7   1   22.83    2.57
  -9  -7   2   52.74    4.17
   9   7   2   49.85    3.75
   9   7   2   47.49    3.46
  -9  -7   3   28.79    3.17
   9   7   3   26.59    2.83
  -9  -7   4  143.01    6.83
   9   7   4  147.82    6.47
  -9  -7   5  205.49    8.10
   9   7   5  198.38    7.57
  -9  -7   6  197.14    7.92
   9   7   6  193.98    7.46
  -9  -7   7  130.86    6.34
   9   7   7  119.67    5.82
  -9  -7   8   76.53    4.80
   9   7   8   73.65    4.57
  -9  -7   9   90.29    5.14
   9   7   9   93.87    5.17
  -9  -7  10  262.25    8.97
   9   7  10  257.39    8.78
  -9  -7  11  136.99    6.24
   9   7  11  133.69    6.24
  -9  -7  12   12.45    2.16
   9   7  12    8.60    1.90
   9   7  13  189.57    7.48
   9   7  14  263.14    8.89
   9   7  15  213.22    7.91
   9   7  16  104.66    5.42
   9   7  17   66.45    4.29
   9   7  18  172.35    6.83
   9   7  19  105.37    5.22
  -9  -8 -22   21.29    2.53
   9  -8  21  238.19    7.80
  -9  -8 -21  234.73    8.18
   9  -8  20   72.17    4.39
   9   8 -20   70.08    4.98
   9  -8  19   61.64    4.17
   9   8 -19   59.64    4.72
   9  -8  18   51.15    3.93
   9   8 -18   40.31    4.01
   9  -8  17  395.36   11.40
   9   8 -17  398.96   12.88
   9  -8  16  157.48    7.00
   9   8 -16  163.80    8.08
   9  -8  15  140.59    6.68
   9   8 -15  148.34    7.71
   9  -8  14   55.26    4.24
   9   8 -14   50.17    4.55
   9  -8  14   55.31    3.80
   9  -8  13   25.53    3.08
  -9  -8 -13   27.36    2.96
   9   8 -13   27.03    3.44
   9  -8  13   26.74    2.79
   9  -8  12  149.14    7.01
  -9  -8 -12  160.26    6.82
   9   8 -12  156.56    7.88
   9  -8  12  149.08    6.29
   9  -8  11  158.15    7.24
  -9  -8 -11  158.63    6.90
   9   8 -11  167.04    8.10
   9  -8  11  152.29    6.38
   9  -8  10   23.40    2.97
  -9  -8 -10   19.53    2.72
   9   8 -10   19.33    2.97
   9  -8  10   21.24    2.55
   9  -8   9  188.43    7.94
  -9  -8  -9  195.63    7.94
   9   8  -9  197.26    8.77
   9  -8   9  178.19    6.96
   9  -8   8  190.86    7.97
  -9  -8  -8  188.27    7.87
   9   8  -8  188.17    8.41
   9  -8   8  178.31    6.97
   9  -8   7  445.99   12.68
  -9  -8  -7  444.37   12.62
   9   8  -7  436.94   13.18
   9  -8   7  438.16   11.46
   9  -8   6  193.92    8.01
  -9  -8  -6  187.74    7.55
  -9  -8  -6  202.16    8.19
   9   8  -6  195.45    8.36
   9  -8   6  198.96    7.35
   9  -8   5   51.74    4.12
  -9  -8  -5   50.08    3.78
  -9  -8  -5   52.52    4.27
   9  -8   5   45.97    3.58
   9   8  -5   45.25    3.98
   9  -8   4  148.95    6.97
  -9  -8  -4  151.56    6.49
  -9  -8  -4  159.78    7.31
   9  -8   4  142.34    6.18
   9   8  -4  154.19    7.17
  -9  -8  -3  281.69    8.93
   9  -8   3  273.38    9.68
   9   8  -3  281.93    9.72
   9  -8   2   74.93    4.92
   9   8  -2   74.40    4.82
   9  -8   1    9.59    1.93
  -9  -8  -1   10.71    2.29
   9   8  -1   10.21    1.99
   9  -8   0   26.90    3.04
  -9  -8   0   24.04    3.03
   9   8   0   29.18    3.04
  -9  -8   1   11.63    2.30
   9   8   1   14.50    2.23
  -9  -8   2   70.92    4.99
   9   8   2   68.10    4.31
  -9  -8   3  294.65   10.07
   9   8   3  274.93    8.68
  -9  -8   4  168.53    7.56
  -9  -8   5   57.20    4.36
  -9  -8   6  202.29    8.16
  -9  -8   7  436.26   12.39
  -9  -8   8  174.29    7.41
  -9  -8   9  201.59    7.92
  -9  -8  10   16.80    2.52
  -9  -8  11  151.32    6.59
  -9  -8  12  172.38    6.94
  -9  -9 -21  134.48    5.86
  -9  -9 -20   82.70    4.76
  -9  -9 -19  189.38    7.42
   9   9 -19  201.42    8.35
  -9  -9 -18  144.37    6.59
   9   9 -18  149.28    7.35
   9  -9  17  125.63    5.81
  -9  -9 -17  123.80    6.20
   9   9 -17  116.52    6.66
   9  -9  16   46.57    3.71
  -9  -9 -16   51.85    4.19
   9   9 -16   55.09    4.62
   9  -9  15   81.09    4.85
  -9  -9 -15   82.15    5.19
   9   9 -15   94.14    6.05
   9  -9  14  268.03    9.10
  -9  -9 -14  268.16    9.56
   9   9 -14  281.66   10.69
   9  -9  13  425.00   11.87
  -9  -9 -13  416.76   12.33
  -9  -9 -13  417.95   11.21
   9   9 -13  435.56   13.62
   9  -9  12  100.07    5.54
  -9  -9 -12   90.51    5.50
  -9  -9 -12   89.31    5.09
   9   9 -12   93.76    6.16
   9  -9  11    5.09    1.68
  -9  -9 -11    1.28    1.46
  -9  -9 -11    1.34    1.32
   9   9 -11    1.14    1.49
   9  -9  10    2.48    1.43
  -9  -9 -10    3.63    1.62
  -9  -9 -10    2.08    1.55
   9   9 -10    3.39    1.71
   9  -9   9   38.60    3.58
  -9  -9  -9   30.43    3.26
  -9  -9  -9   38.63    3.61
   9   9  -9   34.76    3.83
   9  -9   8   13.37    2.33
  -9  -9  -8   13.91    2.42
  -9  -9  -8   17.66    2.60
   9   9  -8   14.00    2.58
   9  -9   7  111.87    5.97
  -9  -9  -7  114.81    5.96
  -9  -9  -7  110.92    6.09
   9   9  -7  110.36    6.46
  -9  -9  -6  268.50    9.18
   9  -9   6  256.93    9.21
  -9  -9  -6  260.75    9.44
   9   9  -6  268.90   10.07
  -9  -9  -5  360.17   10.65
   9  -9   5  369.59   11.22
  -9  -9  -5  358.03   11.38
   9   9  -5  356.60   11.64
  -9  -9  -4  142.79    6.42
   9  -9   4  158.97    7.09
  -9  -9  -4  151.29    7.20
   9   9  -4  154.63    7.33
  -9  -9  -3   40.82    3.48
   9  -9   3   47.52    3.93
   9   9  -3   44.69    3.95
   9  -9   2   15.04    2.42
   9   9  -2   10.80    2.10
  -9  -9  -1   33.20    3.49
   9   9  -1   32.63    3.35
  -9  -9   0   22.19    3.00
   9   9   0   19.17    2.61
  -9  -9   1   41.62    3.86
   9   9   1   34.46    3.31
  -9  -9   2    6.15    1.83
   9   9   2    7.93    1.80
  -9  -9   3   34.41    3.60
   9   9   3   27.87    2.86
  -9  -9   4  179.71    7.74
   9   9   4  155.43    6.44
  -9  -9   5  354.58   11.20
  -9  -9   6  281.65    9.82
  -9  -9   7   95.69    5.60
  -9  -9   8   17.43    2.61
  -9  -9   9   26.47    3.03
  -9  -9  10    5.50    1.81
  -9  -9  11    4.81    1.62
  -9  -9  12   96.17    5.16
  -9 -10 -19   19.81    2.52
  -9 -10 -18  234.45    8.16
   9  10 -18  243.53    9.16
  -9 -10 -17  225.20    8.16
   9  10 -17  234.52    9.19
  -9 -10 -16  137.18    6.45
   9  10 -16  161.18    7.63
  -9 -10 -15   48.48    4.00
   9  10 -15   54.87    4.62
  -9 -10 -14  110.58    5.94
   9  10 -14  117.40    6.73
  -9 -10 -13  109.03    5.94
   9  10 -13  114.81    6.66
  -9 -10 -12   23.56    3.05
   9 -10  12   21.44    2.56
  -9 -10 -12   21.79    2.69
   9  10 -12   27.16    3.50
  -9 -10 -11   29.17    3.30
   9 -10  11   27.53    2.89
  -9 -10 -11   31.53    3.21
   9  10 -11   34.45    3.83
  -9 -10 -10   55.18    4.25
   9 -10  10   46.39    3.72
  -9 -10 -10   53.36    4.14
   9  10 -10   49.45    4.53
  -9 -10  -9  405.12   11.90
   9 -10   9  424.31   11.60
  -9 -10  -9  432.35   12.17
   9  10  -9  412.19   13.15
  -9 -10  -8  131.53    6.51
   9 -10   8  135.82    6.32
  -9 -10  -8  140.85    6.78
   9  10  -8  152.76    7.66
  -9 -10  -7   63.58    4.48
   9 -10   7   56.37    4.12
  -9 -10  -7   60.28    4.57
   9  10  -7   55.90    4.65
  -9 -10  -6   32.21    3.27
   9 -10   6   32.49    3.23
  -9 -10  -6   37.69    3.65
   9  10  -6   29.32    3.47
  -9 -10  -5  102.82    5.52
   9 -10   5  110.34    5.73
  -9 -10  -5   98.67    5.81
   9  10  -5  107.25    6.26
   9 -10   4  283.27    9.40
  -9 -10  -4  268.42    9.03
  -9 -10  -4  292.30   10.20
   9  10  -4  283.57   10.21
  -9 -10  -3  287.80    9.17
   9  10  -3  290.39   10.24
   9  10  -2   40.88    3.79
  -9 -10  -1  107.05    6.13
   9  10  -1  106.24    5.93
  -9 -10   0   99.24    5.91
   9  10   0   95.00    5.56
  -9 -10   1  108.42    6.18
   9  10   1  106.81    5.75
  -9 -10   2   38.12    3.80
   9  10   2   36.64    3.38
  -9 -10   3  319.15   10.64
   9  10   3  285.29    9.36
  -9 -10   4  316.51   10.57
   9  10   4  287.05    9.21
  -9 -10   5  101.67    5.87
  -9 -10   6   27.87    3.18
  -9 -10   7   62.66    4.52
  -9 -10   8  135.68    6.53
  -9 -10   9  404.82   11.62
  -9 -10  10   58.68    4.23
  -9 -10  11   32.65    3.21
  -9 -10  12   22.99    2.62
  -9 -11 -17    9.73    1.85
   9  11 -17    9.17    1.99
  -9 -11 -16   44.53    3.55
   9  11 -16   42.30    3.88
  -9 -11 -15   57.00    4.18
   9  11 -15   58.39    4.55
  -9 -11 -14   62.17    4.32
   9  11 -14   67.67    4.99
  -9 -11 -13  230.03    8.42
   9  11 -13  225.00    9.19
  -9 -11 -12  105.84    5.67
  -9 -11 -12   94.47    5.05
   9  11 -12  104.07    6.27
  -9 -11 -11   29.43    3.16
  -9 -11 -11   25.71    2.91
   9  11 -11   28.11    3.47
  -9 -11 -10    8.95    2.02
  -9 -11 -10    9.47    2.01
   9  11 -10   12.40    2.52
  -9 -11  -9   85.25    5.19
  -9 -11  -9   85.25    5.13
   9  11  -9   86.55    5.76
  -9 -11  -8  146.86    6.71
  -9 -11  -8  142.30    6.71
   9  11  -8  139.77    7.29
  -9 -11  -7  127.12    6.21
  -9 -11  -7  135.11    6.61
   9  11  -7  128.81    6.96
  -9 -11  -6  394.68   11.38
  -9 -11  -6  397.94   11.96
   9  11  -6  396.50   12.54
  -9 -11  -5  632.38   15.00
   9  11  -5  652.85   16.59
  -9 -11  -4  135.80    6.28
  -9 -11  -4  144.22    7.01
   9  11  -4  145.62    7.22
   9  11  -3  152.84    7.32
   9  11  -2   61.57    4.66
   9  11  -1   14.03    2.40
  -9 -11   0   43.25    4.03
   9  11   0   42.19    3.82
  -9 -11   1   15.81    2.72
   9  11   1   15.01    2.47
  -9 -11   2   66.16    4.86
   9  11   2   54.09    4.11
  -9 -11   3  150.20    7.19
   9  11   3  143.27    6.54
  -9 -11   4  152.32    7.20
   9  11   4  131.42    6.17
  -9 -11   5  686.85   16.44
  -9 -11   6  406.15   11.94
  -9 -11   7  139.09    6.65
  -9 -11   8  137.16    6.50
  -9 -11   9   81.71    4.97
  -9 -11  10   14.86    2.29
  -9 -11  11   24.20    2.73
  -9 -12 -15   56.77    3.92
   9  12 -15   57.16    4.25
  -9 -12 -14   23.75    2.69
   9  12 -14   21.72    2.84
  -9 -12 -13   37.56    3.39
   9  12 -13   43.51    3.92
  -9 -12 -12   14.30    2.28
   9  12 -12   12.98    2.41
  -9 -12 -11  126.31    6.04
  -9 -12 -11  123.22    5.75
   9  12 -11  132.14    6.81
  -9 -12 -10  284.07    9.31
  -9 -12 -10  290.70    9.23
   9  12 -10  288.02   10.34
  -9 -12  -9  260.86    8.91
  -9 -12  -9  263.32    8.94
   9  12  -9  271.12   10.06
  -9 -12  -8   95.60    5.30
  -9 -12  -8   89.27    5.20
   9  12  -8   90.18    5.72
  -9 -12  -7  121.80    6.02
  -9 -12  -7  127.61    6.30
   9  12  -7  139.74    7.08
  -9 -12  -6   63.97    4.37
  -9 -12  -6   70.78    4.79
   9  12  -6   65.10    4.84
  -9 -12  -5  178.05    7.20
  -9 -12  -5  194.43    8.02
   9  12  -5  176.76    7.97
  -9 -12  -4   80.97    4.81
  -9 -12  -4   96.89    5.66
   9  12  -4   81.87    5.40
  -9 -12  -3   81.22    5.22
   9  12  -3   79.14    5.24
   9  12  -2    7.84    2.03
   9  12  -1   17.76    2.64
  -9 -12   0    2.27    1.55
   9  12   0    1.46    1.32
  -9 -12   1   13.98    2.53
   9  12   1   13.98    2.38
  -9 -12   2    3.38    1.81
   9  12   2    5.99    1.70
  -9 -12   3   87.95    5.41
   9  12   3   80.62    4.90
  -9 -12   4   90.27    5.50
  -9 -12   5  189.37    7.86
  -9 -12   6   73.65    4.86
  -9 -12   7  113.77    5.90
  -9 -12   8   98.78    5.40
  -9 -12   9  245.11    8.46
  -9 -12  10  307.10    9.37
  -9 -12  11  107.78    5.26
   9  13 -13   87.52    5.12
  -9 -13 -12   51.70    3.72
   9  13 -12   57.46    4.29
  -9 -13 -11   41.94    3.42
   9  13 -11   47.41    3.98
  -9 -13 -10   14.95    2.27
  -9 -13 -10   13.16    2.14
   9  13 -10   13.10    2.32
  -9 -13  -9   10.06    1.96
  -9 -13  -9   11.10    2.02
   9  13  -9   10.33    2.15
  -9 -13  -8   42.40    3.53
  -9 -13  -8   46.07    3.77
   9  13  -8   43.42    3.94
  -9 -13  -7   44.16    3.60
  -9 -13  -7   54.79    4.05
   9  13  -7   46.68    4.06
  -9 -13  -6   80.64    4.73
  -9 -13  -6   90.20    5.21
   9  13  -6   91.29    5.57
  -9 -13  -5  298.75    9.24
  -9 -13  -5  318.73   10.10
   9  13  -5  310.87   10.44
  -9 -13  -4  258.45    9.14
   9  13  -4  246.76    9.23
  -9 -13  -3  195.59    7.88
   9  13  -3  179.32    7.73
   9  13  -2   51.09    4.13
   9  13  -1   38.52    3.65
  -9 -13   0   19.97    2.70
   9  13   0   17.76    2.54
  -9 -13   1   43.71    3.83
   9  13   1   37.58    3.50
  -9 -13   2   50.21    4.08
   9  13   2   50.58    3.95
  -9 -13   3  191.07    7.81
  -9 -13   4  242.51    8.78
  -9 -13   5  323.72   10.17
  -9 -13   6   94.67    5.25
  -9 -13   7   51.85    3.95
  -9 -13   8   41.91    3.53
  -9 -13   9    8.76    1.84
  -9 -13  10    8.53    1.75
   9  14  -9   16.87    2.45
  -9 -14  -8   24.27    2.70
   9  14  -8   34.22    3.34
  -9 -14  -7   37.94    3.27
   9  14  -7   39.06    3.59
  -9 -14  -6   39.71    3.42
   9  14  -6   36.74    3.49
  -9 -14  -5   68.01    4.40
   9  14  -5   66.40    4.54
  -9 -14  -4    6.36    1.74
   9  14  -4    5.97    1.75
  -9 -14  -3   57.84    4.19
   9  14  -3   56.97    4.21
   9  14  -2  163.71    7.00
   9  14  -1   39.28    3.52
  -9 -14   0   11.90    2.21
   9  14   0   12.96    2.13
  -9 -14   1   55.28    4.13
   9  14   1   43.53    3.61
  -9 -14   2  189.83    7.54
  -9 -14   3   53.93    4.04
  -9 -14   4    7.04    1.76
  -9 -14   5   69.37    4.44
  -9 -14   6   35.51    3.23
  -9 -14   7   31.59    3.03
  -9 -14   8   23.28    2.66
  -9 -15  -4   99.50    5.09
  -9 -15  -3  103.41    5.20
  -9 -15   0    3.16    1.50
  -9 -15   1   15.88    2.30
  -9 -15   2   11.44    2.02
  -9 -15   3   94.74    4.96
  10   0   0 2169.89   35.71
  10   0   0 2187.33   35.99
  10   0   1  536.97   14.36
  10   0  -1  533.20   14.47
  10   0  -1  530.21   14.51
  10   0   1  530.91   14.43
  10   0   2   16.38    2.59
  10   0  -2   18.35    2.69
  10   0   2   14.63    2.30
  10   0   3   61.10    4.57
  10   0   3   55.45    4.43
  10   0   4  345.17   11.18
  10   0   4  336.40   11.04
  10   0   5   58.21    4.46
  10   0   5   48.22    4.06
  10   0   6  230.62    9.04
  10   0   6  228.33    8.96
  10   0   7 1126.69   22.99
  10   0   7 1170.09   23.22
  10   0   8 1577.33   28.68
  10   0   8 1637.05   29.14
  10   0   9  414.09   12.53
 -10   0   9  429.80   12.86
  10   0   9  420.19   12.67
 -10   0  10  370.40   11.51
  10   0  10  360.10   11.73
  10   0  10  345.74   11.44
 -10   0 -11  248.50    9.20
 -10   0  11  232.24    8.63
  10   0  11  221.12    9.00
  10   0  11  222.54    8.99
 -10   0 -12  142.57    6.77
 -10   0  12  129.28    6.17
  10   0  12  125.50    6.72
  10   0  12  136.66    7.00
 -10   0 -13   99.60    5.51
 -10   0  13  101.19    5.30
  10   0  13   91.70    5.71
  10   0  13   93.24    5.80
  10   0  14    4.07    1.64
 -10   0 -14    3.76    2.15
  10   0  14    2.04    1.43
  10   0  15  217.15    8.94
  10   0  15  222.21    9.02
  10   0  16  478.64   13.64
  10   0  16  457.09   13.44
  10   0  17  360.77   11.64
  10   0  17  356.07   11.53
  10   0  18  231.10    9.03
  10   0  18  225.70    8.94
  10   0  19    5.14    1.81
  10   0  19    7.83    2.03
  10   0  20   71.22    4.80
  10   0  20   69.48    4.81
  10   0  21   13.17    2.28
  10   0  21   16.05    2.44
  10   0  22    4.15    1.61
  10   0  22    4.67    1.33
  10   0  23   58.20    4.05
  10   0  23   56.37    3.95
  10   0  24  352.71    9.95
  10  -1  23   30.29    3.01
  10  -1  22    2.85    1.51
  10  -1  21    4.08    1.58
  10  -1  20   13.21    2.41
  10  -1  19   20.06    2.90
  10  -1  18   83.48    5.46
  10  -1  17    9.91    2.25
  10  -1  16  152.02    7.49
  10  -1  15  141.96    7.25
 -10  -1 -14   40.11    3.55
  10  -1  14   39.13    3.82
  10  -1  13   16.36    2.72
 -10   1  13   15.73    2.40
 -10  -1 -13   12.92    2.52
 -10   1  12   23.44    2.96
 -10  -1 -12   20.76    3.08
  10  -1  12   20.45    2.97
 -10  -1 -11   75.89    5.18
  10  -1  11   65.48    4.93
 -10  -1 -10  172.95    7.72
  10  -1  10  160.18    7.64
  10  -1   9  234.90    9.31
 -10  -1  -9  264.20    9.57
  10  -1   8  123.09    6.60
 -10  -1  -8  131.56    7.03
  10  -1   7   16.17    2.70
 -10  -1  -7   32.74    4.55
  10  -1   6   28.99    3.29
 -10  -1  -6   55.37    5.25
  10  -1   5   57.94    4.62
  10  -1   4   62.02    4.68
  10  -1   3  453.66   13.14
  10  -1   2  137.47    6.92
  10   1  -2  139.87    6.84
  10  -1   1   73.93    5.10
  10   1  -1   76.52    5.09
  10   1  -1   72.55    5.05
  10  -1   0    2.56    1.41
  10   1   0    4.86    1.63
  10   1   0    1.36    1.20
  10   1   1   77.84    5.06
  10  -1  -1   85.04    5.56
  10   1   1   76.99    5.13
  10   1   2  147.77    6.96
  10  -1  -2  152.69    7.37
  10   1   2  146.91    7.14
  10   1   3  429.88   12.50
  10   1   3  458.61   12.94
  10   1   4   56.52    4.34
  10   1   4   58.21    4.42
  10   1   5   55.60    4.35
  10   1   5   57.66    4.52
  10   1   6   38.73    3.65
 -10  -1   6   38.71    4.16
  10   1   6   28.47    3.30
  10   1   7   18.35    2.71
 -10  -1   7   23.93    3.57
  10   1   7   18.23    2.69
  10   1   8  101.03    5.88
 -10  -1   8  119.30    6.51
  10   1   8  106.76    6.07
 -10  -1   9  269.22    9.47
  10   1   9  252.66    9.55
 -10  -1  10  157.70    7.00
  10   1  10  151.49    7.34
  10   1  10  155.86    7.35
 -10  -1  11   73.47    4.69
  10   1  11   78.44    5.25
  10   1  11   70.46    4.95
 -10  -1  12   25.47    2.93
  10   1  12   20.92    2.90
  10   1  12   20.20    2.98
 -10   1 -13   27.54    3.65
 -10  -1  13   17.00    2.38
  10   1  13   19.50    2.83
  10   1  13   19.24    2.82
 -10   1 -14   47.56    4.05
  10   1  14   40.89    3.87
  10   1  14   47.55    4.18
  10   1  15  165.27    7.65
  10   1  15  154.85    7.52
  10   1  16  152.68    7.37
  10   1  16  144.84    7.16
  10   1  17   12.43    2.39
  10   1  17   12.73    2.34
  10   1  18   83.78    5.38
  10   1  18   87.65    5.44
  10   1  19   15.58    2.51
  10   1  19   17.88    2.63
  10   1  20   12.69    2.31
  10   1  20   10.83    2.18
  10   1  21    5.63    1.72
  10   1  21    4.91    1.74
  10   1  22    2.73    1.36
  10   1  22    3.81    1.34
  10   1  23   27.63    2.84
  10   1  23   27.82    2.81
  10  -2  23   18.76    2.50
  10  -2  23   17.84    2.39
  10  -2  22   21.15    2.68
  10  -2  22   16.34    2.42
  10  -2  21   30.45    3.15
  10  -2  21   26.54    3.08
  10  -2  20   67.58    4.62
  10  -2  20   65.70    4.66
  10  -2  19   20.08    2.72
  10  -2  19   20.64    2.91
  10  -2  18  141.80    6.95
  10  -2  18  132.38    6.85
  10  -2  17  540.64   14.53
  10  -2  17  555.19   14.91
  10  -2  16  482.09   13.95
  10  -2  16  483.34   13.74
  10  -2  15  257.20    9.88
  10  -2  15  259.23    9.80
 -10  -2 -14  277.37    8.79
  10  -2  14  305.11   10.81
  10  -2  14  301.03   10.50
 -10   2  13  163.58    7.14
 -10  -2 -13  151.87    6.71
  10  -2  13  168.43    7.80
  10  -2  13  158.44    7.72
 -10  -2 -12   72.49    4.82
  10  -2  12   71.38    5.14
  10  -2  12   75.14    5.22
 -10  -2 -11   28.01    3.56
  10  -2  11   25.76    3.14
  10  -2  11   28.10    3.39
 -10  -2 -10  143.90    6.97
  10  -2  10  145.47    7.30
  10  -2  10  155.22    7.37
  10  -2   9  425.72   12.99
 -10  -2  -9  439.10   12.43
  10  -2   9  423.56   12.68
  10  -2   8  586.33   15.57
 -10  -2  -8  602.25   15.02
  10  -2   8  568.27   14.94
  10   2  -8  562.50   13.88
  10  -2   7  370.01   11.86
 -10  -2  -7  393.85   11.94
  10   2  -7  369.34   10.56
  10  -2   7  361.58   11.53
  10  -2   6  138.27    7.09
 -10  -2  -6  154.83    7.57
  10   2  -6  138.83    6.04
  10  -2   6  148.22    7.10
  10  -2   5   42.45    4.06
  10  -2   5   47.05    4.06
  10  -2   4   49.51    4.32
 -10  -2  -4   56.88    4.96
  10  -2   3  148.87    7.37
  10  -2   3  146.90    7.04
  10  -2   2  299.22   10.55
  10  -2   2  302.68   10.45
  10  -2   1  861.66   19.38
  10   2  -1  834.04   18.51
  10   2  -1  849.06   19.04
  10  -2   1  839.16   18.94
  10  -2   0 2078.99   35.21
  10   2   0 2039.28   33.89
 -10  -2   0 2116.93   35.05
  10  -2   0 2127.90   34.96
  10   2   0 2135.81   35.05
  10   2   1  865.65   18.92
  10  -2  -1  933.49   20.49
 -10  -2   1  934.04   20.15
  10   2   1  892.67   19.59
  10  -2  -1  917.02   20.00
  10   2   2  259.75    9.28
  10  -2  -2  246.65    9.64
 -10  -2   2  263.34   10.04
  10   2   2  271.69    9.69
  10   2   3  146.63    6.85
 -10  -2   3  156.47    7.70
  10   2   3  149.34    7.17
  10   2   4   49.51    4.02
 -10  -2   4   53.20    4.78
  10   2   4   49.32    4.07
  10   2   5   48.39    3.97
 -10  -2   5   51.01    4.57
  10   2   5   47.25    4.04
  10   2   6  148.26    6.92
 -10  -2   6  148.13    7.17
  10   2   6  146.86    7.05
  10   2   7  348.21   11.02
 -10  -2   7  364.00   11.32
  10   2   7  352.16   11.32
  10   2   8  596.09   15.12
 -10  -2   8  619.85   15.09
  10   2   8  595.90   15.33
  10   2   9  417.48   12.36
 -10  -2   9  436.07   12.18
  10   2   9  429.49   12.75
  10   2  10  139.91    6.87
 -10  -2  10  159.51    6.99
  10   2  10  141.54    7.04
 -10  -2  11   21.61    2.88
  10   2  11   23.21    2.97
  10   2  11   21.60    2.83
 -10  -2  12   72.78    4.61
  10   2  12   80.50    5.29
  10   2  12   81.34    5.24
 -10  -2  13  163.29    6.67
  10   2  13  158.37    7.44
  10   2  13  154.18    7.43
 -10   2 -14  312.02    9.56
  10   2  14  287.09   10.38
  10   2  14  280.24   10.01
  10   2  15  252.45    9.59
  10   2  15  255.23    9.47
  10   2  16  469.85   13.27
  10   2  16  492.35   13.78
  10   2  17  545.61   14.37
  10   2  17  562.23   14.84
  10   2  18  131.85    6.58
  10   2  18  130.49    6.67
  10   2  19   20.97    2.79
  10   2  19   22.79    2.87
  10   2  20   65.90    4.51
  10   2  20   67.29    4.64
  10   2  21   21.28    2.64
  10   2  21   21.25    2.65
  10   2  22   11.10    1.99
  10   2  22    9.85    2.02
  10   2  23   15.01    2.28
  10   2  23   16.16    2.21
  10  -3  23   21.87    2.53
  10  -3  22   48.94    3.70
  10  -3  21   93.33    5.16
  10  -3  20    1.28    1.26
  10  -3  20    0.17    1.23
  10  -3  19    7.44    2.06
  10  -3  19    9.35    2.02
  10  -3  18   90.29    5.66
  10  -3  18   93.57    5.57
  10  -3  17    0.61    1.44
  10  -3  17    1.72    1.42
  10  -3  16   29.86    3.48
  10  -3  16   26.78    3.10
  10  -3  15   77.81    5.17
  10  -3  15   85.56    5.63
 -10  -3 -14   53.43    3.82
  10  -3  14   61.25    4.60
  10  -3  14   60.03    4.82
  10  -3  13   53.23    4.49
  10  -3  13   48.81    4.15
 -10  -3 -12   19.23    2.59
  10  -3  12   18.53    2.76
  10  -3  12   19.72    2.91
  10   3 -12   20.34    2.80
 -10  -3 -11   65.06    4.75
  10  -3  11   66.94    5.01
  10  -3  11   73.11    5.03
  10   3 -11   61.32    4.57
  10  -3  10  136.14    7.11
 -10  -3 -10  124.24    6.50
  10  -3  10  131.45    6.76
  10   3 -10  132.85    6.62
  10  -3   9   48.38    4.31
 -10  -3  -9   49.57    4.45
  10  -3   9   53.77    4.28
  10   3  -9   55.50    4.19
  10  -3   8  159.58    7.58
 -10  -3  -8  151.69    7.30
  10   3  -8  140.95    6.57
  10  -3   8  166.38    7.49
  10  -3   7  101.45    6.07
 -10  -3  -7  103.24    6.07
  10   3  -7   93.48    5.20
  10  -3   7  108.97    6.03
  10  -3   6   25.27    3.15
 -10  -3  -6   29.57    3.84
  10   3  -6   28.41    2.83
  10  -3   6   31.40    3.33
  10  -3   5   33.58    3.56
 -10  -3  -5   38.62    4.14
  10   3  -5   33.98    3.03
  10  -3   5   36.68    3.54
  10  -3   4   23.90    3.21
 -10  -3  -4   29.69    3.97
  10  -3   4   29.81    3.19
  10  -3   3  504.84   14.20
  10  -3   3  539.05   14.22
  10  -3   2  421.48   12.97
  10  -3   2  457.58   12.85
  10  -3   1   64.06    4.83
  10   3  -1   63.50    4.46
 -10  -3  -1   72.02    5.33
  10  -3   1   60.87    4.55
  10  -3   0   67.15    5.02
  10   3   0   66.30    4.55
 -10  -3   0   86.74    5.65
  10  -3   0   80.53    5.23
  10   3   0   80.96    5.21
  10   3   1   65.41    4.47
  10  -3  -1   62.05    4.82
 -10  -3   1   68.34    5.18
  10   3   1   58.94    4.50
  10  -3  -1   74.98    4.96
  10   3   2  432.32   12.12
  10  -3  -2  420.56   12.99
 -10  -3   2  435.48   12.65
  10   3   2  433.07   12.62
  10   3   3  478.76   12.91
 -10  -3   3  498.41   13.66
  10   3   3  502.86   13.58
  10   3   4   25.21    2.92
 -10  -3   4   32.62    3.69
  10   3   4   30.26    3.23
  10   3   5   37.05    3.42
 -10  -3   5   43.78    4.26
  10   3   5   35.02    3.47
  10   3   6   34.90    3.46
 -10  -3   6   35.25    3.89
  10   3   6   32.19    3.39
  10   3   7  112.15    5.96
 -10  -3   7  119.19    6.32
  10   3   7  118.35    6.29
  10   3   8  144.73    6.80
 -10  -3   8  165.93    7.31
  10   3   8  158.16    7.33
  10   3   9   57.33    4.29
 -10  -3   9   57.26    4.39
  10   3   9   49.68    4.16
  10   3  10  120.51    6.21
 -10  -3  10  126.21    6.23
  10   3  10  117.54    6.34
  10   3  11   54.95    4.24
 -10  -3  11   57.51    4.23
  10   3  11   65.93    4.82
 -10  -3  12   19.86    2.56
  10   3  12   19.68    2.74
  10   3  12   19.05    2.71
 -10  -3  13   34.07    3.12
  10   3  13   34.00    3.40
  10   3  13   41.27    3.88
  10   3  14   69.26    4.94
  10   3  14   65.76    4.65
  10   3  15   81.40    5.18
  10   3  15   87.00    5.49
  10   3  16   31.31    3.38
  10   3  16   33.07    3.38
  10   3  17    0.71    1.14
  10   3  17    2.86    1.48
  10   3  18  102.00    5.82
  10   3  18   88.96    5.26
  10   3  19    8.85    1.91
  10   3  19    8.48    2.06
  10   3  20    0.96    1.21
  10   3  20    1.04    1.29
  10   3  21   91.54    5.16
  10   3  21   98.54    5.11
  10   3  22   45.67    3.46
  10   3  22   42.28    3.49
  10   3  23   30.06    2.90
  10  -4  22   28.84    2.98
  10  -4  22   32.66    3.00
  10  -4  21    7.22    1.80
  10  -4  21    6.60    1.68
  10  -4  20   97.53    5.34
  10  -4  19  182.88    7.49
  10  -4  18  120.96    6.18
  10  -4  17  149.56    6.97
  10  -4  16  229.64    8.82
  10  -4  15  343.55   11.03
 -10  -4 -14  217.58    7.61
  10  -4  14  214.68    8.60
  10   4 -14  214.27    8.93
 -10  -4 -13  263.59    8.73
  10  -4  13  272.86    9.75
  10   4 -13  258.10    9.83
 -10  -4 -12   58.75    4.24
  10  -4  12   69.54    4.82
  10   4 -12   61.65    4.67
 -10  -4 -11  233.35    8.48
  10  -4  11  225.82    8.82
  10   4 -11  218.17    8.84
 -10  -4 -10  528.81   13.57
  10   4 -10  498.64   13.85
  10  -4  10  515.87   13.96
 -10  -4  -9  733.27   16.81
  10   4  -9  708.55   16.81
  10  -4   9  742.18   17.25
 -10  -4  -8  673.37   16.06
  10   4  -8  655.89   15.74
  10  -4   8  669.06   16.18
 -10  -4  -7  359.08   11.34
  10   4  -7  340.33   10.56
  10  -4   7  361.40   11.25
 -10  -4  -6  305.24   10.48
  10   4  -6  307.93    9.71
  10  -4   6  316.09   10.45
 -10  -4  -5  130.00    6.78
  10   4  -5  130.99    6.04
  10  -4   5  141.79    6.82
 -10  -4  -4  135.64    6.92
  10   4  -4  119.32    5.60
  10  -4   4  120.53    6.29
  10  -4   3  161.17    7.30
  10  -4   2  172.13    7.56
 -10  -4  -1  403.70   12.20
  10  -4   1  434.64   12.46
 -10  -4   0  700.94   16.58
  10  -4   0  702.59   16.63
  10   4   0  687.50   16.61
  10   4   1  396.97   11.40
 -10  -4   1  415.21   12.27
  10   4   1  408.99   12.18
  10   4   2  167.17    7.09
 -10  -4   2  169.71    7.75
  10   4   2  172.71    7.56
  10   4   3  174.54    7.27
 -10  -4   3  185.21    8.08
  10   4   3  179.89    7.78
  10   4   4  134.76    6.31
 -10  -4   4  125.90    6.67
  10   4   4  132.40    6.59
  10   4   5  120.65    5.98
 -10  -4   5  137.16    6.85
  10   4   5  124.01    6.37
  10   4   6  303.21    9.88
 -10  -4   6  318.84   10.50
  10   4   6  323.07   10.58
  10   4   7  366.23   10.96
 -10  -4   7  355.41   11.16
  10   4   7  373.37   11.53
  10   4   8  654.35   15.46
 -10  -4   8  690.51   16.07
  10   4   8  666.73   16.20
  10   4   9  686.25   16.08
  10   4   9  713.65   16.92
  10   4  10  505.72   13.35
 -10  -4  10  531.05   13.43
  10   4  10  526.31   14.16
  10   4  11  234.25    8.64
 -10  -4  11  221.62    8.15
  10   4  11  251.45    9.30
  10   4  12   62.36    4.45
 -10  -4  12   66.54    4.36
  10   4  12   60.92    4.60
  10   4  13  248.01    8.93
  10   4  13  250.41    9.39
  10   4  14  226.61    8.49
  10   4  14  226.13    8.90
  10   4  15  332.78   10.45
  10   4  15  346.40   11.07
  10   4  16  191.26    7.69
  10   4  16  218.23    8.54
  10   4  17  138.86    6.42
  10   4  17  160.72    7.23
  10   4  18  126.90    6.32
  10   4  18  114.50    5.71
  10   4  19  169.11    7.21
  10   4  19  163.16    6.72
  10   4  20   94.13    4.97
  10   4  20   96.86    5.31
  10   4  21   10.45    1.81
  10   4  21   11.96    2.07
  10   4  22   19.92    2.44
  10  -5  22    8.54    1.82
  10  -5  21   -0.16    1.25
  10  -5  21    0.28    1.09
  10  -5  20    4.58    1.56
  10  -5  20    7.37    1.52
  10  -5  19   26.89    2.81
  10  -5  19   23.24    2.90
  10  -5  18   28.27    3.00
  10  -5  18   24.39    3.04
  10  -5  17   38.72    3.48
  10  -5  17   40.65    3.81
  10  -5  16  116.31    6.04
  10   5 -16  113.07    6.43
  10  -5  16  120.02    6.44
  10  -5  15   29.32    3.41
  10  -5  15   30.59    3.18
  10   5 -15   26.22    3.20
 -10  -5 -14  103.82    5.21
  10  -5  14  110.06    6.25
  10  -5  14  118.82    6.13
  10   5 -14  111.51    6.42
  10  -5  13    3.89    1.77
 -10  -5 -13    2.77    1.49
  10  -5  13    4.59    1.55
  10   5 -13    4.62    1.52
  10  -5  12   23.09    3.06
 -10  -5 -12   20.92    2.68
  10   5 -12   23.03    3.03
  10  -5  12   20.62    2.66
  10  -5  11  134.47    7.04
 -10  -5 -11  143.39    6.61
  10   5 -11  145.83    7.21
  10  -5  11  145.38    6.91
  10  -5  10  123.31    6.76
 -10  -5 -10  128.12    6.33
  10   5 -10  139.24    6.95
  10  -5  10  126.27    6.37
  10  -5   9   61.10    4.72
 -10  -5  -9   59.27    4.44
  10   5  -9   56.23    4.38
  10  -5   9   58.96    4.36
  10  -5   8  130.44    6.81
 -10  -5  -8  111.16    6.04
  10   5  -8  115.83    6.12
  10  -5   8  117.93    6.18
  10  -5   7   38.28    3.87
 -10  -5  -7   36.39    3.57
  10   5  -7   29.11    3.17
  10  -5   7   34.48    3.39
  10  -5   6   41.60    3.99
 -10  -5  -6   41.69    3.77
  10   5  -6   45.13    3.74
  10  -5   6   34.73    3.40
  10  -5   5    6.91    1.95
 -10  -5  -5    3.75    2.21
  10  -5   5    6.51    1.81
  10   5  -5    6.24    1.67
  10  -5   4  102.75    6.05
 -10  -5  -4   93.28    5.79
  10   5  -4   94.14    5.11
  10  -5   4  100.89    5.66
  10  -5   3   32.20    3.45
  10  -5   3   31.70    3.23
  10   5  -3   31.48    2.94
  10  -5   2  334.66   11.28
  10  -5   2  323.56   10.53
  10  -5   1  118.87    6.53
  10  -5   1  110.61    5.97
  10  -5   0    5.76    1.78
 -10  -5   0   -1.32    2.73
  10  -5  -1  115.86    6.53
 -10  -5   1  115.31    6.50
  10   5   1  107.25    5.98
  10   5   2  335.07   10.08
 -10  -5   2  331.65   11.02
  10   5   2  334.08   10.81
  10   5   3   26.98    2.81
 -10  -5   3   28.39    3.48
  10   5   3   31.41    3.29
  10   5   4   87.11    4.98
 -10  -5   4   94.50    5.83
  10   5   5    9.57    1.84
 -10  -5   5    5.75    2.00
  10   5   5    8.03    2.01
  10   5   6   30.73    3.05
 -10  -5   6   32.96    3.49
  10   5   6   36.84    3.55
  10   5   7   36.72    3.28
 -10  -5   7   41.57    3.80
  10   5   7   38.87    3.67
  10   5   8  103.73    5.46
 -10  -5   8  115.92    6.05
  10   5   8  111.87    6.08
  10   5   9   55.58    4.03
 -10  -5   9   57.38    4.27
  10   5   9   54.31    4.25
  10   5  10  120.00    5.86
 -10  -5  10  116.74    5.94
  10   5  10  115.96    6.19
  10   5  11  137.75    6.32
 -10  -5  11  140.23    6.37
  10   5  11  146.35    6.96
  10   5  12   20.48    2.61
 -10  -5  12   21.50    2.66
  10   5  12   23.60    2.93
  10   5  13    0.80    1.14
  10   5  13    3.15    1.40
  10   5  14  115.93    5.74
  10   5  14  111.01    6.00
  10   5  15   30.59    3.03
  10   5  15   31.90    3.25
  10   5  16  122.34    6.22
  10   5  17   43.76    3.72
  10   5  18   31.54    3.16
  10   5  19   32.66    3.07
  10   5  20    7.60    1.60
  10   5  21    0.14    1.05
  10  -6  21  120.49    5.66
  10  -6  20   39.13    3.40
  10  -6  20   35.79    3.09
  10  -6  19  300.68    9.67
  10  -6  19  279.23    8.76
  10  -6  18  147.12    6.80
  10  -6  18  148.32    6.37
  10  -6  17  179.44    7.65
  10  -6  17  181.23    7.18
  10   6 -17  178.75    8.04
  10  -6  16   95.75    5.62
  10  -6  16   91.65    5.13
  10   6 -16   92.21    5.81
  10  -6  15  145.11    7.02
  10   6 -15  145.19    7.33
  10  -6  15  135.85    6.40
  10  -6  14  198.42    8.37
  10   6 -14  186.08    8.39
  10  -6  14  192.52    7.69
  10  -6  13  135.43    6.86
 -10  -6 -13  138.54    6.16
  10   6 -13  130.88    6.97
  10  -6  13  140.78    6.55
  10  -6  12   18.54    2.82
 -10  -6 -12   20.41    2.70
  10   6 -12   22.88    3.10
  10  -6  12   20.19    2.70
  10  -6  11  275.41   10.10
 -10  -6 -11  275.38    9.30
  10   6 -11  259.91    9.88
  10  -6  11  264.05    9.23
  10  -6  10  513.69   14.25
 -10  -6 -10  508.99   13.40
  10   6 -10  506.57   14.14
  10  -6  10  506.43   13.39
  10  -6   9  657.66   16.55
 -10  -6  -9  660.18   15.73
  10   6  -9  637.16   16.09
  10  -6   9  646.03   15.48
  10  -6   8  342.26   11.40
 -10  -6  -8  350.86   10.98
  10   6  -8  323.74   10.82
  10  -6   8  329.61   10.47
  10  -6   7  208.41    8.68
 -10  -6  -7  207.24    8.30
  10   6  -7  193.22    8.08
  10  -6   7  193.98    7.85
  10  -6   6  185.97    8.19
 -10  -6  -6  207.60    8.43
  10   6  -6  201.14    8.07
  10  -6   6  198.16    7.96
  10  -6   5  242.25    9.38
 -10  -6  -5  226.81    8.87
  10   6  -5  240.04    8.72
  10  -6   5  233.49    8.70
  10  -6   4  182.79    8.11
 -10  -6  -4  184.87    7.98
  10  -6   4  189.67    7.75
  10   6  -4  184.18    7.43
  10  -6   3  138.99    7.05
  10  -6   3  136.49    6.50
  10   6  -3  127.22    6.01
  10  -6   2  218.14    8.98
  10  -6   2  223.35    8.47
  10   6  -2  211.19    7.65
  10  -6   1  378.88   11.98
 -10  -6  -1  340.14   11.20
  10  -6   0  276.74   10.24
 -10  -6   0  276.49    9.84
  10  -6  -1  370.65   11.93
 -10  -6   1  345.46   11.22
 -10  -6   2  219.29    8.75
  10   6   2  229.57    8.70
 -10  -6   3  143.01    6.89
  10   6   3  142.72    6.76
 -10  -6   4  187.97    7.97
  10   6   4  189.32    7.81
 -10  -6   5  243.22    9.07
  10   6   5  225.50    8.62
 -10  -6   6  210.35    8.33
  10   6   6  190.99    7.91
 -10  -6   7  186.51    7.81
  10   6   7  193.77    7.88
 -10  -6   8  357.15   10.93
  10   6   8  341.41   10.77
 -10  -6   9  641.77   15.26
  10   6   9  629.70   15.38
 -10  -6  10  513.35   13.17
  10   6  10  495.44   13.34
 -10  -6  11  266.56    8.89
  10   6  11  237.17    8.85
 -10  -6  12   23.34    2.74
  10   6  12   23.19    2.85
  10   6  13  137.38    6.51
  10   6  14  199.83    7.86
  10   6  15  134.52    6.37
  10   6  16   85.95    5.03
  10   6  17  176.31    7.08
  10   6  18  150.90    6.39
  10   6  19  252.49    8.22
  10   6  20   38.72    3.16
  10  -7  20   11.59    1.92
  10  -7  19   42.56    3.50
  10  -7  18  122.11    5.96
  10  -7  17   51.70    4.02
  10   7 -17   53.23    4.37
  10  -7  16  116.05    6.02
  10   7 -16  121.66    6.62
  10  -7  15   62.24    4.51
  10   7 -15   59.77    4.73
  10  -7  15   54.81    3.85
  10  -7  14    9.54    2.07
  10  -7  14   12.37    2.07
  10   7 -14   10.76    2.35
  10  -7  13   66.81    4.73
 -10  -7 -13   62.00    4.14
  10   7 -13   53.36    4.54
  10  -7  13   63.24    4.23
  10  -7  12  108.10    6.07
 -10  -7 -12  106.36    5.52
  10   7 -12  102.50    6.19
  10  -7  12  107.31    5.51
  10  -7  11  102.11    5.94
 -10  -7 -11  106.84    5.66
  10   7 -11   97.24    5.97
  10  -7  11   96.75    5.26
  10  -7  10   12.26    2.47
 -10  -7 -10   11.70    2.33
  10   7 -10    7.59    1.94
  10  -7  10   14.28    2.14
  10  -7   9  100.33    5.93
 -10  -7  -9   94.05    5.50
  10   7  -9   99.65    5.97
  10  -7   9   93.06    5.23
  10  -7   8  161.84    7.59
 -10  -7  -8  171.81    7.53
  10   7  -8  170.00    7.71
  10  -7   8  163.33    7.01
  10  -7   7  113.22    6.26
 -10  -7  -7   98.46    5.73
  10   7  -7  118.87    6.36
  10  -7   7  118.19    5.92
  10  -7   6   84.62    5.45
 -10  -7  -6   76.91    5.16
  10  -7   6   83.33    4.99
  10   7  -6   80.67    5.20
  10  -7   5    5.37    1.77
 -10  -7  -5    3.97    1.47
 -10  -7  -5    5.34    1.77
  10  -7   5    4.04    1.36
  10   7  -5    3.63    1.43
  10  -7   4   27.49    3.25
 -10  -7  -4   29.60    3.32
  10  -7   4   25.99    2.89
  10   7  -4   25.17    2.95
  10  -7   3   32.96    3.50
  10   7  -3   24.69    2.84
  10  -7   2  164.15    7.64
  10   7  -2  158.80    6.77
  10  -7   1  130.54    6.76
 -10  -7  -1  127.06    6.62
  10  -7   0   63.00    4.69
 -10  -7   0   59.23    4.60
 -10  -7   1  130.44    6.72
 -10  -7   2  161.69    7.52
 -10  -7   3   34.98    3.55
 -10  -7   4   27.07    3.16
  10   7   4   26.83    2.94
 -10  -7   5    6.39    1.91
  10   7   5    4.73    1.51
 -10  -7   6   88.30    5.38
  10   7   6   77.76    4.88
 -10  -7   7  116.35    6.11
  10   7   7  111.71    5.81
 -10  -7   8  162.75    7.20
  10   7   8  161.68    7.00
 -10  -7   9   98.10    5.50
  10   7   9  104.33    5.54
 -10  -7  10    9.03    1.99
  10   7  10   10.55    1.95
 -10  -7  11   95.76    5.25
  10   7  11   97.80    5.31
 -10  -7  12   94.83    5.11
  10   7  12   95.05    5.23
  10   7  13   54.56    3.94
  10   7  14   10.79    1.97
  10   7  15   61.61    4.04
  10   7  16  115.20    5.48
 -10  -8 -19  305.73    9.21
  10  -8  18   97.01    5.04
 -10  -8 -18   90.61    4.99
  10   8 -18  104.95    5.77
  10  -8  17   36.75    3.29
 -10  -8 -17   31.34    3.22
  10   8 -17   30.43    3.40
  10  -8  16  105.49    5.51
  10   8 -16  105.14    6.07
  10  -8  15  202.35    7.86
  10   8 -15  218.52    8.90
  10  -8  14  191.30    7.70
  10   8 -14  179.40    8.16
  10  -8  13  201.88    8.07
  10   8 -13  202.61    8.66
  10  -8  12  237.09    8.82
 -10  -8 -12  220.64    8.04
  10   8 -12  228.25    9.24
  10  -8  11  273.58    9.68
 -10  -8 -11  271.18    9.11
  10   8 -11  266.99   10.04
  10  -8  10  297.46   10.12
 -10  -8 -10  287.74    9.65
  10   8 -10  285.52   10.42
  10  -8   9  445.56   12.71
 -10  -8  -9  408.17   11.90
 -10  -8  -9  448.67   12.42
  10   8  -9  426.80   12.95
  10  -8   9  423.80   11.31
  10  -8   8   80.42    5.19
 -10  -8  -8   79.01    4.95
 -10  -8  -8   88.58    5.35
  10  -8   8   81.78    4.76
  10   8  -8   84.70    5.51
  10  -8   7  162.29    7.43
 -10  -8  -7  147.33    6.68
 -10  -8  -7  157.03    7.26
  10  -8   7  148.64    6.41
  10   8  -7  154.01    7.34
  10  -8   6  262.95    9.61
 -10  -8  -6  249.35    8.67
 -10  -8  -6  262.62    9.51
  10  -8   6  248.35    8.48
  10   8  -6  244.88    9.28
 -10  -8  -5  207.91    7.72
  10  -8   5  220.05    8.73
 -10  -8  -5  216.72    8.65
  10   8  -5  217.31    8.56
  10  -8   4  148.60    7.15
 -10  -8  -4  147.93    7.17
  10   8  -4  142.11    6.80
  10  -8   3  137.07    6.82
  10   8  -3  124.98    6.28
  10  -8   2  199.53    8.35
  10   8  -2  186.33    7.55
 -10  -8  -1  162.03    7.49
  10   8  -1  153.61    6.70
 -10  -8   0    3.13    1.56
 -10  -8   1  164.74    7.61
 -10  -8   2  209.83    8.59
 -10  -8   3  151.18    7.15
 -10  -8   4  136.34    6.78
 -10  -8   5  226.60    8.81
 -10  -8   6  266.67    9.53
 -10  -8   7  143.87    6.79
 -10  -8   8   93.14    5.40
 -10  -8   9  438.11   12.13
 -10  -8  10  299.22    9.63
 -10  -8  11  272.92    8.94
 -10  -8  12  226.77    7.89
 -10  -9 -18    5.14    1.57
  10   9 -18    5.04    1.60
 -10  -9 -17    0.73    1.18
  10   9 -17    1.07    1.23
 -10  -9 -16   41.15    3.51
  10   9 -16   44.30    3.93
 -10  -9 -15    6.63    1.81
  10  -9  15    4.39    1.45
  10   9 -15    6.38    1.90
  10  -9  14   52.72    3.88
 -10  -9 -14   57.87    4.19
  10   9 -14   54.35    4.44
 -10  -9 -13    6.61    1.81
  10  -9  13    4.60    1.50
  10   9 -13    5.22    1.79
  10  -9  12   25.84    2.90
 -10  -9 -12   24.29    2.93
 -10  -9 -12   23.61    2.80
  10   9 -12   24.78    3.14
  10  -9  11   31.23    3.24
 -10  -9 -11   27.98    3.12
 -10  -9 -11   32.43    3.23
  10   9 -11   35.65    3.72
  10  -9  10    6.19    1.72
 -10  -9 -10    4.05    1.70
 -10  -9 -10    4.85    1.75
  10   9 -10    6.96    2.02
  10  -9   9   11.05    2.13
 -10  -9  -9   12.07    2.21
 -10  -9  -9   12.71    2.32
  10   9  -9   15.08    2.62
 -10  -9  -8   17.53    2.52
  10  -9   8   21.89    2.77
 -10  -9  -8   20.80    2.86
  10   9  -8   19.59    2.86
 -10  -9  -7   48.29    3.81
  10  -9   7   43.88    3.81
 -10  -9  -7   47.79    4.05
  10   9  -7   46.11    4.10
 -10  -9  -6   18.12    2.42
  10  -9   6   16.68    2.56
 -10  -9  -6   17.24    2.73
  10   9  -6   18.33    2.74
  10  -9   5   27.03    3.12
 -10  -9  -5   23.35    3.07
  10   9  -5   26.65    3.15
  10  -9   4    7.94    1.98
 -10  -9  -4    9.03    2.25
  10   9  -4    7.96    1.93
  10   9  -3   12.37    2.18
  10   9  -2   22.49    2.80
 -10  -9  -1   42.50    3.96
  10   9  -1   43.86    3.67
 -10  -9   0  105.81    6.05
  10   9   0   95.07    5.21
 -10  -9   1   47.43    4.14
 -10  -9   2   23.99    3.11
 -10  -9   3   13.97    2.52
 -10  -9   4   12.32    2.46
 -10  -9   5   32.05    3.45
 -10  -9   6   17.93    2.78
 -10  -9   7   49.96    4.05
 -10  -9   8   17.82    2.65
 -10  -9   9   13.69    2.33
 -10  -9  10    3.68    1.56
 -10  -9  11   27.92    2.96
 -10 -10 -16   13.18    2.11
  10  10 -16   16.20    2.45
 -10 -10 -15   70.11    4.37
  10  10 -15   81.63    5.07
 -10 -10 -14  158.86    6.62
  10  10 -14  158.22    7.23
 -10 -10 -13  206.27    7.67
  10  10 -13  205.55    8.36
 -10 -10 -12  345.23   10.30
  10  10 -12  362.35   11.45
 -10 -10 -11  159.54    6.77
 -10 -10 -11  148.47    6.38
  10  10 -11  155.34    7.38
 -10 -10 -10   60.27    4.23
 -10 -10 -10   54.47    4.07
  10  10 -10   59.47    4.56
 -10 -10  -9   79.49    4.85
 -10 -10  -9   78.00    4.88
  10  10  -9   78.89    5.30
  10 -10   8    2.06    1.23
 -10 -10  -8    3.34    1.39
 -10 -10  -8    2.08    1.65
  10  10  -8    1.58    1.29
 -10 -10  -7   55.42    4.04
  10 -10   7   53.18    3.99
 -10 -10  -7   59.71    4.44
  10  10  -7   52.14    4.27
  10 -10   6  178.26    7.33
 -10 -10  -6  177.56    7.10
 -10 -10  -6  201.93    8.17
  10  10  -6  200.03    8.26
 -10 -10  -5  175.14    7.65
  10  10  -5  182.68    7.85
 -10 -10  -4  286.56    9.96
  10  10  -4  271.20    9.62
 -10 -10  -3  184.25    7.95
  10  10  -3  174.42    7.51
  10  10  -2  132.07    6.40
 -10 -10  -1  107.00    6.08
  10  10  -1   90.93    5.25
 -10 -10   0   24.35    3.16
 -10 -10   1  124.83    6.56
 -10 -10   2  143.80    6.95
 -10 -10   3  200.02    8.20
 -10 -10   4  301.13   10.19
 -10 -10   5  175.99    7.64
 -10 -10   6  187.11    7.75
 -10 -10   7   48.64    4.03
 -10 -10   8    1.67    1.35
 -10 -10   9   75.22    4.73
 -10 -10  10   52.08    3.88
 -10 -10  11  147.39    6.21
 -10 -11 -14  139.24    5.93
  10  11 -14  139.53    6.45
 -10 -11 -13   18.53    2.41
  10  11 -13   17.82    2.60
 -10 -11 -12   43.94    3.51
  10  11 -12   45.22    3.87
 -10 -11 -11   16.80    2.38
 -10 -11 -11   21.55    2.46
  10  11 -11   20.40    2.80
 -10 -11 -10   61.48    4.19
 -10 -11 -10   56.24    3.90
  10  11 -10   54.02    4.29
 -10 -11  -9   14.87    2.30
 -10 -11  -9   13.69    2.28
  10  11  -9   13.25    2.31
 -10 -11  -8   31.90    3.09
 -10 -11  -8   34.79    3.38
  10  11  -8   39.34    3.70
 -10 -11  -7   63.66    4.20
 -10 -11  -7   68.42    4.61
  10  11  -7   62.12    4.59
 -10 -11  -6   16.16    2.50
  10  11  -6   17.40    2.60
 -10 -11  -5    8.36    2.06
  10  11  -5    8.39    1.97
 -10 -11  -4   23.69    3.09
  10  11  -4   21.11    2.81
 -10 -11  -3  127.88    6.50
  10  11  -3  125.97    6.30
  10  11  -2   67.75    4.55
 -10 -11   0  234.71    8.98
 -10 -11   1   57.49    4.52
 -10 -11   2   70.64    4.89
 -10 -11   3  136.39    6.68
 -10 -11   4   17.63    2.68
 -10 -11   5    8.70    2.04
 -10 -11   6   17.90    2.53
 -10 -11   7   64.66    4.42
 -10 -11   8   38.80    3.49
 -10 -11   9   19.19    2.52
 -10 -11  10   53.58    3.76
  10  12 -11  130.27    6.16
 -10 -12 -10    9.14    1.79
 -10 -12 -10   10.07    1.84
  10  12 -10    9.37    2.00
 -10 -12  -9   52.51    3.67
 -10 -12  -9   57.60    3.94
  10  12  -9   55.67    4.15
 -10 -12  -8    8.06    1.85
  10  12  -8    6.36    1.74
 -10 -12  -7  108.26    5.58
  10  12  -7  104.05    5.69
 -10 -12  -6  269.03    9.01
  10  12  -6  254.77    9.02
 -10 -12  -5  464.68   12.38
  10  12  -5  449.34   12.39
 -10 -12  -4  724.82   16.22
  10  12  -4  687.65   15.85
 -10 -12  -3  226.54    8.41
  10  12  -3  212.15    8.05
 -10 -12   0  201.65    7.99
 -10 -12   1   50.62    4.06
 -10 -12   2   45.46    3.90
 -10 -12   3  233.06    8.54
 -10 -12   4  717.74   16.09
 -10 -12   5  453.69   12.15
 -10 -12   6  280.97    9.16
 -10 -12   7   98.63    5.18
 -10 -12   8    4.86    1.54
 -10 -12   9   49.40    3.63
 -10 -13  -7   36.05    3.20
 -10 -13  -6   59.86    4.06
  10  13  -6   56.85    4.02
 -10 -13  -5    0.15    1.25
  10  13  -5   -0.46    1.24
 -10 -13  -4   22.29    2.73
 -10 -13  -3   42.22    3.56
 -10 -13   0  350.43   10.40
 -10 -13   1   75.95    4.74
 -10 -13   2   38.86    3.44
 -10 -13   3   49.37    3.83
 -10 -13   4   21.44    2.70
 -10 -13   5    0.87    1.21
 -10 -13   6   56.22    3.89
 -10 -13   7   41.48    3.32
 -10 -14   0   16.10    2.34
 -10 -14   1   13.78    2.08
 -10 -14   2   75.58    4.40
  11   0   0    0.42    1.41
  11   0   0    1.72    1.49
  11   0   1    1.05    1.43
  11   0  -1    0.21    1.53
  11   0   1   -0.43    1.29
  11   0   2   17.36    2.85
  11   0   2   21.53    3.10
  11   0   3    3.33    1.72
  11   0   3    4.24    1.77
  11   0   4   48.02    4.29
  11   0   4   54.24    4.63
  11   0   5   24.27    3.16
  11   0   5   20.98    2.94
  11   0   6  124.73    6.74
 -11   0   6  135.26    7.68
  11   0   6  119.28    6.66
  11   0   7   14.77    2.71
  11   0   7   14.01    2.60
  11   0   8  175.57    8.16
 -11   0  -8  194.08    8.77
 -11   0   8  198.50    8.74
  11   0   8  173.84    8.09
  11   0   9   57.27    4.61
 -11   0  -9   65.23    5.32
 -11   0   9   57.48    4.68
  11   0   9   49.13    4.33
  11   0  10   25.65    3.24
 -11   0 -10   35.43    4.17
 -11   0  10   29.78    3.37
  11   0  11    2.67    1.62
 -11   0  11    4.84    1.95
  11   0  11    3.30    1.52
  11   0  12    3.67    1.69
 -11   0 -12    2.44    2.57
 -11   0  12    3.90    1.88
  11   0  12    2.66    1.61
  11   0  13   80.31    5.33
 -11   0 -13   74.09    4.84
  11   0  13   81.31    5.36
  11   0  14  103.06    6.08
  11   0  14  113.02    6.29
  11   0  15   25.22    3.11
  11   0  15   27.52    3.22
  11   0  16   32.99    3.43
  11   0  16   40.64    3.74
  11   0  17   80.36    5.13
  11   0  17   73.23    4.88
  11   0  18   49.68    4.01
  11   0  18   56.46    4.27
  11   0  19   19.41    2.56
  11   0  19   16.21    2.46
  11   0  20   42.61    3.54
  11   0  20   49.28    3.80
  11   0  21   57.42    3.93
  11   0  21   53.61    3.85
  11  -1  21    7.19    1.69
  11  -1  20   30.90    3.15
  11  -1  19   11.03    2.11
  11  -1  18  163.44    7.21
  11  -1  17  557.32   14.45
  11  -1  16  423.99   12.57
  11  -1  15  158.94    7.50
  11  -1  14  204.49    8.65
  11  -1  13   29.34    3.39
 -11  -1 -13   20.81    2.97
  11  -1  12    5.62    1.89
 -11   1  12    4.99    1.99
 -11  -1 -12    4.06    2.25
  11  -1  11   78.50    5.43
 -11   1  11   91.98    5.56
 -11  -1 -11   81.47    5.21
  11  -1  10  393.66   12.65
 -11   1  10  435.88   12.84
 -11  -1 -10  422.24   12.20
  11  -1   9  958.49   21.09
 -11   1   9  984.18   21.33
  11  -1   8  618.35   16.35
 -11  -1  -8  654.95   16.11
  11  -1   7  256.88   10.02
 -11  -1  -7  276.72   10.27
  11  -1   6  131.72    7.09
 -11  -1  -6  137.01    7.44
  11  -1   5  112.96    6.54
 -11  -1  -5  140.31    7.64
  11  -1   4  134.02    7.22
 -11  -1  -4  158.64    8.06
  11  -1   3  168.92    8.07
  11  -1   2   67.72    5.15
  11  -1   1  624.44   16.46
 -11  -1  -1  619.20   16.78
  11  -1   0 1123.05   24.04
  11   1   0 1151.03   23.59
  11   1   1  585.34   15.55
  11  -1  -1  607.57   16.23
 -11  -1   1  624.29   16.80
  11   1   1  589.60   16.04
  11   1   2   83.31    5.43
 -11  -1   2   86.72    6.43
  11   1   2   78.59    5.44
  11   1   3  183.04    8.10
 -11  -1   3  206.25    9.34
  11   1   3  179.51    8.26
  11   1   4  116.68    6.42
  11   1   4  128.28    6.94
  11   1   5  115.09    6.34
 -11  -1   5  129.56    7.20
  11   1   5  116.19    6.57
  11   1   6  133.63    6.95
 -11  -1   6  154.28    7.73
  11   1   6  148.90    7.40
  11   1   7  247.42    9.54
  11   1   7  242.96    9.61
  11   1   8  580.75   15.46
  11   1   8  609.90   16.04
  11   1   9  903.03   20.25
 -11   1  -9  981.83   21.21
 -11  -1   9  957.48   20.08
  11   1   9  948.48   20.77
 -11   1 -10  426.51   12.75
 -11  -1  10  423.61   12.07
  11   1  10  400.36   12.58
  11   1  11   75.19    5.18
 -11  -1  11   74.05    4.87
  11   1  11   78.46    5.33
  11   1  12    4.36    1.73
 -11  -1  12    2.25    1.61
  11   1  12    4.88    1.68
  11   1  13   39.61    3.81
 -11   1 -13   36.36    3.74
  11   1  13   38.38    3.84
  11   1  14  189.18    8.07
  11   1  14  191.96    8.25
  11   1  15  145.97    7.05
  11   1  15  154.98    7.30
  11   1  16  458.68   12.84
  11   1  16  462.98   13.10
  11   1  17  522.42   13.76
  11   1  17  539.25   14.06
  11   1  18  158.74    7.01
  11   1  18  173.12    7.39
  11   1  19   12.02    2.14
  11   1  19   13.93    2.26
  11   1  20   25.67    2.80
  11   1  20   28.74    2.99
  11   1  21    9.78    1.77
  11  -2  21    8.94    1.88
  11  -2  21   10.71    1.96
  11  -2  20   16.17    2.36
  11  -2  20   17.34    2.42
  11  -2  19   32.87    3.24
  11  -2  19   38.84    3.42
  11  -2  18  151.51    6.98
  11  -2  18  154.81    6.88
  11  -2  17   31.79    3.38
  11  -2  17   35.32    3.44
  11  -2  16   24.91    3.11
  11  -2  16   27.65    3.19
  11  -2  15  149.87    7.28
  11  -2  15  155.04    7.28
  11  -2  14   10.38    2.27
  11  -2  14   10.74    2.12
  11  -2  13   85.43    5.62
 -11  -2 -13   84.60    4.84
  11  -2  13   92.22    5.69
  11  -2  12   65.34    4.96
 -11   2  12   59.97    4.56
 -11  -2 -12   56.53    4.26
  11  -2  12   63.23    4.74
  11  -2  11   11.45    2.45
 -11   2  11   12.76    2.89
 -11  -2 -11    8.20    2.52
  11  -2  11   10.77    2.30
  11  -2  10  117.16    6.69
 -11  -2 -10  120.25    6.47
  11  -2  10  119.86    6.58
  11  -2   9   87.22    5.73
 -11  -2  -9   76.19    5.39
  11  -2   9   79.11    5.36
  11  -2   8  147.47    7.58
 -11  -2  -8  142.98    7.23
  11  -2   8  137.75    7.13
  11  -2   7   33.50    3.75
 -11  -2  -7   37.00    4.29
  11  -2   7   28.25    3.34
  11  -2   6  140.75    7.32
 -11  -2  -6  139.32    7.31
  11  -2   6  148.41    7.35
  11  -2   5  262.06   10.12
 -11  -2  -5  270.91   10.09
  11  -2   5  252.21    9.80
  11  -2   4   90.97    5.86
 -11  -2  -4  103.97    6.49
  11  -2   4   93.20    5.84
  11  -2   3   25.64    3.24
  11  -2   3   27.62    3.29
  11  -2   2   19.39    2.90
  11  -2   2   25.18    3.21
  11  -2   1   93.43    6.04
 -11  -2  -1  103.66    6.55
  11  -2   1   80.92    5.55
  11  -2   0   76.15    5.55
  11   2   0   73.44    5.10
 -11  -2   0   87.53    6.04
  11  -2  -1   97.31    6.18
 -11  -2   1  106.28    6.65
  11   2   1   95.99    5.94
  11   2   2   15.43    2.54
 -11  -2   2   24.59    3.95
  11   2   2   20.22    2.81
  11   2   3   25.61    3.06
  11   2   3   20.78    2.94
  11   2   4   83.21    5.40
 -11  -2   4  101.26    6.42
  11   2   4   98.10    6.02
  11   2   5  243.84    9.37
 -11  -2   5  267.25   10.10
  11   2   5  267.98    9.95
  11   2   6  134.63    6.77
 -11  -2   6  146.53    7.36
  11   2   6  137.00    7.07
  11   2   7   31.38    3.45
 -11  -2   7   32.54    3.90
  11   2   7   32.13    3.53
  11   2   8  139.07    6.95
 -11  -2   8  145.64    7.18
  11   2   8  129.55    6.87
  11   2   9   82.38    5.35
 -11  -2   9   83.22    5.34
  11   2   9   73.25    5.19
  11   2  10  105.91    6.09
 -11  -2  10  123.90    6.26
  11   2  10  112.80    6.40
  11   2  11   13.86    2.53
 -11  -2  11   12.10    2.42
  11   2  11   16.17    2.64
  11   2  12   62.04    4.63
 -11  -2  12   54.97    4.06
  11   2  12   65.54    4.82
  11   2  13   89.47    5.52
 -11   2 -13  108.80    5.80
  11   2  13   99.01    5.88
  11   2  14    7.60    1.92
  11   2  14   13.05    2.31
  11   2  15  146.23    6.89
  11   2  15  152.02    7.19
  11   2  16   31.48    3.26
  11   2  16   35.10    3.49
  11   2  17   32.93    3.26
  11   2  17   37.74    3.55
  11   2  18  146.04    6.52
  11   2  18  153.20    6.89
  11   2  19   40.77    3.45
  11   2  19   38.24    3.46
  11   2  20   14.11    2.10
  11   2  20   15.14    2.30
  11   2  21    8.78    1.78
  11  -3  21   31.45    2.97
  11  -3  20   12.72    2.16
  11  -3  20   13.92    2.21
  11  -3  19   81.14    4.93
  11  -3  19   81.95    4.79
  11  -3  18  216.73    8.35
  11  -3  18  217.23    8.09
  11  -3  17  514.52   13.79
  11  -3  17  504.19   13.23
  11  -3  16  425.99   12.49
  11  -3  16  418.28   12.07
  11  -3  15  258.85    9.67
  11  -3  15  233.38    8.89
  11  -3  14  155.77    7.52
  11  -3  14  151.41    7.17
  11  -3  13  222.83    9.11
 -11  -3 -13  206.90    7.58
  11  -3  13  229.19    8.92
  11  -3  12   44.05    4.12
 -11  -3 -12   49.43    3.83
  11  -3  12   53.57    4.28
  11  -3  11   83.46    5.61
 -11  -3 -11   80.51    4.93
  11  -3  11   82.08    5.38
  11  -3  10  354.12   11.83
 -11  -3 -10  338.95   10.80
  11  -3  10  339.29   11.27
  11  -3   9  624.20   16.42
 -11  -3  -9  606.49   15.22
  11  -3   9  607.63   15.76
 -11  -3  -8  661.48   16.16
  11  -3   8  684.15   16.74
  11  -3   7  526.50   14.90
 -11  -3  -7  509.81   14.12
  11  -3   7  525.13   14.46
  11  -3   6  188.19    8.52
 -11  -3  -6  185.52    8.28
  11  -3   6  189.12    8.28
  11  -3   5   59.83    4.91
 -11  -3  -5   60.64    5.01
  11  -3   5   56.64    4.49
  11  -3   4   13.71    2.50
 -11  -3  -4   13.04    3.07
  11  -3   4   15.50    2.48
  11  -3   3  152.45    7.72
  11  -3   3  168.88    7.84
  11  -3   2  321.85   11.40
  11  -3   2  327.25   11.25
  11  -3   1  697.51   17.73
 -11  -3  -1  669.35   16.77
  11  -3   1  694.04   17.14
  11  -3   0  986.73   22.17
 -11  -3   0 1003.73   21.37
  11   3   1  652.34   16.12
  11  -3  -1  705.26   17.82
 -11  -3   1  679.94   16.82
  11   3   1  702.30   17.29
  11   3   2  311.32   10.50
 -11  -3   2  347.46   11.51
  11   3   2  334.18   11.31
  11   3   3  144.18    6.95
 -11  -3   3  167.21    7.98
  11   3   3  152.77    7.41
  11   3   4   14.65    2.47
 -11  -3   4   15.50    3.20
  11   3   4   15.23    2.53
  11   3   5   50.71    4.16
 -11  -3   5   61.06    4.93
  11   3   5   59.29    4.65
  11   3   6  167.56    7.51
 -11  -3   6  193.25    8.36
  11   3   6  191.93    8.28
  11   3   7  481.17   13.35
 -11  -3   7  499.56   13.84
  11   3   7  495.61   14.08
  11   3   8  650.86   15.88
 -11  -3   8  681.16   16.25
  11   3   8  638.54   16.34
 -11  -3   9  618.34   15.10
  11   3   9  594.11   15.43
  11   3  10  348.93   11.04
 -11  -3  10  347.77   10.73
  11   3  10  334.48   11.26
  11   3  11   73.09    4.89
 -11  -3  11   64.83    4.41
  11   3  11   69.02    4.94
  11   3  12   49.44    4.04
 -11  -3  12   46.08    3.68
  11   3  12   54.84    4.36
  11   3  13  219.14    8.52
  11   3  13  219.06    8.79
  11   3  14  151.84    6.93
  11   3  14  164.32    7.43
  11   3  15  256.02    8.99
  11   3  15  255.52    9.35
  11   3  16  433.59   11.87
  11   3  16  422.79   12.21
  11   3  17  519.18   13.06
  11   3  17  521.43   13.52
  11   3  18  198.97    7.44
  11   3  18  209.14    7.98
  11   3  19   73.82    4.38
  11   3  19   82.40    4.82
  11   3  20   11.34    2.01
  11  -4  19   34.02    3.11
  11  -4  18  122.86    5.85
  11  -4  17   15.74    2.37
  11  -4  16   28.54    3.13
  11  -4  15  129.31    6.34
  11  -4  14   13.99    2.24
 -11  -4 -13   42.28    3.49
  11  -4  13   49.39    4.04
 -11  -4 -12   11.03    2.03
  11  -4  12    8.29    1.96
 -11  -4 -11   58.41    4.26
  11  -4  11   52.49    4.23
 -11  -4 -10  117.96    6.06
  11  -4  10  121.28    6.40
 -11  -4  -9    2.71    1.64
  11  -4   9    4.27    1.68
  11   4  -9    4.24    1.57
 -11  -4  -8   18.91    2.80
  11  -4   8   17.13    2.57
  11   4  -8   14.70    2.22
 -11  -4  -7   19.33    3.32
  11  -4   7   30.78    3.36
 -11  -4  -6    6.54    2.46
  11  -4   6   15.33    2.49
 -11  -4  -5   -0.58    2.85
  11  -4   5    6.32    1.99
 -11  -4  -4   11.52    2.80
  11  -4   4   15.67    2.54
  11  -4   3   17.90    2.67
  11  -4   2   20.40    2.82
 -11  -4  -1   14.25    3.05
 -11  -4   0    0.60    2.64
 -11  -4   1   15.12    3.12
 -11  -4   2   14.23    3.12
  11   4   2   18.88    2.79
  11   4   3   15.83    2.48
 -11  -4   3   15.56    3.12
  11   4   3   20.55    2.83
  11   4   4   19.01    2.63
 -11  -4   4   11.93    3.00
  11   4   4   17.70    2.78
  11   4   5    2.62    1.41
 -11  -4   5    0.20    2.36
  11   4   5    5.35    1.75
  11   4   6   10.66    2.14
 -11  -4   6    5.43    2.28
  11   4   6   11.88    2.30
  11   4   7   27.58    3.03
 -11  -4   7   25.43    3.29
  11   4   7   30.67    3.34
  11   4   8   17.87    2.55
 -11  -4   8   17.37    2.76
  11   4   8   17.44    2.63
  11   4   9    3.46    1.51
 -11  -4   9    3.57    1.66
  11   4   9    4.47    1.63
  11   4  10  118.11    6.05
 -11  -4  10  132.72    6.35
  11   4  10  121.72    6.47
  11   4  11   56.36    4.18
 -11  -4  11   54.30    4.06
  11   4  11   54.73    4.42
  11   4  12   10.95    2.12
 -11  -4  12    8.66    1.89
  11   4  12   11.00    2.22
  11   4  13   48.17    3.85
  11   4  13   49.90    4.07
  11   4  14   13.05    2.20
  11   4  14   13.29    2.27
  11   4  15  121.15    5.89
  11   4  15  135.92    6.55
  11   4  16   19.60    2.46
  11   4  16   18.29    2.65
  11   4  17   14.95    2.19
  11   4  17   11.97    2.14
  11   4  18  134.37    6.14
  11   4  19   26.63    2.79
  11  -5  19  116.42    5.63
  11  -5  18  129.95    6.14
  11  -5  18  124.16    5.69
  11  -5  17  304.82    9.89
  11  -5  17  302.57    9.40
  11  -5  16  404.59   11.82
  11  -5  16  387.02   11.00
  11  -5  15  244.69    9.15
  11  -5  15  246.69    8.67
  11  -5  14  124.93    6.53
  11  -5  14  128.76    6.24
  11  -5  13   42.51    3.94
  11  -5  13   40.97    3.58
  11  -5  12    5.65    1.91
 -11  -5 -12    8.39    1.81
  11  -5  12    7.85    1.84
  11  -5  11  128.48    6.85
 -11  -5 -11  122.28    5.99
  11   5 -11  122.15    6.28
  11  -5  11  126.17    6.37
  11  -5  10  332.79   11.33
 -11  -5 -10  312.59   10.06
  11   5 -10  308.28   10.17
  11  -5  10  332.71   10.66
  11  -5   9  464.24   13.66
 -11  -5  -9  463.11   12.70
  11   5  -9  429.99   12.22
  11  -5   9  457.70   12.82
  11  -5   8  448.37   13.40
 -11  -5  -8  464.11   12.86
  11   5  -8  417.50   11.82
  11  -5   8  437.36   12.65
  11  -5   7  374.63   12.17
 -11  -5  -7  385.02   11.70
  11   5  -7  364.42   10.72
  11  -5   7  371.97   11.56
  11  -5   6  397.68   12.63
 -11  -5  -6  394.62   11.96
  11  -5   6  407.34   12.10
  11  -5   5   48.74    4.35
 -11  -5  -5   49.28    4.19
  11  -5   5   38.45    3.72
  11  -5   4   35.03    3.69
 -11  -5  -4   28.48    3.32
  11  -5   4   25.79    3.05
  11  -5   3  148.13    7.46
  11  -5   3  152.95    7.23
  11  -5   2  278.00   10.49
  11  -5   1  349.68   11.87
 -11  -5  -1  359.87   11.57
  11  -5   0  327.55   11.48
 -11  -5   0  331.17   11.07
 -11  -5   1  378.89   11.92
 -11  -5   2  296.30   10.42
 -11  -5   3  127.82    6.73
  11   5   3  132.12    6.76
  11   5   4   24.85    2.82
  11   5   4   22.27    2.89
 -11  -5   5   53.78    4.32
  11   5   5   48.28    4.17
  11   5   6  380.98   10.94
  11   5   6  361.77   11.58
 -11  -5   7  388.83   11.69
  11   5   7  378.46   11.71
 -11  -5   8  422.55   12.14
  11   5   8  418.01   12.39
 -11  -5   9  462.96   12.65
  11   5   9  457.02   12.94
 -11  -5  10  324.84   10.12
  11   5  10  326.52   10.70
 -11  -5  11  114.20    5.68
  11   5  11  125.95    6.38
 -11  -5  12    7.30    1.83
  11   5  12    8.09    1.82
  11   5  13   37.47    3.44
  11   5  14  126.81    6.25
  11   5  15  256.10    8.91
  11   5  16  377.59   10.82
  11   5  17  272.82    8.84
  11   5  18  116.78    5.50
  11  -6  18  166.69    6.81
  11  -6  17   41.06    3.53
  11  -6  17   38.39    3.17
  11  -6  16   32.13    3.26
  11  -6  16   29.18    2.84
  11  -6  15   36.86    3.51
  11  -6  15   35.71    3.20
  11  -6  14   38.06    3.63
  11  -6  14   37.06    3.26
  11  -6  13    7.56    2.05
  11  -6  13    7.88    1.81
  11   6 -13    7.46    1.87
  11  -6  12   32.07    3.50
 -11  -6 -12   29.12    3.05
  11   6 -12   26.43    3.12
  11  -6  12   27.78    2.97
  11  -6  11   50.02    4.25
 -11  -6 -11   45.21    3.69
  11   6 -11   42.62    3.84
  11  -6  11   51.73    3.97
  11  -6  10   12.57    2.47
 -11  -6 -10   13.87    2.35
  11  -6  10   12.41    2.23
  11   6 -10   12.57    2.28
  11  -6   9   30.24    3.44
 -11  -6  -9   31.36    3.30
  11   6  -9   30.01    3.22
  11  -6   9   26.60    3.01
  11  -6   8   67.50    4.97
 -11  -6  -8   56.74    4.40
  11   6  -8   54.73    4.17
  11  -6   8   65.61    4.55
  11  -6   7   78.02    5.29
 -11  -6  -7   70.24    4.89
  11  -6   7   78.19    4.99
  11   6  -7   73.53    4.73
  11  -6   6    1.03    1.63
 -11  -6  -6    2.27    1.75
  11  -6   6    1.08    1.24
  11  -6   5    0.21    1.36
 -11  -6  -5   -1.15    1.33
  11  -6   5    0.73    1.19
  11  -6   4   73.70    5.21
 -11  -6  -4   71.58    4.97
  11  -6   3   47.39    4.23
  11  -6   2    6.12    1.90
  11  -6   1    0.21    1.41
 -11  -6  -1    0.98    1.59
 -11  -6   0   41.45    3.97
 -11  -6   1    1.77    1.69
 -11  -6   2    6.10    1.91
 -11  -6   3   37.01    3.73
 -11  -6   4   71.95    5.00
 -11  -6   5    0.19    1.47
  11   6   5    1.84    1.48
 -11  -6   6    2.63    1.62
  11   6   6    1.64    1.45
 -11  -6   7   81.27    5.17
  11   6   7   76.96    5.03
 -11  -6   8   61.52    4.48
  11   6   8   55.55    4.25
 -11  -6   9   32.27    3.34
  11   6   9   30.92    3.17
 -11  -6  10   15.22    2.40
  11   6  10   16.52    2.49
 -11  -6  11   41.96    3.56
  11   6  11   44.31    3.73
 -11  -6  12   26.52    2.80
  11   6  12   26.75    2.95
  11   6  13    8.54    1.85
  11   6  14   25.55    2.82
  11   6  15   30.84    2.94
  11   6  16   28.47    2.81
  11   6  17   36.40    3.10
  11  -7  17  221.24    7.78
  11  -7  16   92.34    5.10
  11  -7  15  175.33    7.18
  11  -7  14  169.04    7.17
  11   7 -14  150.28    6.86
  11  -7  13   31.66    3.26
  11   7 -13   22.58    2.85
  11  -7  12   92.94    5.45
 -11  -7 -12   93.05    5.00
  11   7 -12   93.74    5.48
  11  -7  11  252.43    9.18
 -11  -7 -11  247.27    8.45
  11   7 -11  228.47    8.69
  11  -7  11  232.84    8.13
  11  -7  10  290.19   10.03
 -11  -7 -10  292.02    9.49
  11  -7  10  280.76    9.10
  11   7 -10  271.92    9.56
  11  -7   9  161.19    7.43
 -11  -7  -9  160.55    6.83
 -11  -7  -9  162.32    7.07
  11  -7   9  165.21    6.88
  11   7  -9  163.08    7.19
  11  -7   8  101.69    5.93
 -11  -7  -8   90.03    5.07
 -11  -7  -8   86.18    5.25
  11  -7   8   94.62    5.26
  11   7  -8   88.00    5.25
  11  -7   7  204.85    8.52
 -11  -7  -7  204.50    8.20
  11  -7   7  191.09    7.60
  11  -7   6  411.87   12.53
 -11  -7  -6  414.31   12.19
  11  -7   5  308.96   10.68
 -11  -7  -5  294.82   10.19
  11  -7   4  131.99    6.83
 -11  -7  -4  133.50    6.74
  11  -7   3  256.83    9.75
  11  -7   2  232.61    9.25
 -11  -7  -1   93.02    5.71
 -11  -7   0    1.37    1.60
 -11  -7   1  110.85    6.19
 -11  -7   2  250.20    9.41
 -11  -7   3  273.85    9.89
 -11  -7   4  126.58    6.55
 -11  -7   5  300.26   10.25
 -11  -7   6  433.89   12.44
 -11  -7   7  205.67    8.17
  11   7   7  193.86    7.66
 -11  -7   8   91.48    5.28
  11   7   8   86.93    5.06
 -11  -7   9  169.28    7.11
  11   7   9  172.54    7.08
 -11  -7  10  292.60    9.32
  11   7  10  284.32    9.21
 -11  -7  11  229.65    7.97
  11   7  11  218.96    7.87
  11   7  12   87.25    4.85
 -11  -8 -15    0.84    1.19
  11  -8  15    1.88    1.21
  11   8 -15   -0.16    1.15
  11  -8  14   59.72    4.08
 -11  -8 -14   68.64    4.39
  11   8 -14   64.10    4.44
 -11  -8 -13    4.43    1.50
  11  -8  13    5.39    1.63
  11   8 -13    4.27    1.51
  11  -8  12   27.05    3.01
 -11  -8 -12   25.14    2.84
  11   8 -12   24.49    2.89
  11  -8  11   21.99    2.75
 -11  -8 -11   19.45    2.55
 -11  -8 -11   20.35    2.50
  11   8 -11   21.60    2.77
  11  -8  10   40.26    3.61
 -11  -8 -10   38.82    3.43
 -11  -8 -10   41.51    3.60
  11   8 -10   37.12    3.55
  11  -8   9    5.19    1.74
 -11  -8  -9    6.80    1.78
 -11  -8  -9    7.79    1.98
  11   8  -9    6.78    1.74
  11  -8   8   22.48    2.85
 -11  -8  -8   22.03    2.75
  11   8  -8   18.84    2.60
  11  -8   7    9.49    2.14
 -11  -8  -7    7.80    1.91
  11  -8   6   10.19    2.14
 -11  -8  -6    9.25    2.13
  11  -8   5   12.19    2.39
 -11  -8  -5   14.05    2.38
  11  -8   4  109.67    6.08
 -11  -8  -4  111.40    6.06
 -11  -8  -3   57.82    4.46
 -11  -8  -1   22.01    2.92
 -11  -8   0   31.99    3.43
 -11  -8   1   19.71    2.73
 -11  -8   2    5.91    1.65
 -11  -8   3   62.82    4.60
 -11  -8   4  121.80    6.30
 -11  -8   5   13.40    2.39
 -11  -8   6    6.27    1.88
 -11  -8   7    8.01    1.89
 -11  -8   8   19.65    2.65
 -11  -8   9    7.87    1.98
 -11  -8  10   40.26    3.48
 -11  -8  11   23.71    2.63
 -11  -9 -13  209.99    7.32
  11   9 -13  196.35    7.62
 -11  -9 -12  154.78    6.32
  11  -9  12  158.08    6.40
  11   9 -12  146.08    6.58
 -11  -9 -11  195.40    7.18
  11  -9  11  204.56    7.52
 -11  -9 -11  205.59    7.29
  11   9 -11  213.28    8.05
 -11  -9 -10  232.68    7.95
  11  -9  10  244.34    8.41
 -11  -9 -10  250.20    8.31
  11   9 -10  243.23    8.72
  11  -9   9   99.79    5.34
 -11  -9  -9  100.61    5.37
  11   9  -9   93.51    5.33
  11  -9   8   12.89    2.21
 -11  -9  -8   15.11    2.47
  11  -9   7   75.72    4.77
 -11  -9  -7   70.14    4.64
  11  -9   6  146.20    6.72
 -11  -9  -6  155.17    6.97
 -11  -9  -5  282.01    9.63
 -11  -9  -4  221.38    8.59
 -11  -9  -3  213.60    8.46
 -11  -9   0   13.91    2.50
 -11  -9   1  111.23    6.04
 -11  -9   2  193.35    8.01
 -11  -9   3  188.39    7.89
 -11  -9   4  243.18    8.94
 -11  -9   5  269.26    9.36
 -11  -9   6  150.25    6.80
 -11  -9   7   73.99    4.74
 -11  -9   8   11.82    2.22
 -11  -9   9  101.04    5.30
 -11  -9  10  241.30    8.02
 -11  -9  11  201.73    7.07
  11  10 -11   67.58    4.38
 -11 -10 -10   28.00    2.80
 -11 -10  -9   14.78    2.24
 -11 -10  -8    7.04    1.80
 -11 -10  -7    2.23    1.41
 -11 -10  -6   13.67    2.33
 -11 -10  -5   -1.86    1.46
 -11 -10  -4   30.76    3.25
 -11 -10  -3    4.53    1.76
 -11 -10   0   37.53    3.49
 -11 -10   1   22.07    2.86
 -11 -10   2    3.16    1.61
 -11 -10   3    7.11    1.94
 -11 -10   4   28.97    3.14
 -11 -10   5    1.50    1.26
 -11 -10   6   13.10    2.27
 -11 -10   7    2.33    1.49
 -11 -10   8    6.37    1.78
 -11 -10   9   13.27    2.10
 -11 -10  10   23.61    2.52
 -11 -11  -8   62.86    4.08
 -11 -11  -7   92.60    4.96
 -11 -11  -6  186.35    7.17
 -11 -11  -5  318.84    9.71
 -11 -11  -4  270.88    9.00
 -11 -11  -3  542.32   13.45
 -11 -11   0   21.43    2.73
 -11 -11   1   57.00    4.08
 -11 -11   2  396.94   11.22
 -11 -11   3  572.07   13.84
 -11 -11   4  286.18    9.20
 -11 -11   5  342.60   10.06
 -11 -11   6  180.84    6.98
 -11 -11   7   86.38    4.74
 -11 -11   8   58.24    3.88
 -11 -12  -5    1.52    1.20
 -11 -12  -4   23.15    2.56
 -11 -12  -3   26.71    2.81
 -11 -12   0   10.25    1.97
 -11 -12   1   12.42    2.15
 -11 -12   2   25.25    2.76
 -11 -12   3   28.84    2.86
 -11 -12   4   19.19    2.39
 -11 -12   5    0.68    1.24
 -12   0   0  149.96    8.31
 -12   0  -1  337.21   12.22
 -12   0   1  350.03   12.40
  12   0   2  329.93   11.46
 -12   0   2  349.05   12.39
  12   0   3  235.74    9.52
 -12   0   3  248.59   10.41
  12   0   3  220.12    9.34
  12   0   4   13.53    2.49
 -12   0  -4   36.08    4.88
 -12   0   4   30.61    4.61
  12   0   4   17.55    2.82
  12   0   5    0.84    1.42
 -12   0  -5   17.85    3.83
 -12   0   5   15.16    3.72
  12   0   5    1.07    1.58
  12   0   6    3.74    1.91
 -12   0  -6   20.93    3.94
 -12   0   6   15.11    3.37
  12   0   6    6.59    2.04
  12   0   7  297.96   10.64
 -12   0  -7  302.04   10.65
 -12   0   7  327.83   11.19
  12   0   7  305.19   10.91
  12   0   8  293.39   10.46
 -12   0  -8  288.44   10.29
 -12   0   8  288.54   10.27
  12   0   8  270.70   10.20
  12   0   9   71.07    5.11
 -12   0  -9   75.78    5.40
 -12   0   9   80.84    5.27
  12   0   9   70.57    5.03
  12   0  10   14.24    2.54
 -12   0  10   24.49    3.07
 -12   0 -10   18.09    3.22
  12   0  10   17.04    2.65
  12   0  11    8.94    2.17
 -12   0 -11   10.68    2.50
 -12   0  11   12.30    2.15
  12   0  11    8.05    2.07
 -12   0 -12    7.34    2.37
  12   0  12   10.38    2.14
  12   0  13    8.14    2.08
  12   0  13   10.28    1.97
  12   0  14    2.87    1.53
  12   0  14    2.35    1.41
  12   0  15  447.48   12.42
  12   0  15  466.96   12.70
  12   0  16  283.48    9.43
  12   0  16  309.34    9.81
  12   0  17   51.30    3.86
  12   0  17   51.95    3.88
  12   0  18   56.73    3.94
  12   0  18   60.07    4.05
  12  -1  18  125.92    5.83
  12  -1  17  109.92    5.60
  12  -1  16   66.35    4.50
  12  -1  15   31.11    3.24
  12  -1  14   65.96    4.67
  12  -1  13   18.87    2.68
  12  -1  12   17.86    2.76
 -12  -1 -12    9.35    2.36
  12  -1  11  183.35    8.12
 -12  -1 -11  193.62    7.66
  12  -1  10  188.36    8.28
 -12   1  10  216.04    8.30
 -12  -1 -10  198.16    8.03
  12  -1   9  164.65    7.81
 -12  -1  -9  175.40    7.69
  12  -1   8   53.26    4.53
 -12   1   8   69.73    5.32
 -12  -1  -8   57.90    4.79
  12  -1   7   11.17    2.45
 -12  -1  -7    9.37    2.83
 -12   1   6  193.41    9.07
 -12  -1  -6  176.68    8.12
  12  -1   5  134.12    7.15
 -12   1   5  154.08    8.33
 -12  -1  -5  144.96    7.58
 -12   1   4   16.06    3.84
 -12  -1  -4   17.79    3.72
  12  -1   3   99.74    6.20
  12  -1   2  202.18    8.96
  12  -1   1  122.64    6.90
 -12  -1  -1  127.01    7.44
 -12  -1   0   15.60    3.78
 -12  -1   1  133.19    7.62
  12   1   2  205.12    8.77
 -12  -1   2  247.41    9.95
  12   1   3   75.96    5.28
  12   1   3   84.08    5.75
  12   1   4    6.33    1.93
  12   1   4    4.29    1.75
  12   1   5  123.64    6.69
  12   1   5  135.15    7.18
  12   1   6  148.43    7.40
 -12  -1   6  175.15    8.18
  12   1   6  162.00    7.86
  12   1   7    5.77    2.02
  12   1   7    7.09    2.11
  12   1   8   39.54    3.85
 -12   1  -8   73.64    5.59
 -12  -1   8   60.84    4.73
  12   1   8   49.86    4.32
  12   1   9  186.61    8.09
 -12  -1   9  190.11    7.93
  12   1   9  170.50    7.93
  12   1  10  192.02    8.16
 -12   1 -10  211.98    8.38
 -12  -1  10  211.94    8.16
  12   1  10  198.20    8.45
  12   1  11  184.81    7.89
 -12   1 -11  193.34    7.69
 -12  -1  11  186.97    7.42
  12   1  11  186.33    8.10
  12   1  12   18.92    2.78
 -12   1 -12   15.41    2.89
  12   1  12   18.11    2.76
  12   1  13   21.47    2.87
  12   1  13   27.25    3.00
  12   1  14   72.28    4.77
  12   1  14   66.47    4.59
  12   1  15   30.10    3.17
  12   1  15   30.42    3.12
  12   1  16   56.52    4.10
  12   1  16   65.51    4.42
  12   1  17  119.46    5.66
  12   1  17  111.69    5.62
  12   1  18  118.30    5.61
  12  -2  18   39.16    3.32
  12  -2  18   37.98    3.18
  12  -2  17  103.84    5.44
  12  -2  17  104.18    5.29
  12  -2  16  225.56    8.35
  12  -2  16  228.74    8.19
  12  -2  15  135.20    6.52
  12  -2  15  124.86    6.13
  12  -2  14   46.76    3.97
  12  -2  14   56.27    4.20
  12  -2  13   91.43    5.57
  12  -2  13   82.54    5.16
  12  -2  12   58.83    4.55
 -12  -2 -12   62.20    4.11
  12  -2  12   63.89    4.62
  12  -2  11   37.82    3.77
 -12   2  11   41.18    3.87
 -12  -2 -11   31.05    3.12
  12  -2  11   37.10    3.68
  12  -2  10  210.07    8.76
 -12  -2 -10  190.65    7.81
  12  -2  10  191.92    8.26
  12  -2   9  462.75   13.63
 -12  -2  -9  448.34   12.61
  12  -2   9  453.64   13.35
  12  -2   8  272.16   10.26
 -12  -2  -8  291.56   10.10
  12  -2   8  285.59   10.40
  12  -2   7  117.16    6.63
 -12  -2  -7  110.52    6.37
  12  -2   7  117.25    6.51
  12  -2   6  143.95    7.40
 -12  -2  -6  131.78    7.04
  12  -2   6  139.63    7.20
  12  -2   5   44.75    4.26
 -12  -2  -5   44.29    4.44
  12  -2   5   46.90    4.15
  12  -2   4   32.53    3.68
 -12  -2  -4   35.01    4.28
  12  -2   4   29.35    3.45
  12  -2   3   34.06    3.81
  12  -2   3   37.82    3.84
  12  -2   2  455.12   13.93
  12  -2   1  681.81   17.48
 -12  -2  -1  649.26   16.67
 -12  -2   0  320.65   11.37
 -12  -2   1  697.23   17.39
 -12  -2   2  446.20   13.45
  12   2   3   32.60    3.47
 -12  -2   3   34.66    4.28
  12   2   3   33.07    3.67
  12   2   4   36.81    3.71
 -12  -2   4   40.32    4.44
  12   2   4   34.20    3.69
  12   2   5   39.60    3.79
 -12  -2   5   45.19    4.57
  12   2   5   46.56    4.16
  12   2   6  116.44    6.33
 -12  -2   6  133.71    7.10
  12   2   6  134.70    7.00
  12   2   7  130.25    6.68
 -12  -2   7  142.86    7.16
  12   2   7  131.20    6.87
  12   2   8  274.83    9.87
 -12  -2   8  301.41   10.27
  12   2   8  272.77   10.16
  12   2   9  428.07   12.54
 -12  -2   9  457.71   12.70
  12   2   9  452.70   13.20
  12   2  10  202.33    8.24
 -12   2 -10  225.86    8.76
 -12  -2  10  195.99    7.76
  12   2  10  207.89    8.54
  12   2  11   39.69    3.67
 -12   2 -11   48.84    4.39
 -12  -2  11   42.45    3.60
  12   2  11   43.24    3.90
  12   2  12   65.47    4.51
 -12   2 -12   62.30    4.50
  12   2  12   60.10    4.48
  12   2  13   86.40    5.10
  12   2  13   81.81    5.13
  12   2  14   43.77    3.74
  12   2  14   49.72    3.93
  12   2  15  127.19    6.00
  12   2  15  138.13    6.44
  12   2  16  219.31    7.79
  12   2  16  225.19    8.17
  12   2  17  111.22    5.32
  12   2  17  107.63    5.45
  12   2  18   28.32    2.80
  12  -3  17   44.37    3.62
  12  -3  17   40.57    3.34
  12  -3  16   13.90    2.24
  12  -3  16   13.27    2.06
  12  -3  15    1.56    1.33
  12  -3  15    2.27    1.19
  12  -3  14  128.31    6.42
  12  -3  14  116.22    5.93
  12  -3  13   98.16    5.73
  12  -3  13   98.24    5.49
  12  -3  12   27.71    3.32
 -12  -3 -12   21.61    2.61
  12  -3  12   26.15    3.01
  12  -3  11   31.38    3.44
 -12   3  11   39.49    3.77
 -12  -3 -11   38.78    3.31
  12  -3  11   39.24    3.67
  12  -3  10   61.20    4.78
 -12   3  10   70.34    5.17
 -12  -3 -10   73.73    4.62
  12  -3  10   69.47    4.82
  12  -3   9  242.29    9.61
 -12  -3  -9  248.12    8.84
  12  -3   9  240.23    9.22
  12  -3   8   92.67    5.89
 -12  -3  -8   87.12    5.36
  12  -3   8   86.81    5.51
  12  -3   7   88.92    5.83
 -12  -3  -7   72.14    5.27
  12  -3   7   90.27    5.62
  12  -3   6   58.41    4.80
 -12  -3  -6   58.84    4.86
  12  -3   6   60.42    4.68
  12  -3   5  186.59    8.53
 -12  -3  -5  178.48    8.10
  12  -3   5  196.45    8.42
  12  -3   4  141.87    7.36
 -12  -3  -4  123.10    6.88
  12  -3   4  134.81    7.07
  12  -3   3   11.70    2.38
  12  -3   2   46.16    4.35
 -12  -3  -1   69.05    5.45
 -12  -3   0   54.25    5.06
 -12  -3   1   68.57    5.45
 -12  -3   2   53.79    4.82
 -12  -3   3    8.54    2.81
  12   3   4  129.88    6.55
 -12  -3   4  133.72    7.19
  12   3   4  139.43    7.12
  12   3   5  156.27    7.17
 -12  -3   5  167.36    7.93
  12   3   5  166.84    7.82
  12   3   6   53.44    4.26
 -12  -3   6   64.65    5.11
  12   3   6   69.17    4.96
  12   3   7   97.71    5.58
 -12  -3   7  101.23    6.00
  12   3   7  100.73    5.97
  12   3   8   79.47    5.06
 -12  -3   8   92.24    5.46
  12   3   8   79.06    5.27
  12   3   9  228.39    8.58
 -12  -3   9  249.71    8.93
  12   3   9  240.31    9.24
  12   3  10   69.79    4.70
 -12  -3  10   75.44    4.72
  12   3  10   67.33    4.80
  12   3  11   27.46    3.04
 -12  -3  11   30.01    2.99
  12   3  11   27.40    3.24
  12   3  12   19.50    2.56
  12   3  12   23.76    2.91
  12   3  13   82.03    4.85
  12   3  13   90.13    5.25
  12   3  14  120.34    5.76
  12   3  14  129.83    6.26
  12   3  15    0.43    1.04
  12   3  15    2.44    1.26
  12   3  16   10.59    1.84
  12   3  16   10.20    1.96
  12   3  17   54.69    3.86
  12  -4  16  124.67    5.69
  12  -4  15  103.85    5.34
  12  -4  14  105.68    5.51
  12  -4  13   11.01    2.15
  12  -4  12    0.34    1.28
 -12   4  11    5.87    2.25
 -12  -4 -11    1.81    1.26
  12  -4  11    3.02    1.52
 -12  -4 -10  227.27    8.21
  12  -4  10  246.24    9.01
 -12  -4  -9  185.64    7.49
  12  -4   9  175.34    7.65
 -12  -4  -8   56.31    4.28
  12  -4   8   56.39    4.40
 -12  -4  -7  163.82    7.28
  12  -4   7  163.43    7.48
 -12  -4  -6   29.18    3.31
  12  -4   6   33.66    3.56
 -12  -4  -5   18.59    2.88
  12  -4   5   16.06    2.66
 -12  -4  -4    7.71    2.19
 -12  -4  -1  589.87   15.49
 -12  -4   0  273.36   10.21
 -12  -4   1  639.35   16.36
 -12  -4   2  672.08   16.78
 -12  -4   3  318.04   10.91
 -12  -4   4    6.93    2.05
 -12  -4   5   22.45    3.09
  12   4   5   12.97    2.45
  12   4   6   45.12    3.77
 -12  -4   6   43.91    3.95
  12   4   6   41.35    3.85
  12   4   7  163.55    7.01
 -12  -4   7  174.15    7.56
  12   4   7  157.32    7.37
  12   4   8   54.74    4.09
 -12  -4   8   63.06    4.55
  12   4   8   63.24    4.68
  12   4   9  164.89    6.95
 -12  -4   9  165.78    7.10
  12   4   9  169.89    7.52
  12   4  10  212.57    7.85
 -12  -4  10  218.80    8.00
  12   4  10  223.98    8.62
  12   4  11    3.19    1.35
 -12  -4  11    4.31    1.58
  12   4  11    4.09    1.63
  12   4  12    1.73    1.31
  12   4  13    8.19    1.94
  12   4  14   88.67    5.05
  12   4  15  108.44    5.48
  12   4  16  124.25    5.70
  12  -5  16  125.31    5.81
  12  -5  15   60.06    4.19
  12  -5  15   59.41    3.91
  12  -5  14   13.91    2.34
  12  -5  14   19.58    2.47
  12  -5  13   85.42    5.12
  12  -5  13   79.35    4.66
  12  -5  12   93.66    5.50
  12  -5  12   96.91    5.24
  12  -5  11   31.85    3.36
 -12  -5 -11   33.32    3.12
  12  -5  11   29.75    3.12
  12  -5  10   40.78    3.79
 -12  -5 -10   32.94    3.24
  12  -5  10   38.90    3.50
  12  -5   9   78.90    5.20
 -12  -5  -9   73.72    4.71
  12  -5   9   73.86    4.78
  12  -5   8  218.85    8.85
 -12  -5  -8  203.60    7.97
  12  -5   8  211.29    8.24
  12  -5   7  127.53    6.73
 -12  -5  -7  122.60    6.22
  12  -5   7  129.38    6.40
  12  -5   6   39.08    3.88
 -12  -5  -6   35.20    3.52
  12  -5   6   30.87    3.30
  12  -5   5   40.36    3.94
 -12  -5  -5   34.29    3.57
  12  -5   4  162.37    7.76
 -12  -5  -4  157.56    7.28
  12  -5   3   72.24    5.22
 -12  -5  -3   71.75    5.02
 -12  -5  -1   82.11    5.36
 -12  -5   0  180.92    7.90
 -12  -5   1   83.72    5.43
 -12  -5   2   70.72    4.98
 -12  -5   3   69.29    4.92
 -12  -5   4  165.75    7.52
 -12  -5   5   40.98    3.86
 -12  -5   6   42.64    3.88
  12   5   6   38.34    3.67
 -12  -5   7  128.12    6.35
  12   5   7  111.19    6.07
 -12  -5   8  215.29    8.20
  12   5   8  212.32    8.40
 -12  -5   9   68.31    4.55
  12   5   9   70.81    4.77
 -12  -5  10   37.53    3.44
  12   5  10   38.83    3.51
 -12  -5  11   34.35    3.09
  12   5  11   28.87    3.12
  12   5  12   97.16    5.30
  12   5  13   74.68    4.54
  12   5  14   15.65    2.24
  12   5  15   56.17    3.82
  12  -6  15  130.21    5.87
  12  -6  14   81.69    4.79
  12  -6  13   92.15    5.14
  12  -6  13   83.76    4.62
  12  -6  12   39.12    3.53
  12  -6  12   38.61    3.26
  12  -6  11   94.09    5.43
 -12  -6 -11   89.07    4.79
  12  -6  11   95.57    5.06
  12  -6  10  368.41   11.20
 -12  -6 -10  344.84   10.03
  12  -6  10  344.98   10.21
  12  -6   9  196.84    8.08
 -12  -6  -9  180.35    7.23
  12  -6   9  194.40    7.49
  12  -6   8   27.90    3.29
 -12  -6  -8   25.27    2.94
  12  -6   8   25.84    2.88
  12  -6   7  154.59    7.27
 -12  -6  -7  147.11    6.73
  12  -6   6  134.29    6.83
 -12  -6  -6  136.81    6.55
  12  -6   5  144.17    7.13
 -12  -6  -5  150.61    6.92
  12  -6   4   56.64    4.51
 -12  -6  -4   56.01    4.34
 -12  -6  -3  237.19    8.95
 -12  -6  -1   71.60    4.90
 -12  -6   0   70.98    4.91
 -12  -6   1   85.38    5.39
 -12  -6   2  247.29    9.19
 -12  -6   3  241.35    9.05
 -12  -6   4   57.64    4.45
 -12  -6   5  157.40    7.12
 -12  -6   6  156.12    7.01
 -12  -6   7  146.88    6.73
 -12  -6   8   27.90    3.07
 -12  -6   9  187.28    7.28
  12   6   9  168.79    7.06
 -12  -6  10  347.03    9.93
  12   6  10  337.62   10.13
 -12  -6  11   86.77    4.68
  12   6  11   86.45    4.85
  12   6  12   36.44    3.25
  12   6  13   72.11    4.32
  12  -7  13   14.76    2.18
  12  -7  12   72.48    4.51
  12  -7  11   20.94    2.65
  12  -7  10    7.74    1.87
 -12  -7 -10   11.60    1.91
  12  -7   9  180.72    7.48
 -12  -7  -9  166.54    6.75
  12  -7   8  108.38    5.82
 -12  -7  -8   85.84    5.01
  12  -7   7   34.95    3.52
 -12  -7  -7   41.74    3.64
  12  -7   6    9.20    2.06
 -12  -7  -6    7.62    1.90
  12  -7   5   43.32    3.88
 -12  -7  -5   45.26    3.88
 -12  -7  -4  202.35    8.06
 -12  -7  -3  153.78    7.00
 -12  -7  -1  160.74    7.23
 -12  -7   0  215.09    8.44
 -12  -7   1  173.59    7.55
 -12  -7   2    7.86    2.09
 -12  -7   3  168.65    7.39
 -12  -7   4  222.25    8.50
 -12  -7   5   47.36    3.97
 -12  -7   6    8.57    2.10
 -12  -7   7   42.48    3.71
 -12  -7   8   99.09    5.35
 -12  -7   9  174.20    6.89
 -12  -7  10    7.33    1.65
  12  -8  11  103.69    5.19
  12  -8  10  239.28    8.14
 -12  -8 -10  218.56    7.39
  12  -8   9   60.88    4.11
 -12  -8  -9   52.24    3.76
  12  -8   8   10.57    1.99
 -12  -8  -8    9.80    1.97
 -12  -8  -7  125.69    5.92
 -12  -8  -6   93.84    5.21
 -12  -8  -5  146.05    6.56
 -12  -8  -4  209.16    7.99
 -12  -8  -3  179.24    7.42
 -12  -8   0   11.72    2.22
 -12  -8   1    9.63    2.17
 -12  -8   2   58.29    4.33
 -12  -8   3  179.40    7.45
 -12  -8   4  219.77    8.24
 -12  -8   5  155.37    6.81
 -12  -8   6  101.39    5.44
 -12  -8   7  127.10    5.95
 -12  -8   8   10.34    1.99
 -12  -8   9   47.33    3.58
 -12  -9  -8   70.82    4.29
 -12  -9  -7   81.18    4.64
 -12  -9  -6   14.79    2.17
 -12  -9  -5   56.64    3.92
 -12  -9  -4   83.50    4.79
 -12  -9  -3   19.71    2.73
 -12  -9   0  310.95    9.80
 -12  -9   1  244.82    8.60
 -12  -9   2    7.85    1.92
 -12  -9   3   15.53    2.47
 -12  -9   4   94.48    5.15
 -12  -9   5   57.09    3.98
 -12  -9   6   17.55    2.40
 -12  -9   7   74.84    4.48
 -12  -9   8   68.64    4.25
 -12 -10  -6   46.47    3.48
 -12 -10  -5  153.43    6.27
 -12 -10  -4  253.05    8.29
 -12 -10  -3  272.66    8.69
 -12 -10   0    0.91    1.34
 -12 -10   1   74.34    4.54
 -12 -10   2  276.41    8.86
 -12 -10   3  264.46    8.58
 -12 -10   4  281.07    8.83
 -12 -10   5  145.31    6.12
 -13   0   0   11.12    3.50
 -13   0   1  292.09   10.65
 -13   0   2  277.08   10.35
 -13   0  -3  123.14    6.90
 -13   0   3  123.26    6.97
 -13   0  -4   32.75    4.08
 -13   0   4   38.18    4.39
  13   0   5    1.54    1.37
 -13   0  -5    3.82    2.83
 -13   0   5    6.13    2.74
  13   0   6   96.52    5.74
 -13   0  -6  104.15    6.09
 -13   0   6  113.52    6.30
  13   0   6  109.36    6.16
  13   0   7  249.73    9.25
 -13   0  -7  242.83    8.97
 -13   0   7  255.48    9.31
  13   0   7  233.70    9.14
  13   0   8    7.69    2.04
 -13   0  -8   10.12    2.51
 -13   0   8   10.09    2.46
  13   0   8    8.67    2.07
  13   0   9   87.88    5.30
 -13   0  -9   90.60    5.29
 -13   0   9   83.40    5.11
  13   0   9   89.07    5.37
  13   0  10  122.61    6.19
 -13   0 -10  115.97    5.66
 -13   0  10  115.05    5.65
  13   0  10  119.41    6.14
  13   0  11  125.68    6.13
  13   0  11  117.23    6.02
  13   0  12    4.33    1.63
  13   0  12    5.15    1.61
  13   0  13  113.75    5.65
  13   0  13  112.35    5.68
  13   0  14   16.88    2.32
  13   0  14   21.90    2.63
  13  -1  14  128.11    5.86
  13  -1  13   16.46    2.38
  13  -1  12   11.80    2.11
  13  -1  11   64.50    4.47
  13  -1  10  119.21    6.10
 -13   1  10  124.49    5.77
 -13  -1 -10  109.49    5.37
  13  -1   9   59.30    4.46
 -13   1   9   64.27    4.49
 -13  -1  -9   57.54    4.26
  13  -1   8   80.04    5.16
 -13   1   8   88.99    5.40
 -13  -1  -8   75.79    4.96
  13  -1   7  154.31    7.23
 -13   1   7  171.24    7.58
  13  -1   6  186.71    8.07
 -13  -1  -6  195.32    8.07
  13  -1   5   12.04    2.38
 -13  -1  -5   10.60    3.01
  13  -1   4   28.48    3.35
 -13  -1  -4   30.70    3.88
 -13   1   3  201.71    8.80
 -13  -1  -3  171.06    7.92
 -13   1   2  152.80    7.78
 -13   1   1   30.23    4.39
 -13   1   0   65.71    5.64
 -13  -1   0   44.68    4.69
 -13  -1   1   22.44    3.65
 -13  -1   2  139.13    7.20
 -13   1  -3  201.21    8.78
 -13  -1   3  191.12    8.39
 -13   1  -4   58.72    5.20
 -13  -1   4   35.02    4.03
  13   1   5    7.91    2.00
 -13  -1   5   11.05    2.95
  13   1   6  192.80    8.03
 -13   1  -6  208.36    8.51
 -13  -1   6  207.71    8.46
  13   1   7  139.66    6.75
 -13   1  -7  157.22    7.23
 -13  -1   7  156.53    7.20
  13   1   7  148.14    7.13
  13   1   8   77.17    4.97
 -13   1  -8   82.89    5.29
 -13  -1   8   82.61    5.13
  13   1   8   80.20    5.15
  13   1   9   57.99    4.29
 -13   1  -9   65.95    4.59
 -13  -1   9   68.05    4.52
  13   1   9   66.71    4.69
  13   1  10  104.10    5.59
 -13   1 -10  116.92    5.66
 -13  -1  10  116.41    5.58
  13   1  10  113.61    5.98
  13   1  11   56.40    4.05
  13   1  11   58.73    4.27
  13   1  12   15.21    2.22
  13   1  12   13.82    2.33
  13   1  13   19.97    2.47
  13   1  13   19.65    2.51
  13   1  14  127.18    5.83
  13  -2  14   94.07    5.00
  13  -2  14   83.08    4.68
  13  -2  13  144.54    6.39
  13  -2  13  146.54    6.35
  13  -2  12   26.02    2.92
  13  -2  12   28.79    3.04
  13  -2  11   85.27    5.10
  13  -2  11   88.26    5.10
  13  -2  10  235.29    8.70
 -13   2  10  237.75    8.01
 -13  -2 -10  229.16    7.79
  13  -2  10  220.96    8.38
  13  -2   9  128.04    6.47
 -13   2   9  128.59    6.21
 -13  -2  -9  124.13    5.83
  13  -2   9  141.54    6.65
  13  -2   8   46.37    4.03
 -13   2   8   57.12    4.55
 -13  -2  -8   46.04    3.77
  13  -2   8   47.72    3.97
  13  -2   7   57.85    4.50
 -13  -2  -7   52.07    4.29
  13  -2   7   57.03    4.43
  13  -2   6  170.14    7.75
 -13  -2  -6  184.21    7.81
  13  -2   5   76.91    5.26
 -13  -2  -5   71.36    5.09
  13  -2   4   42.05    3.98
 -13  -2  -4   32.70    3.84
 -13   2   3  163.18    8.12
 -13  -2  -3  123.81    6.78
 -13   2   2  274.32   10.63
 -13   2   1  358.72   12.35
 -13   2   0  703.31   17.70
 -13  -2   0  666.79   16.53
 -13  -2   1  361.92   11.65
 -13  -2   2  206.38    8.76
 -13   2  -3  180.71    8.46
 -13  -2   3  133.16    7.13
 -13   2  -4   57.46    5.16
 -13  -2   4   32.02    3.88
 -13   2  -5  115.84    6.67
 -13  -2   5   90.26    5.72
 -13   2  -6  193.83    8.28
 -13  -2   6  165.26    7.51
  13   2   7   49.44    3.99
 -13  -2   7   56.85    4.42
  13   2   7   56.69    4.34
  13   2   8   49.93    3.96
 -13   2  -8   61.74    4.80
 -13  -2   8   60.98    4.32
  13   2   8   48.92    4.10
  13   2   9  110.66    5.75
 -13   2  -9  127.35    6.20
  13   2   9  120.44    6.19
  13   2  10  211.70    7.88
 -13   2 -10  231.54    7.97
 -13  -2  10  228.34    7.82
  13   2  10  221.65    8.40
  13   2  11   89.62    4.95
  13   2  11   93.34    5.24
  13   2  12   30.48    2.97
  13   2  12   32.43    3.24
  13   2  13  145.71    6.34
  13   2  14   84.63    4.74
  13  -3  13   26.79    2.85
  13  -3  13   24.81    2.71
  13  -3  12  106.79    5.55
  13  -3  12   91.33    5.04
  13  -3  11  167.21    7.15
  13  -3  11  170.40    7.02
  13  -3  10  127.60    6.33
 -13   3  10  118.46    5.60
 -13  -3 -10  120.37    5.52
  13  -3  10  121.58    6.01
  13  -3   9   18.00    2.68
 -13  -3  -9   17.16    2.43
  13  -3   9   16.44    2.42
  13  -3   8   69.79    4.87
 -13  -3  -8   58.64    4.15
  13  -3   8   69.48    4.66
  13  -3   7   18.51    2.77
 -13  -3  -7   18.63    2.61
  13  -3   6   24.71    3.06
 -13  -3  -6   23.40    2.88
  13  -3   5   83.13    5.41
 -13  -3  -5   76.33    4.90
 -13   3   4   98.37    6.42
 -13  -3  -4   80.26    5.14
 -13  -3  -3  150.31    7.05
 -13  -3   0  282.58   10.14
 -13  -3   1   69.46    5.19
 -13  -3   2   97.91    5.87
 -13  -3   3  149.06    7.09
 -13  -3   4   92.50    5.55
 -13   3  -5  109.07    6.66
 -13  -3   5   80.63    5.18
 -13   3  -6   48.10    4.80
 -13  -3   6   29.92    3.33
 -13   3  -7   39.03    4.45
 -13  -3   7   18.18    2.61
  13   3   8   65.36    4.31
 -13   3  -8   82.75    5.35
 -13  -3   8   77.85    4.81
  13   3   8   75.14    4.83
  13   3   9   16.65    2.27
 -13  -3   9   17.03    2.40
  13   3   9   15.05    2.34
  13   3  10  119.55    5.61
 -13   3 -10  136.81    6.13
 -13  -3  10  122.11    5.61
  13   3  10  125.09    6.10
  13   3  11  157.29    6.31
  13   3  11  164.45    6.93
  13   3  12   99.30    5.25
  13   3  13   27.21    2.83
  13  -4  12   43.06    3.44
  13  -4  11   40.64    3.35
 -13  -4 -10    9.03    1.83
  13  -4  10   13.21    2.12
 -13   4   9   72.32    4.73
 -13  -4  -9   61.17    4.07
 -13   4   8  134.33    6.59
 -13  -4  -8  119.12    5.70
 -13   4   7  151.28    7.29
 -13  -4  -7  127.56    6.03
 -13  -4  -6   86.00    5.03
 -13  -4  -5  114.86    5.85
 -13  -4  -4  122.22    6.10
 -13  -4  -3   78.09    4.95
 -13  -4   0  209.91    8.33
 -13  -4   1  133.81    6.65
 -13  -4   2   86.81    5.34
 -13  -4   3   82.64    5.15
 -13  -4   4  120.69    6.20
 -13  -4   5  125.33    6.26
 -13  -4   6   90.42    5.27
 -13   4  -7  187.07    8.00
 -13  -4   7  148.46    6.62
 -13   4  -8  172.86    7.43
 -13  -4   8  147.84    6.49
 -13   4  -9   94.93    5.54
 -13  -4   9   68.85    4.35
 -13  -4  10    9.20    1.80
  13   4  10    7.33    1.80
  13   4  11   30.78    3.01
  13   4  12   40.11    3.35
  13  -5  11  120.04    5.80
  13  -5  10  127.53    6.06
  13  -5   9  113.74    5.84
 -13   5   9  108.73    5.47
 -13  -5  -9  111.57    5.29
  13  -5   8   82.95    5.06
 -13   5   8   90.51    5.47
 -13  -5  -8   88.86    4.87
  13  -5   7   61.10    4.43
 -13  -5  -7   69.21    4.39
  13  -5   6  163.57    7.28
 -13  -5  -6  170.78    6.97
 -13  -5  -5   37.40    3.46
 -13  -5  -4   92.98    5.28
 -13  -5  -3   49.98    4.00
 -13  -5   0  252.59    9.03
 -13  -5   1  109.85    5.89
 -13  -5   2   31.56    3.37
 -13  -5   3   59.41    4.41
 -13  -5   4   83.80    5.13
 -13  -5   5   38.38    3.59
 -13  -5   6  185.26    7.40
 -13  -5   7   61.75    4.24
 -13  -5   8   78.21    4.64
 -13   5  -9  143.94    6.50
 -13  -5   9  119.84    5.56
  13  -6  10   23.97    2.70
  13  -6   9   52.18    3.88
  13  -6   8  133.82    6.19
 -13  -6  -8  117.52    5.45
 -13  -6  -7   39.03    3.31
 -13  -6  -6  145.57    6.28
 -13  -6  -5  309.18    9.53
 -13  -6  -4  325.65    9.91
 -13  -6  -3   35.26    3.40
 -13  -6   0  705.18   16.00
 -13  -6   1  281.19    9.39
 -13  -6   2   59.10    4.30
 -13  -6   3   41.97    3.70
 -13  -6   4  347.13   10.44
 -13  -6   5  311.57    9.72
 -13  -6   6  157.26    6.64
 -13  -6   7   43.19    3.53
 -13  -6   8  140.56    5.99
 -13  -7  -7    8.05    1.79
 -13  -7  -6  249.01    8.09
 -13  -7  -5  196.36    7.22
 -13  -7  -4   66.77    4.32
 -13  -7  -3   27.29    2.94
 -13  -7   0    4.76    1.66
 -13  -7   1   52.37    4.00
 -13  -7   2   61.14    4.28
 -13  -7   3   20.67    2.64
 -13  -7   4   69.90    4.47
 -13  -7   5  207.97    7.57
 -13  -7   6  272.71    8.63
 -13  -8  -4  109.06    5.23
 -13  -8  -3   62.72    4.08
 -13  -8   0  576.83   13.42
 -13  -8   1  181.97    7.00
 -13  -8   2   66.77    4.29
 -13  -8   3   74.53    4.51
 -13  -8   4  118.24    5.54
 -14   0   0   33.62    3.76
 -14   0   1  234.41    8.60
 -14   0   2   66.59    4.74
 -14   0  -3   39.89    3.80
 -14   0   3   41.21    3.84
 -14   0  -4  204.91    7.76
 -14   0   4  219.80    8.20
 -14   0  -5  140.38    6.34
 -14   0   5  158.48    6.79
 -14   0  -6    2.30    1.81
 -14   0   6    0.30    2.12
 -14   0  -7   14.69    2.52
 -14  -1  -7   81.25    4.52
 -14   1   6  118.10    5.87
 -14  -1  -6  119.41    5.52
 -14   1   5   79.85    4.90
 -14  -1  -5   72.29    4.51
 -14   1   4   18.73    2.92
 -14  -1  -4    7.96    2.19
 -14   1   3  125.66    6.26
 -14  -1  -3  119.48    6.02
 -14   1   2  152.34    6.97
 -14   1   1   84.56    5.31
 -14   1   0   40.41    4.01
 -14  -1   0   24.56    3.33
 -14  -1   1   74.95    4.98
 -14  -1   2  147.74    6.81
 -14   1  -3  118.98    6.06
 -14  -1   3  132.61    6.38
 -14   1  -4   15.47    2.69
 -14  -1   4    8.48    2.34
 -14   1  -5   75.55    4.74
 -14  -1   5   81.65    4.80
 -14   1  -6  134.93    6.07
 -14  -1   6  135.07    6.02
 -14   1  -7   79.96    4.71
 -14   2   6    5.11    2.34
 -14  -2  -6    6.00    1.67
 -14   2   5   83.33    5.07
 -14  -2  -5   80.30    4.62
 -14   2   4   82.55    5.15
 -14  -2  -4   72.36    4.50
 -14   2   3   47.99    4.21
 -14  -2  -3   36.03    3.36
 -14   2   2   33.39    3.79
 -14   2   1   16.37    3.25
 -14   2   0   14.41    3.09
 -14  -2   0    8.21    1.98
 -14  -2   1    4.85    1.76
 -14  -2   2   24.65    2.93
 -14   2  -3   58.05    4.46
 -14  -2   3   49.29    3.89
 -14   2  -4   70.81    4.76
 -14  -2   4   65.31    4.37
 -14   2  -5   85.84    5.10
 -14  -2   5   79.48    4.72
 -14   2  -6    7.03    2.45
 -14  -2   6    7.29    1.82
 -14   3   5  124.38    6.00
 -14  -3  -5  112.58    5.38
 -14   3   4  115.16    5.86
 -14  -3  -4  102.52    5.24
 -14   3   3   69.62    4.92
 -14  -3  -3   55.14    3.95
 -14   3   2   93.79    5.51
 -14   3   1   87.33    5.43
 -14   3   0   98.05    5.64
 -14  -3   0   82.98    4.89
 -14  -3   1   64.48    4.33
 -14  -3   2   75.79    4.70
 -14   3  -3   67.57    4.75
 -14  -3   3   55.73    4.07
 -14   3  -4   98.35    5.41
 -14  -3   4   95.28    5.14
 -14   3  -5  126.75    5.96
 -14  -3   5  122.20    5.75
 -14   4   4   80.97    5.06
 -14  -4  -4   66.14    4.11
 -14   4   3   44.93    4.23
 -14  -4  -3   30.38    3.03
 -14   4   2   34.12    3.96
 -14   4   1   25.43    3.57
 -14   4   0   10.73    3.23
 -14  -4   0    4.20    1.26
 -14  -4   1   18.24    2.36
 -14  -4   2   18.73    2.52
 -14   4  -3   54.95    4.47
 -14  -4   3   44.39    3.60
 -14   4  -4   78.94    4.92
 -14  -4   4   53.30    3.85
 -14   5   1   97.92    5.67
 -14   5   0   58.12    4.66
 -14  -5   0   39.11    3.32
 -14  -5   1   83.67    4.68
   0   0   0    0.00    0.00


TITL D-OH-bim+BDC+Zn_autored in P2(1)2(1)2(1)
REM P2(1)2(1)2(1) (#19 in standard setting)
CELL 1.34050  11.180919  15.003612  25.506124  90.0000  90.0000  90.0000
ZERR   60.00   0.000070   0.000087   0.000140   0.0000   0.0000   0.0000
LATT -1
SYMM -x+1/2,-y, z+1/2
SYMM -x, y+1/2,-z+1/2
SYMM  x+1/2,-y+1/2,-z
SFAC C H N O Zn
UNIT 60.00 60.00 60.00 60.00 60.00
REM  CrysAlisPro recorded range (K): Min=99.9; max=100.1; aver:100.0
TEMP -173
TREF
HKLF 4
END
_computing_structure_solution     'SHELXT 2014/5 (Sheldrick, 2014)'
;
_shelx_hkl_checksum              49867
_olex2_submission_special_instructions 'No special instructions were received'
_oxdiff_exptl_absorpt_empirical_details
;
Empirical correction (ABSPACK) includes:
- Absorption correction using spherical harmonics
- Frame scaling
;
_oxdiff_exptl_absorpt_empirical_full_max 3.475
_oxdiff_exptl_absorpt_empirical_full_min 0.847
loop_
_space_group_symop_operation_xyz
'x, y, z'
'-x+1/2, -y, z+1/2'
'-x, y+1/2, -z+1/2'
'x+1/2, -y+1/2, -z'
loop_
_atom_site_label
_atom_site_type_symbol
_atom_site_fract_x
_atom_site_fract_y
_atom_site_fract_z
_atom_site_U_iso_or_equiv
_atom_site_adp_type
_atom_site_occupancy
_atom_site_site_symmetry_order
_atom_site_calc_flag
_atom_site_refinement_flags_posn
_atom_site_refinement_flags_adp
_atom_site_refinement_flags_occupancy
_atom_site_disorder_assembly
_atom_site_disorder_group
Zn1 Zn 0.01160(4) 0.50075(4) 0.50255(2) 0.00789(10) Uani 1 1 d . . . . .
Zn2 Zn 0.10467(4) 0.46459(3) 0.62599(2) 0.00899(10) Uani 1 1 d . . . . .
Zn3 Zn 0.91694(4) 0.53436(3) 0.37800(2) 0.00902(11) Uani 1 1 d . . . . .
O12 O 1.0209(2) 0.44947(16) 0.42052(9) 0.0092(5) Uani 1 1 d . . . . .
O24 O -0.0003(2) 0.54893(16) 0.58545(9) 0.0098(5) Uani 1 1 d . . . . .
O36 O 0.1881(2) 0.48165(18) 0.50999(10) 0.0145(5) Uani 1 1 d . . . . .
O15 O 1.4566(2) 0.12455(17) 0.47295(9) 0.0142(5) Uani 1 1 d . . . . .
O27 O -0.4307(2) 0.87507(17) 0.52364(9) 0.0136(5) Uani 1 1 d . . . . .
O14 O 1.5437(2) 0.15796(17) 0.39612(10) 0.0127(5) Uani 1 1 d . . . . .
O26 O -0.5183(2) 0.84491(16) 0.60060(10) 0.0132(5) Uani 1 1 d . . . . .
O23 O -0.1213(2) 0.4995(2) 0.64751(10) 0.0178(5) Uani 1 1 d . . . . .
O39 O 0.8349(2) 0.52033(17) 0.49559(9) 0.0132(5) Uani 1 1 d . . . . .
O38 O 0.7617(2) 0.53498(19) 0.41445(9) 0.0149(5) Uani 1 1 d . . . . .
O35 O 0.2608(2) 0.4584(2) 0.59061(10) 0.0203(6) Uani 1 1 d . . . . .
O11 O 1.1269(2) 0.4939(2) 0.35295(10) 0.0184(6) Uani 1 1 d . . . . .
O50 O 0.2088(3) 0.59206(19) 0.66872(12) 0.0212(6) Uani 1 1 d . . . . .
H50 H 0.251204 0.628199 0.651758 0.032 Uiso 1 1 calc GR . . . .
N53 N 0.8748(3) 0.5642(2) 0.30387(11) 0.0115(6) Uani 1 1 d . . . . .
O62 O 0.8162(2) 0.40204(18) 0.33666(10) 0.0177(6) Uani 1 1 d . . . . .
H62 H 0.784198 0.366195 0.357710 0.026 Uiso 1 1 calc GR . . . .
N48 N 0.1201(3) 0.4425(2) 0.70274(11) 0.0116(6) Uani 1 1 d . . . . .
N60 N 0.7690(3) 0.5503(2) 0.23082(12) 0.0152(6) Uani 1 1 d . . . . .
H60 H 0.716186 0.529370 0.208372 0.018 Uiso 1 1 calc R . . . .
N41 N 0.2124(3) 0.4473(2) 0.77958(12) 0.0178(7) Uani 1 1 d . . . . .
H41 H 0.262768 0.464092 0.804164 0.021 Uiso 1 1 calc R . . . .
C7 C 1.3788(3) 0.2447(2) 0.42458(14) 0.0121(7) Uani 1 1 d . . . . .
C22 C -0.1003(3) 0.5523(2) 0.61126(13) 0.0103(7) Uani 1 1 d . . . . .
C37 C 0.7515(3) 0.5224(2) 0.46326(13) 0.0101(7) Uani 1 1 d . . . . .
C52 C 0.7894(3) 0.5193(2) 0.27965(13) 0.0128(7) Uani 1 1 d . . . . .
O64 O 0.7299(3) 0.2846(3) 0.40768(16) 0.0423(9) Uani 1 1 d . . . . .
H64 H 0.683677 0.246818 0.394296 0.063 Uiso 1 1 calc GR . . . .
C25 C -0.4413(3) 0.8313(2) 0.56475(13) 0.0105(6) Uani 1 1 d . . . . .
C21 C -0.1599(3) 0.6907(2) 0.56207(14) 0.0122(7) Uani 1 1 d . . . . .
H21 H -0.083722 0.691302 0.545581 0.015 Uiso 1 1 calc R . . . .
C54 C 0.9134(3) 0.6293(3) 0.26865(13) 0.0137(7) Uani 1 1 d . . . . .
C16 C -0.1883(3) 0.6237(2) 0.59758(13) 0.0107(7) Uani 1 1 d . . . . .
C4 C 1.2089(3) 0.3768(2) 0.40460(13) 0.0105(6) Uani 1 1 d . . . . .
C28 C 0.3965(3) 0.4838(2) 0.52161(13) 0.0120(7) Uani 1 1 d . . . . .
C40 C 0.2033(3) 0.4823(2) 0.73141(14) 0.0126(7) Uani 1 1 d . . . . .
C31 C 0.6266(3) 0.5096(2) 0.48351(13) 0.0118(7) Uani 1 1 d . . . . .
C10 C 1.1159(3) 0.4450(2) 0.39187(13) 0.0109(7) Uani 1 1 d . . . . .
C17 C -0.3008(3) 0.6227(2) 0.62101(14) 0.0139(7) Uani 1 1 d . . . . .
H17 H -0.321053 0.576454 0.644877 0.017 Uiso 1 1 calc R . . . .
C34 C 0.2717(3) 0.4736(2) 0.54213(14) 0.0116(7) Uani 1 1 d . . . . .
C13 C 1.4668(3) 0.1698(2) 0.43234(13) 0.0107(6) Uani 1 1 d . . . . .
C46 C -0.0279(3) 0.3216(3) 0.72717(15) 0.0161(7) Uani 1 1 d . . . . .
H46 H -0.069536 0.320583 0.694696 0.019 Uiso 1 1 calc R . . . .
C47 C 0.0692(3) 0.3780(3) 0.73538(14) 0.0126(7) Uani 1 1 d . . . . .
C29 C 0.4137(3) 0.5209(2) 0.47185(13) 0.0133(7) Uani 1 1 d . . . . .
H29 H 0.346843 0.537664 0.451101 0.016 Uiso 1 1 calc R . . . .
C59 C 0.8459(3) 0.6207(3) 0.22255(14) 0.0171(8) Uani 1 1 d . . . . .
C8 C 1.2718(3) 0.2461(2) 0.45256(14) 0.0137(7) Uani 1 1 d . . . . .
H8 H 1.256962 0.201979 0.478486 0.016 Uiso 1 1 calc R . . . .
C19 C -0.3546(3) 0.7563(2) 0.57487(13) 0.0111(7) Uani 1 1 d . . . . .
C5 C 1.3163(3) 0.3757(2) 0.37700(14) 0.0133(7) Uani 1 1 d . . . . .
H5 H 1.331656 0.420130 0.351300 0.016 Uiso 1 1 calc R . . . .
C49 C 0.2738(3) 0.5606(3) 0.71256(15) 0.0176(8) Uani 1 1 d . . . . .
H49 H 0.273403 0.607536 0.740378 0.021 Uiso 1 1 calc R . . . .
C32 C 0.6098(3) 0.4731(3) 0.53308(13) 0.0133(7) Uani 1 1 d . . . . .
H32 H 0.676846 0.456969 0.553889 0.016 Uiso 1 1 calc R . . . .
C6 C 1.4011(3) 0.3102(2) 0.38678(14) 0.0132(7) Uani 1 1 d . . . . .
H6 H 1.474203 0.309900 0.367807 0.016 Uiso 1 1 calc R . . . .
C20 C -0.2430(3) 0.7566(2) 0.55072(15) 0.0147(7) Uani 1 1 d . . . . .
H20 H -0.223509 0.802206 0.526324 0.018 Uiso 1 1 calc R . . . .
C33 C 0.4945(3) 0.4602(3) 0.55205(13) 0.0148(7) Uani 1 1 d . . . . .
H33 H 0.482794 0.435135 0.585872 0.018 Uiso 1 1 calc R . . . .
C30 C 0.5290(3) 0.5330(3) 0.45294(13) 0.0141(7) Uani 1 1 d . . . . .
H30 H 0.541044 0.557297 0.418961 0.017 Uiso 1 1 calc R . . . .
C42 C 0.1283(3) 0.3800(3) 0.78373(14) 0.0170(8) Uani 1 1 d . . . . .
C51 C 0.4028(3) 0.5357(3) 0.70017(16) 0.0232(8) Uani 1 1 d . . . . .
H51A H 0.403958 0.488233 0.673775 0.035 Uiso 1 1 calc GR . . . .
H51B H 0.442346 0.514760 0.732170 0.035 Uiso 1 1 calc GR . . . .
H51C H 0.445035 0.588055 0.686602 0.035 Uiso 1 1 calc GR . . . .
C55 C 1.0038(4) 0.6929(3) 0.27300(15) 0.0202(8) Uani 1 1 d . . . . .
H55 H 1.051431 0.697564 0.303715 0.024 Uiso 1 1 calc R . . . .
C9 C 1.1869(3) 0.3113(2) 0.44283(13) 0.0127(7) Uani 1 1 d . . . . .
H9 H 1.114011 0.311743 0.461960 0.015 Uiso 1 1 calc R . . . .
C45 C -0.0611(4) 0.2671(3) 0.76836(17) 0.0247(9) Uani 1 1 d . . . . .
H45 H -0.127474 0.228220 0.764171 0.030 Uiso 1 1 calc R . . . .
C61 C 0.7261(3) 0.4432(3) 0.30544(14) 0.0166(8) Uani 1 1 d . . . . .
H61 H 0.663031 0.467687 0.329199 0.020 Uiso 1 1 calc R . . . .
C18 C -0.3830(3) 0.6887(2) 0.60965(14) 0.0136(7) Uani 1 1 d . . . . .
H18 H -0.459487 0.687645 0.625819 0.016 Uiso 1 1 calc R . . . .
C43 C 0.0961(4) 0.3239(3) 0.82479(16) 0.0296(10) Uani 1 1 d . . . . .
H43 H 0.137773 0.324186 0.857236 0.036 Uiso 1 1 calc R . . . .
C44 C 0.0005(4) 0.2677(3) 0.81600(18) 0.0331(11) Uani 1 1 d . . . . .
H44 H -0.024097 0.228278 0.843091 0.040 Uiso 1 1 calc R . . . .
C58 C 0.8636(4) 0.6772(3) 0.17981(16) 0.0257(9) Uani 1 1 d . . . . .
H58 H 0.817305 0.671927 0.148734 0.031 Uiso 1 1 calc R . . . .
C57 C 0.9517(4) 0.7412(3) 0.18485(18) 0.0335(11) Uani 1 1 d . . . . .
H57 H 0.965723 0.781103 0.156618 0.040 Uiso 1 1 calc R . . . .
C63 C 0.6677(5) 0.3798(3) 0.26694(17) 0.0304(10) Uani 1 1 d . . . . .
H63A H 0.727283 0.359330 0.241464 0.046 Uiso 1 1 calc GR . . . .
H63B H 0.602834 0.410631 0.248530 0.046 Uiso 1 1 calc GR . . . .
H63C H 0.635182 0.328441 0.285922 0.046 Uiso 1 1 calc GR . . . .
C56 C 1.0209(4) 0.7488(3) 0.23048(19) 0.0301(10) Uani 1 1 d . . . . .
H56 H 1.081005 0.793477 0.232255 0.036 Uiso 1 1 calc R . . . .
C65 C 0.8367(6) 0.2449(4) 0.4196(2) 0.0467(14) Uani 1 1 d . . . . .
H65A H 0.867751 0.214321 0.388454 0.070 Uiso 1 1 calc GR . . . .
H65B H 0.824853 0.201584 0.447842 0.070 Uiso 1 1 calc GR . . . .
H65C H 0.894100 0.290379 0.430899 0.070 Uiso 1 1 calc GR . . . .
O66 O 0.2923(4) 0.7293(3) 0.6166(2) 0.0754(13) Uani 1 1 d D U . . .
H66 H 0.353213 0.701690 0.606247 0.113 Uiso 1 1 calc GR . . . .
C1 C 0.2179(9) 0.7430(7) 0.5760(3) 0.107(3) Uani 1 1 d D U . . .
loop_
_atom_site_aniso_label
_atom_site_aniso_U_11
_atom_site_aniso_U_22
_atom_site_aniso_U_33
_atom_site_aniso_U_23
_atom_site_aniso_U_13
_atom_site_aniso_U_12
Zn1 0.0052(2) 0.01003(19) 0.0084(2) 0.00186(17) -0.00014(16) -0.00064(17)
Zn2 0.0071(2) 0.0107(2) 0.0092(2) 0.0020(2) -0.00047(18) 0.00004(19)
Zn3 0.0069(2) 0.0117(2) 0.0084(2) 0.0020(2) -0.00034(17) -0.00003(19)
O12 0.0066(10) 0.0114(12) 0.0097(10) 0.0001(9) -0.0002(8) 0.0005(9)
O24 0.0077(11) 0.0130(12) 0.0089(10) 0.0008(9) 0.0003(8) 0.0015(9)
O36 0.0059(10) 0.0235(15) 0.0140(11) -0.0010(10) -0.0007(9) -0.0010(10)
O15 0.0168(13) 0.0142(12) 0.0115(11) 0.0023(10) 0.0013(10) 0.0059(10)
O27 0.0170(12) 0.0122(12) 0.0117(11) 0.0030(9) 0.0007(10) 0.0046(10)
O14 0.0130(12) 0.0119(12) 0.0132(11) -0.0008(10) 0.0031(9) 0.0030(10)
O26 0.0107(12) 0.0106(12) 0.0183(12) 0.0031(10) 0.0046(10) 0.0016(10)
O23 0.0171(12) 0.0216(13) 0.0147(11) 0.0091(11) 0.0064(10) 0.0091(12)
O39 0.0063(10) 0.0200(13) 0.0133(11) -0.0014(10) 0.0001(9) 0.0003(9)
O38 0.0072(11) 0.0267(14) 0.0109(11) 0.0016(11) 0.0013(9) -0.0005(11)
O35 0.0072(11) 0.0416(17) 0.0120(12) 0.0041(12) 0.0013(9) -0.0006(12)
O11 0.0186(13) 0.0221(14) 0.0144(11) 0.0085(11) 0.0057(10) 0.0084(12)
O50 0.0169(13) 0.0169(14) 0.0299(15) 0.0079(12) -0.0070(12) -0.0035(11)
N53 0.0112(14) 0.0138(14) 0.0096(13) 0.0013(11) 0.0000(11) -0.0011(11)
O62 0.0203(14) 0.0162(13) 0.0165(12) 0.0048(10) -0.0026(11) -0.0006(11)
N48 0.0106(13) 0.0132(14) 0.0109(13) -0.0014(11) -0.0012(11) -0.0003(11)
N60 0.0152(14) 0.0192(17) 0.0111(14) -0.0018(12) -0.0041(11) 0.0024(12)
N41 0.0175(15) 0.0253(18) 0.0106(14) -0.0038(12) -0.0050(12) 0.0016(13)
C7 0.0105(16) 0.0127(17) 0.0131(15) -0.0009(13) -0.0014(13) 0.0014(14)
C22 0.0094(15) 0.0127(17) 0.0089(14) -0.0014(12) -0.0009(12) 0.0025(13)
C37 0.0073(14) 0.0113(17) 0.0116(14) -0.0023(13) 0.0026(12) 0.0002(13)
C52 0.0130(15) 0.0170(19) 0.0083(14) -0.0017(13) -0.0021(12) 0.0028(14)
O64 0.0332(19) 0.044(2) 0.049(2) 0.0243(18) -0.0096(17) -0.0192(16)
C25 0.0080(15) 0.0116(15) 0.0119(15) -0.0006(13) -0.0005(12) 0.0022(13)
C21 0.0108(16) 0.0131(16) 0.0128(16) 0.0020(14) 0.0008(13) 0.0016(14)
C54 0.0159(17) 0.0163(18) 0.0088(15) 0.0027(13) 0.0002(13) 0.0015(14)
C16 0.0112(16) 0.0108(16) 0.0100(15) -0.0013(13) -0.0009(13) 0.0020(13)
C4 0.0125(16) 0.0107(16) 0.0083(14) -0.0004(13) -0.0014(13) 0.0018(13)
C28 0.0071(15) 0.0161(19) 0.0129(15) -0.0012(13) 0.0017(12) -0.0009(13)
C40 0.0119(15) 0.0129(18) 0.0131(15) -0.0031(13) -0.0010(12) 0.0048(13)
C31 0.0050(14) 0.0164(18) 0.0141(15) -0.0033(13) 0.0009(12) -0.0010(13)
C10 0.0098(15) 0.0124(17) 0.0103(15) -0.0016(12) -0.0005(12) 0.0007(13)
C17 0.0142(16) 0.0137(17) 0.0139(16) 0.0045(14) 0.0009(14) 0.0025(13)
C34 0.0073(14) 0.0126(17) 0.0150(15) -0.0028(14) 0.0010(12) 0.0000(13)
C13 0.0091(15) 0.0095(15) 0.0135(15) 0.0004(13) -0.0020(13) -0.0002(13)
C46 0.0143(17) 0.0172(18) 0.0168(17) 0.0028(14) -0.0004(14) 0.0005(15)
C47 0.0115(16) 0.0159(17) 0.0105(15) 0.0011(13) 0.0012(13) 0.0026(14)
C29 0.0079(15) 0.0177(19) 0.0143(16) -0.0021(13) -0.0016(12) 0.0001(13)
C59 0.0161(18) 0.0221(19) 0.0130(16) 0.0039(15) -0.0010(14) 0.0049(16)
C8 0.0167(18) 0.0120(18) 0.0123(16) 0.0054(13) 0.0025(14) -0.0009(14)
C19 0.0131(16) 0.0097(16) 0.0105(15) 0.0005(13) -0.0032(13) 0.0024(13)
C5 0.0140(16) 0.0126(16) 0.0133(15) 0.0024(14) 0.0024(14) 0.0018(13)
C49 0.0152(18) 0.0162(18) 0.0213(18) -0.0018(15) -0.0078(14) -0.0002(14)
C32 0.0066(14) 0.0198(18) 0.0134(15) 0.0000(14) -0.0016(12) 0.0005(14)
C6 0.0110(16) 0.0148(17) 0.0138(16) 0.0027(13) 0.0027(13) 0.0026(13)
C20 0.0150(18) 0.0137(18) 0.0155(17) 0.0033(13) 0.0007(14) 0.0028(15)
C33 0.0086(15) 0.0223(18) 0.0135(15) 0.0024(14) 0.0003(12) -0.0004(15)
C30 0.0100(15) 0.0194(17) 0.0127(15) 0.0010(14) 0.0000(12) -0.0010(15)
C42 0.0146(17) 0.0230(19) 0.0134(16) 0.0008(15) -0.0026(14) 0.0025(15)
C51 0.0147(17) 0.0241(19) 0.031(2) 0.0029(17) -0.0032(15) -0.0024(17)
C55 0.021(2) 0.022(2) 0.0179(17) 0.0045(15) -0.0003(15) -0.0042(16)
C9 0.0106(16) 0.0160(17) 0.0113(15) -0.0002(14) 0.0024(13) -0.0007(14)
C45 0.0194(19) 0.027(2) 0.028(2) 0.0080(18) 0.0023(17) -0.0022(17)
C61 0.0162(17) 0.0191(19) 0.0146(17) 0.0000(14) -0.0048(14) -0.0045(14)
C18 0.0102(15) 0.0150(17) 0.0155(16) 0.0003(14) 0.0022(13) 0.0029(14)
C43 0.026(2) 0.048(3) 0.0150(18) 0.0114(18) -0.0027(17) 0.003(2)
C44 0.031(2) 0.043(3) 0.026(2) 0.022(2) 0.0018(19) -0.002(2)
C58 0.027(2) 0.035(2) 0.0153(18) 0.0112(17) -0.0039(16) 0.0036(19)
C57 0.033(2) 0.039(3) 0.028(2) 0.022(2) -0.0016(19) -0.003(2)
C63 0.039(3) 0.026(2) 0.026(2) -0.0006(18) -0.0099(19) -0.014(2)
C56 0.027(2) 0.029(2) 0.034(2) 0.0135(19) -0.001(2) -0.0075(19)
C65 0.060(4) 0.037(3) 0.043(3) 0.002(2) 0.005(3) 0.000(3)
O66 0.0419(19) 0.064(2) 0.121(3) 0.046(2) -0.008(2) -0.0135(17)
C1 0.113(4) 0.107(4) 0.100(4) 0.003(3) -0.005(3) -0.014(3)
loop_
_atom_type_symbol
_atom_type_description
_atom_type_scat_dispersion_real
_atom_type_scat_dispersion_imag
_atom_type_scat_source
C C 0.0137 0.0067 'International Tables Vol C Tables 4.2.6.8 and 6.1.1.4'
N N 0.0241 0.0134 'International Tables Vol C Tables 4.2.6.8 and 6.1.1.4'
O O 0.0389 0.0241 'International Tables Vol C Tables 4.2.6.8 and 6.1.1.4'
Zn Zn -2.7473 0.5279 'International Tables Vol C Tables 4.2.6.8 and 6.1.1.4'
H H 0.0000 0.0000 'International Tables Vol C Tables 4.2.6.8 and 6.1.1.4'
loop_
_geom_angle_atom_site_label_1
_geom_angle_atom_site_label_2
_geom_angle_atom_site_label_3
_geom_angle
_geom_angle_site_symmetry_1
_geom_angle_site_symmetry_3
_geom_angle_publ_flag
O12 Zn1 O24 178.50(10) 1_455 . ?
O36 Zn1 O12 89.63(9) . 1_455 ?
O36 Zn1 O24 90.87(9) . . ?
O36 Zn1 O15 97.69(11) . 4_356 ?
O36 Zn1 O27 81.56(11) . 4_566 ?
O36 Zn1 O39 179.59(12) . 1_455 ?
O15 Zn1 O12 89.08(9) 4_356 1_455 ?
O15 Zn1 O24 89.45(9) 4_356 . ?
O15 Zn1 O27 178.49(12) 4_356 4_566 ?
O27 Zn1 O12 89.61(9) 4_566 1_455 ?
O27 Zn1 O24 91.86(9) 4_566 . ?
O39 Zn1 O12 90.77(9) 1_455 1_455 ?
O39 Zn1 O24 88.73(9) 1_455 . ?
O39 Zn1 O15 82.38(11) 1_455 4_356 ?
O39 Zn1 O27 98.38(11) 1_455 4_566 ?
O24 Zn2 O14 103.29(10) . 4_356 ?
O35 Zn2 O24 108.16(11) . . ?
O35 Zn2 O14 97.29(12) . 4_356 ?
O35 Zn2 N48 111.47(11) . . ?
N48 Zn2 O24 131.28(11) . . ?
N48 Zn2 O14 98.67(11) . 4_356 ?
O26 Zn3 O12 102.22(10) 4_666 . ?
O38 Zn3 O12 104.75(10) . . ?
O38 Zn3 O26 100.58(11) . 4_666 ?
O38 Zn3 N53 103.76(11) . . ?
N53 Zn3 O12 141.07(11) . . ?
N53 Zn3 O26 97.97(11) . 4_666 ?
Zn3 O12 Zn1 104.89(10) . 1_655 ?
C10 O12 Zn1 125.9(2) . 1_655 ?
C10 O12 Zn3 101.6(2) . . ?
Zn2 O24 Zn1 104.34(10) . . ?
C22 O24 Zn1 122.9(2) . . ?
C22 O24 Zn2 105.4(2) . . ?
C34 O36 Zn1 144.4(2) . . ?
C13 O15 Zn1 135.9(2) . 4_656 ?
C25 O27 Zn1 135.5(2) . 4_466 ?
C13 O14 Zn2 123.4(2) . 4_656 ?
C25 O26 Zn3 125.4(2) . 4_366 ?
C37 O39 Zn1 143.1(2) . 1_655 ?
C37 O38 Zn3 122.9(2) . . ?
C34 O35 Zn2 121.7(2) . . ?
C52 N53 Zn3 119.9(2) . . ?
C52 N53 C54 106.2(3) . . ?
C54 N53 Zn3 133.9(2) . . ?
C40 N48 Zn2 121.9(2) . . ?
C40 N48 C47 105.6(3) . . ?
C47 N48 Zn2 131.7(2) . . ?
C52 N60 C59 107.4(3) . . ?
C40 N41 C42 107.7(3) . . ?
C8 C7 C13 120.3(3) . . ?
C8 C7 C6 119.7(3) . . ?
C6 C7 C13 119.9(3) . . ?
O24 C22 C16 118.4(3) . . ?
O23 C22 O24 121.1(3) . . ?
O23 C22 C16 120.4(3) . . ?
O39 C37 O38 126.0(3) . . ?
O39 C37 C31 117.8(3) . . ?
O38 C37 C31 116.2(3) . . ?
N53 C52 N60 112.2(3) . . ?
N53 C52 C61 121.7(3) . . ?
N60 C52 C61 126.1(3) . . ?
O27 C25 O26 125.9(3) . . ?
O27 C25 C19 118.5(3) . . ?
O26 C25 C19 115.6(3) . . ?
C20 C21 C16 119.9(3) . . ?
N53 C54 C59 108.0(3) . . ?
C55 C54 N53 130.7(3) . . ?
C55 C54 C59 121.3(3) . . ?
C21 C16 C22 121.3(3) . . ?
C21 C16 C17 119.6(3) . . ?
C17 C16 C22 119.1(3) . . ?
C5 C4 C10 119.9(3) . . ?
C5 C4 C9 119.5(3) . . ?
C9 C4 C10 120.5(3) . . ?
C29 C28 C34 119.0(3) . . ?
C33 C28 C34 120.9(3) . . ?
C33 C28 C29 120.0(3) . . ?
N48 C40 N41 112.5(3) . . ?
N48 C40 C49 123.1(3) . . ?
N41 C40 C49 124.3(3) . . ?
C32 C31 C37 119.2(3) . . ?
C30 C31 C37 120.4(3) . . ?
C30 C31 C32 120.3(3) . . ?
O12 C10 C4 119.0(3) . . ?
O11 C10 O12 120.2(3) . . ?
O11 C10 C4 120.7(3) . . ?
C18 C17 C16 120.2(3) . . ?
O36 C34 O35 126.1(3) . . ?
O36 C34 C28 117.2(3) . . ?
O35 C34 C28 116.7(3) . . ?
O15 C13 O14 126.2(3) . . ?
O15 C13 C7 117.1(3) . . ?
O14 C13 C7 116.7(3) . . ?
C45 C46 C47 117.0(4) . . ?
N48 C47 C42 108.5(3) . . ?
C46 C47 N48 130.4(3) . . ?
C46 C47 C42 120.9(3) . . ?
C30 C29 C28 119.7(3) . . ?
N60 C59 C54 106.2(3) . . ?
N60 C59 C58 132.4(4) . . ?
C58 C59 C54 121.5(4) . . ?
C9 C8 C7 120.4(3) . . ?
C20 C19 C25 119.9(3) . . ?
C18 C19 C25 120.6(3) . . ?
C18 C19 C20 119.4(3) . . ?
C6 C5 C4 120.4(3) . . ?
O50 C49 C40 104.3(3) . . ?
O50 C49 C51 113.8(3) . . ?
C40 C49 C51 111.9(3) . . ?
C33 C32 C31 119.8(3) . . ?
C5 C6 C7 120.0(3) . . ?
C21 C20 C19 120.4(3) . . ?
C28 C33 C32 120.1(3) . . ?
C31 C30 C29 120.2(3) . . ?
N41 C42 C47 105.6(3) . . ?
N41 C42 C43 132.5(4) . . ?
C43 C42 C47 121.8(4) . . ?
C56 C55 C54 116.9(4) . . ?
C8 C9 C4 119.9(3) . . ?
C46 C45 C44 121.7(4) . . ?
O62 C61 C52 104.0(3) . . ?
O62 C61 C63 113.3(3) . . ?
C52 C61 C63 113.5(3) . . ?
C17 C18 C19 120.5(3) . . ?
C44 C43 C42 116.6(4) . . ?
C43 C44 C45 121.8(4) . . ?
C57 C58 C59 116.8(4) . . ?
C58 C57 C56 121.9(4) . . ?
C55 C56 C57 121.6(4) . . ?
loop_
_geom_bond_atom_site_label_1
_geom_bond_atom_site_label_2
_geom_bond_distance
_geom_bond_site_symmetry_2
_geom_bond_publ_flag
Zn1 O12 2.232(2) 1_455 ?
Zn1 O24 2.239(2) . ?
Zn1 O36 2.003(2) . ?
Zn1 O15 2.074(3) 4_356 ?
Zn1 O27 2.082(3) 4_566 ?
Zn1 O39 2.005(2) 1_455 ?
Zn2 O24 2.012(2) . ?
Zn2 O14 2.040(3) 4_356 ?
Zn2 O35 1.968(2) . ?
Zn2 N48 1.993(3) . ?
Zn3 O12 2.037(2) . ?
Zn3 O26 2.026(3) 4_666 ?
Zn3 O38 1.969(2) . ?
Zn3 N53 1.999(3) . ?
O12 C10 1.291(4) . ?
O24 C22 1.298(4) . ?
O36 C34 1.249(4) . ?
O15 C13 1.243(4) . ?
O27 C25 1.243(4) . ?
O14 C13 1.274(4) . ?
O26 C25 1.272(4) . ?
O23 C22 1.240(4) . ?
O39 C37 1.245(4) . ?
O38 C37 1.264(4) . ?
O35 C34 1.263(4) . ?
O11 C10 1.241(4) . ?
O50 C49 1.414(5) . ?
N53 C52 1.322(5) . ?
N53 C54 1.395(5) . ?
O62 C61 1.425(4) . ?
N48 C40 1.325(5) . ?
N48 C47 1.398(5) . ?
N60 C52 1.349(4) . ?
N60 C59 1.379(5) . ?
N41 C40 1.340(5) . ?
N41 C42 1.383(5) . ?
C7 C13 1.508(5) . ?
C7 C8 1.393(5) . ?
C7 C6 1.399(5) . ?
C22 C16 1.496(5) . ?
C37 C31 1.502(4) . ?
C52 C61 1.496(5) . ?
O64 C65 1.369(7) . ?
C25 C19 1.508(5) . ?
C21 C16 1.390(5) . ?
C21 C20 1.387(5) . ?
C54 C59 1.403(5) . ?
C54 C55 1.394(5) . ?
C16 C17 1.392(5) . ?
C4 C10 1.493(5) . ?
C4 C5 1.392(5) . ?
C4 C9 1.406(5) . ?
C28 C34 1.499(4) . ?
C28 C29 1.399(5) . ?
C28 C33 1.389(5) . ?
C40 C49 1.494(5) . ?
C31 C32 1.391(5) . ?
C31 C30 1.386(5) . ?
C17 C18 1.382(5) . ?
C46 C47 1.393(5) . ?
C46 C45 1.382(6) . ?
C47 C42 1.399(5) . ?
C29 C30 1.388(5) . ?
C59 C58 1.395(5) . ?
C8 C9 1.386(5) . ?
C19 C20 1.392(5) . ?
C19 C18 1.385(5) . ?
C5 C6 1.388(5) . ?
C49 C51 1.523(5) . ?
C32 C33 1.390(5) . ?
C42 C43 1.392(6) . ?
C55 C56 1.385(5) . ?
C45 C44 1.396(6) . ?
C61 C63 1.515(5) . ?
C43 C44 1.379(7) . ?
C58 C57 1.381(7) . ?
C57 C56 1.402(7) . ?
O66 C1 1.346(3) . ?
