#------------------------------------------------------------------------------
#$Date: 2022-02-08 01:42:51 +0200 (Tue, 08 Feb 2022) $
#$Revision: 272847 $
#$URL: file:///home/coder/svn-repositories/cod/cif/7/24/43/7244365.cif $
#------------------------------------------------------------------------------
#
# This file is available in the Crystallography Open Database (COD),
# http://www.crystallography.net/
#
# All data on this site have been placed in the public domain by the
# contributors.
#
data_7244365
loop_
_publ_author_name
'Sakamoto, Hikaru'
'Ito, Akitaka'
'Ohtani, Masataka'
_publ_section_title
;
 Unusual ligand substitution of a metal-organic framework with distorted
 metal--ligand coordination
;
_journal_name_full               CrystEngComm
_journal_paper_doi               10.1039/D2CE00060A
_journal_year                    2022
_chemical_formula_moiety         'C14 H14 F4 N2 O6 Zn'
_chemical_formula_sum            'C14 H14 F4 N2 O6 Zn'
_chemical_formula_weight         447.64
_space_group_crystal_system      monoclinic
_space_group_IT_number           14
_space_group_name_Hall           '-P 2yn'
_space_group_name_H-M_alt        'P 1 21/n 1'
_atom_sites_solution_hydrogens   mixed
_atom_sites_solution_primary     dual
_audit_creation_date             2020-09-25
_audit_creation_method
;
Olex2 1.3-ac4
(compiled 2019.04.23 svn.r3594 for Rigaku Oxford Diffraction, GUI svn.r5739)
;
_audit_update_record
;
2021-12-10 deposited with the CCDC.	2022-01-26 downloaded from the CCDC.
;
_cell_angle_alpha                90
_cell_angle_beta                 104.438(3)
_cell_angle_gamma                90
_cell_formula_units_Z            4
_cell_length_a                   8.5208(3)
_cell_length_b                   16.3781(5)
_cell_length_c                   12.7517(4)
_cell_measurement_reflns_used    7608
_cell_measurement_temperature    93.15
_cell_measurement_theta_max      29.6460
_cell_measurement_theta_min      2.0670
_cell_volume                     1723.36(10)
_computing_cell_refinement       'CrysAlisPro 1.171.40.47a (Rigaku OD, 2019)'
_computing_data_collection       'CrysAlisPro 1.171.40.47a (Rigaku OD, 2019)'
_computing_data_reduction        'CrysAlisPro 1.171.40.47a (Rigaku OD, 2019)'
_computing_molecular_graphics    'Olex2 (Dolomanov et al., 2009)'
_computing_publication_material  'Olex2 (Dolomanov et al., 2009)'
_computing_structure_refinement  'ShelXL (Sheldrick, 2015)'
_computing_structure_solution    'ShelXT (Sheldrick, 2015)'
_diffrn_ambient_temperature      93.15
_diffrn_detector                 'CCD plate'
_diffrn_detector_area_resol_mean 10.0000
_diffrn_detector_type            HyPix
_diffrn_measured_fraction_theta_full 0.999
_diffrn_measured_fraction_theta_max 0.998
_diffrn_measurement_details
;
List of Runs (angles in degrees, time in seconds):

  # Type    Start    End  Width  t~exp~   \w     \q     \k     \f   Frames
#--------------------------------------------------------------------------
  1  \w     18.00  95.00   0.50    2.26    --   12.40  33.00 -58.00  154
  2  \w    -64.00  43.00   0.50    2.26    --   12.40 -33.00 142.00  214
  3  \w     62.00  88.00   0.50    2.26    --   12.40 178.00  60.00   52
  4  \w    -23.00  32.00   0.50    2.26    --  -13.03 -99.00  30.00  110
;
_diffrn_measurement_device       'four-circle diffractometer'
_diffrn_measurement_device_type
'XtaLAB Synergy, Single source at offset/far, HyPix'
_diffrn_measurement_method       '\w scans'
_diffrn_orient_matrix_type
'CrysAlisPro convention (1999,Acta A55,543-557)'
_diffrn_orient_matrix_UB_11      -0.0815486000
_diffrn_orient_matrix_UB_12      -0.0137571000
_diffrn_orient_matrix_UB_13      -0.0149238000
_diffrn_orient_matrix_UB_21      0.0100663000
_diffrn_orient_matrix_UB_22      -0.0118661000
_diffrn_orient_matrix_UB_23      -0.0514243000
_diffrn_orient_matrix_UB_31      0.0251739000
_diffrn_orient_matrix_UB_32      -0.0393178000
_diffrn_orient_matrix_UB_33      0.0207292000
_diffrn_radiation_monochromator  mirror
_diffrn_radiation_probe          x-ray
_diffrn_radiation_type           'Mo K\a'
_diffrn_radiation_wavelength     0.71073
_diffrn_reflns_av_R_equivalents  0.0273
_diffrn_reflns_av_unetI/netI     0.0311
_diffrn_reflns_Laue_measured_fraction_full 0.999
_diffrn_reflns_Laue_measured_fraction_max 0.998
_diffrn_reflns_limit_h_max       10
_diffrn_reflns_limit_h_min       -7
_diffrn_reflns_limit_k_max       20
_diffrn_reflns_limit_k_min       -18
_diffrn_reflns_limit_l_max       15
_diffrn_reflns_limit_l_min       -15
_diffrn_reflns_number            10354
_diffrn_reflns_point_group_measured_fraction_full 0.999
_diffrn_reflns_point_group_measured_fraction_max 0.998
_diffrn_reflns_theta_full        25.242
_diffrn_reflns_theta_max         26.372
_diffrn_reflns_theta_min         2.487
_diffrn_source                   'micro-focus sealed X-ray tube'
_diffrn_source_type              'PhotonJet (Mo) X-ray Source'
_exptl_absorpt_coefficient_mu    1.502
_exptl_absorpt_correction_T_max  1.000
_exptl_absorpt_correction_T_min  0.267
_exptl_absorpt_correction_type   gaussian
_exptl_absorpt_process_details
;
CrysAlisPro 1.171.40.47a (Rigaku Oxford Diffraction, 2019)
Numerical absorption correction based on gaussian integration over
			a multifaceted crystal model
Empirical absorption correction using spherical harmonics,
 implemented in SCALE3 ABSPACK scaling algorithm.
;
_exptl_crystal_colour            'clear colourless'
_exptl_crystal_colour_lustre     clear
_exptl_crystal_colour_primary    colourless
_exptl_crystal_density_diffrn    1.725
_exptl_crystal_description       block
_exptl_crystal_F_000             904
_exptl_crystal_size_max          0.521
_exptl_crystal_size_mid          0.205
_exptl_crystal_size_min          0.141
_refine_diff_density_max         0.401
_refine_diff_density_min         -0.576
_refine_diff_density_rms         0.065
_refine_ls_extinction_method     none
_refine_ls_goodness_of_fit_ref   1.054
_refine_ls_hydrogen_treatment    mixed
_refine_ls_matrix_type           full
_refine_ls_number_parameters     259
_refine_ls_number_reflns         3511
_refine_ls_number_restraints     0
_refine_ls_restrained_S_all      1.054
_refine_ls_R_factor_all          0.0330
_refine_ls_R_factor_gt           0.0287
_refine_ls_shift/su_max          0.001
_refine_ls_shift/su_mean         0.000
_refine_ls_structure_factor_coef Fsqd
_refine_ls_weighting_details
'w=1/[\s^2^(Fo^2^)+(0.0360P)^2^+0.9552P] where P=(Fo^2^+2Fc^2^)/3'
_refine_ls_weighting_scheme      calc
_refine_ls_wR_factor_gt          0.0719
_refine_ls_wR_factor_ref         0.0738
_reflns_Friedel_coverage         0.000
_reflns_number_gt                3159
_reflns_number_total             3511
_reflns_threshold_expression     'I > 2\s(I)'
_iucr_refine_instructions_details
;
TITL kuths4-80s_dmf_1_a.res in P2(1)/n
    kuths4-80s_dmf_1.res
    created by SHELXL-2018/3 at 11:37:16 on 25-Sep-2020
REM Old TITL kuths4-80s_dmf_1_a.res in P2(1)/n
REM SHELXT solution in P2(1)/n: R1 0.080, Rweak 0.008, Alpha 0.021
REM <I/s> 0.858 for 135 systematic absences, Orientation as input
REM Formula found by SHELXT: C16 F4 O6 Zn
CELL 0.71073 8.5208 16.3781 12.7517 90 104.438 90
ZERR 4 0.0003 0.0005 0.0004 0 0.003 0
LATT 1
SYMM 0.5-X,0.5+Y,0.5-Z
SFAC C H F N O Zn
UNIT 56 56 16 8 24 4

L.S. 4
PLAN  5
TEMP -180
BOND
list 4
fmap 2
acta
OMIT -4 2 12
OMIT 0 1 1
REM <olex2.extras>
REM <HklSrc "%.\\KUTHS4-80s_DMF_1.hkl">
REM </olex2.extras>

WGHT    0.036000    0.955200
FVAR       0.61762
ZN01  6    0.361032    0.217597    0.307384    11.00000    0.01820    0.01583 =
         0.01126   -0.00171    0.00013   -0.00035
F002  3    0.457158    0.461215    0.816938    11.00000    0.03193    0.02878 =
         0.01245   -0.00397    0.00018    0.00406
F003  3    0.097847    0.576400    0.514375    11.00000    0.02324    0.02108 =
         0.02755   -0.00104   -0.00022    0.00576
F004  3    0.184229    0.466319    0.384882    11.00000    0.03046    0.02994 =
         0.01422    0.00013   -0.00273    0.00752
F005  3    0.231207    0.572486    0.732211    11.00000    0.03396    0.02590 =
         0.02382   -0.00878    0.00446    0.00634
O006  5    0.529229    0.141913    0.392327    11.00000    0.02059    0.02261 =
         0.01589   -0.00108   -0.00079    0.00195
O007  5    0.301615    0.297840    0.402606    11.00000    0.01848    0.02053 =
         0.01747   -0.00573    0.00193   -0.00127
O008  5    0.543413    0.267346    0.665736    11.00000    0.02862    0.01421 =
         0.01769   -0.00163    0.00123    0.00153
O009  5    0.695484    0.366618    0.758538    11.00000    0.02059    0.01829 =
         0.01986    0.00031   -0.00629    0.00070
O00A  5    0.450963    0.256387    0.189626    11.00000    0.02356    0.02576 =
         0.01555   -0.00264    0.00446   -0.00471
O00B  5    0.558295    0.341369    0.447634    11.00000    0.01743    0.02586 =
         0.01804   -0.00281    0.00410    0.00067
N00C  4    0.654424    0.078875    0.548173    11.00000    0.02307    0.01619 =
         0.01677   -0.00089    0.00088    0.00252
N00D  4    0.461884    0.270140    0.016261    11.00000    0.02217    0.01852 =
         0.01676   -0.00325    0.00593   -0.00281
C00E  1    0.368846    0.403357    0.532198    11.00000    0.01269    0.01565 =
         0.01514   -0.00130    0.00235   -0.00173
C00F  1    0.417930    0.342703    0.455722    11.00000    0.01907    0.01439 =
         0.00880    0.00222    0.00083    0.00133
C00G  1    0.442837    0.402978    0.643474    11.00000    0.01319    0.01527 =
         0.01378   -0.00071    0.00012   -0.00310
C00H  1    0.556904    0.134553    0.492927    11.00000    0.01963    0.01515 =
         0.01933   -0.00287    0.00158   -0.00065
AFIX  43
H00H  2    0.504793    0.171056    0.531310    11.00000   -1.20000
AFIX   0
C00I  1    0.394887    0.460920    0.708551    11.00000    0.01960    0.01763 =
         0.01073   -0.00067   -0.00146   -0.00243
C00J  1    0.568778    0.339370    0.692162    11.00000    0.01907    0.01904 =
         0.01063    0.00218    0.00347    0.00151
C00K  1    0.277656    0.518174    0.666483    11.00000    0.02152    0.01388 =
         0.01864   -0.00599    0.00462   -0.00024
C00L  1    0.391173    0.244135    0.090139    11.00000    0.02051    0.01581 =
         0.01880   -0.00140    0.00493   -0.00069
AFIX  43
H00L  2    0.291805    0.215161    0.068044    11.00000   -1.20000
AFIX   0
C00M  1    0.209061    0.519626    0.557119    11.00000    0.01485    0.01283 =
         0.02230    0.00183    0.00002    0.00148
C00N  1    0.254423    0.462032    0.491275    11.00000    0.01832    0.01731 =
         0.01225    0.00045   -0.00177   -0.00292
C00O  1    0.392495    0.254803   -0.099363    11.00000    0.03010    0.02537 =
         0.01504    0.00044    0.00545   -0.00243
AFIX 137
H00A  2    0.469668    0.223376   -0.128732    11.00000   -1.50000
H00B  2    0.369920    0.306968   -0.137822    11.00000   -1.50000
H00C  2    0.291539    0.223820   -0.108781    11.00000   -1.50000
AFIX   0
C00P  1    0.686392    0.072966    0.665977    11.00000    0.05001    0.02105 =
         0.01759    0.00347    0.00368    0.00877
AFIX 137
H00D  2    0.801077    0.084456    0.698535    11.00000   -1.50000
H00E  2    0.660341    0.017771    0.686058    11.00000   -1.50000
H00F  2    0.619194    0.112710    0.692328    11.00000   -1.50000
AFIX   0
C00Q  1    0.739595    0.021918    0.494441    11.00000    0.03079    0.02680 =
         0.02617    0.00106    0.00479    0.01114
AFIX 137
H00G  2    0.684482    0.019048    0.417283    11.00000   -1.50000
H00I  2    0.740429   -0.032318    0.527038    11.00000   -1.50000
H00J  2    0.851278    0.040637    0.502790    11.00000   -1.50000
AFIX   0
C00R  1    0.614839    0.314201    0.047529    11.00000    0.02723    0.03076 =
         0.03030   -0.00825    0.01382   -0.01120
H00K  2    0.640145    0.337515   -0.018236    11.00000    0.07503
H00M  2    0.690334    0.279301    0.071562    11.00000    0.05750
H00N  2    0.604938    0.358570    0.092142    11.00000    0.07472
HKLF 4




REM  kuths4-80s_dmf_1_a.res in P2(1)/n
REM wR2 = 0.0738, GooF = S = 1.054, Restrained GooF = 1.054 for all data
REM R1 = 0.0287 for 3159 Fo > 4sig(Fo) and 0.0330 for all 3511 data
REM 259 parameters refined using 0 restraints

END  
     
WGHT      0.0360      0.9553 

REM Highest difference peak  0.401,  deepest hole -0.576,  1-sigma level  0.065
Q1    1   0.3921  0.3753  0.4973  11.00000  0.05    0.40
Q2    1   0.2635  0.2237  0.3345  11.00000  0.05    0.37
Q3    1   0.3878  0.4183  0.6790  11.00000  0.05    0.36
Q4    1   0.4659  0.2140  0.2793  11.00000  0.05    0.35
Q5    1   0.5141  0.3762  0.6600  11.00000  0.05    0.34

  REM The information below was added by Olex2.
  REM
  REM R1 = 0.0287 for 3159 Fo > 4sig(Fo) and 0.0330 for all 10554 data
  REM n/a parameters refined using n/a restraints
  REM Highest difference peak 0.40, deepest hole -0.58
  REM Mean Shift 0, Max Shift 0.001.

  REM +++ Tabular Listing of Refinement Information +++
  REM R1_all = 0.0330
  REM R1_gt = 0.0287
  REM wR_ref = 0.0738
  REM GOOF = 1.054
  REM Shift_max = 0.001
  REM Shift_mean = 0
  REM Reflections_all = 10554
  REM Reflections_gt = 3159
  REM Parameters = n/a
  REM Hole = -0.58
  REM Peak = 0.40
  REM Flack = n/a

  
;
_cod_data_source_file            d2ce00060a2.cif
_cod_data_source_block           kuths4-80s_dmf_1
_cod_original_cell_volume        1723.35(10)
_cod_database_code               7244365
_shelx_shelxl_version_number     2018/3
_chemical_oxdiff_formula         'C64 H56 F16 O24 Zn4 '
_shelx_space_group_comment
;
The symmetry employed for this shelxl refinement is uniquely defined
by the following loop, which should always be used as a source of
symmetry information in preference to the above space-group names.
They are only intended as comments.
;
_diffrn_oxdiff_digest_frames
;
01a6546908cc423f5d4da9c4631c9fc4ba00530abfd
;
_diffrn_oxdiff_digest_hkl
;
013f385fcfcb45a1823cd22bd96338b1df8f4e
;
_reflns_odcompleteness_completeness 99.81
_reflns_odcompleteness_iscentric 1
_reflns_odcompleteness_theta     26.32
_olex2_refinement_description
;
1. Fixed Uiso
 At 1.2 times of:
  All C(H) groups
 At 1.5 times of:
  All C(H,H,H) groups
2.a Aromatic/amide H refined with riding coordinates:
 C00H(H00H), C00L(H00L)
2.b Idealised Me refined as rotating group:
 C00O(H00A,H00B,H00C), C00P(H00D,H00E,H00F), C00Q(H00G,H00I,H00J)
;
_olex2_submission_special_instructions 'No special instructions were received'
_oxdiff_exptl_absorpt_empirical_details
;
Empirical correction (ABSPACK) includes:
- Absorption correction using spherical harmonics
- Frame scaling
;
_oxdiff_exptl_absorpt_empirical_full_max 1.214
_oxdiff_exptl_absorpt_empirical_full_min 0.742
loop_
_space_group_symop_operation_xyz
'x, y, z'
'-x+1/2, y+1/2, -z+1/2'
'-x, -y, -z'
'x-1/2, -y-1/2, z-1/2'
loop_
_atom_site_label
_atom_site_type_symbol
_atom_site_fract_x
_atom_site_fract_y
_atom_site_fract_z
_atom_site_U_iso_or_equiv
_atom_site_adp_type
_atom_site_occupancy
_atom_site_site_symmetry_order
_atom_site_calc_flag
_atom_site_refinement_flags_posn
_atom_site_refinement_flags_adp
_atom_site_refinement_flags_occupancy
_atom_site_disorder_assembly
_atom_site_disorder_group
Zn01 Zn 0.36103(3) 0.21760(2) 0.30738(2) 0.01572(8) Uani 1 1 d . . . . .
F002 F 0.45716(16) 0.46121(7) 0.81694(9) 0.0253(3) Uani 1 1 d . . . . .
F003 F 0.09785(15) 0.57640(7) 0.51438(10) 0.0251(3) Uani 1 1 d . . . . .
F004 F 0.18423(16) 0.46632(7) 0.38488(9) 0.0263(3) Uani 1 1 d . . . . .
F005 F 0.23121(17) 0.57249(7) 0.73221(10) 0.0284(3) Uani 1 1 d . . . . .
O006 O 0.52923(18) 0.14191(8) 0.39233(11) 0.0206(3) Uani 1 1 d . . . . .
O007 O 0.30161(18) 0.29784(8) 0.40261(11) 0.0193(3) Uani 1 1 d . . . . .
O008 O 0.54341(19) 0.26735(8) 0.66574(11) 0.0210(3) Uani 1 1 d . . . . .
O009 O 0.69548(18) 0.36662(8) 0.75854(11) 0.0216(3) Uani 1 1 d . . . . .
O00A O 0.45096(18) 0.25639(9) 0.18963(11) 0.0217(3) Uani 1 1 d . . . . .
O00B O 0.55830(17) 0.34137(8) 0.44763(11) 0.0205(3) Uani 1 1 d . . . . .
N00C N 0.6544(2) 0.07888(10) 0.54817(13) 0.0194(4) Uani 1 1 d . . . . .
N00D N 0.4619(2) 0.27014(9) 0.01626(13) 0.0190(4) Uani 1 1 d . . . . .
C00E C 0.3688(2) 0.40336(11) 0.53220(15) 0.0147(4) Uani 1 1 d . . . . .
C00F C 0.4179(2) 0.34270(11) 0.45572(14) 0.0146(4) Uani 1 1 d . . . . .
C00G C 0.4428(2) 0.40298(11) 0.64347(15) 0.0147(4) Uani 1 1 d . . . . .
C00H C 0.5569(3) 0.13455(11) 0.49293(16) 0.0186(4) Uani 1 1 d . . . . .
H00H H 0.504793 0.171056 0.531310 0.022 Uiso 1 1 calc R . . . .
C00I C 0.3949(3) 0.46092(11) 0.70855(15) 0.0169(4) Uani 1 1 d . . . . .
C00J C 0.5688(3) 0.33937(12) 0.69216(15) 0.0163(4) Uani 1 1 d . . . . .
C00K C 0.2777(3) 0.51817(11) 0.66648(16) 0.0181(4) Uani 1 1 d . . . . .
C00L C 0.3912(3) 0.24414(12) 0.09014(15) 0.0184(4) Uani 1 1 d . . . . .
H00L H 0.291805 0.215161 0.068044 0.022 Uiso 1 1 calc R . . . .
C00M C 0.2091(2) 0.51963(11) 0.55712(16) 0.0175(4) Uani 1 1 d . . . . .
C00N C 0.2544(3) 0.46203(11) 0.49128(15) 0.0169(4) Uani 1 1 d . . . . .
C00O C 0.3925(3) 0.25480(13) -0.09936(16) 0.0235(5) Uani 1 1 d . . . . .
H00A H 0.469668 0.223376 -0.128732 0.035 Uiso 1 1 calc GR . . . .
H00B H 0.369920 0.306968 -0.137822 0.035 Uiso 1 1 calc GR . . . .
H00C H 0.291539 0.223820 -0.108781 0.035 Uiso 1 1 calc GR . . . .
C00P C 0.6864(3) 0.07297(13) 0.66598(17) 0.0304(5) Uani 1 1 d . . . . .
H00D H 0.801077 0.084456 0.698535 0.046 Uiso 1 1 calc GR . . . .
H00E H 0.660341 0.017771 0.686058 0.046 Uiso 1 1 calc GR . . . .
H00F H 0.619194 0.112710 0.692328 0.046 Uiso 1 1 calc GR . . . .
C00Q C 0.7396(3) 0.02192(13) 0.49444(18) 0.0283(5) Uani 1 1 d . . . . .
H00G H 0.684482 0.019048 0.417283 0.042 Uiso 1 1 calc GR . . . .
H00I H 0.740429 -0.032318 0.527038 0.042 Uiso 1 1 calc GR . . . .
H00J H 0.851278 0.040637 0.502790 0.042 Uiso 1 1 calc GR . . . .
C00R C 0.6148(3) 0.31420(16) 0.0475(2) 0.0283(5) Uani 1 1 d . . . . .
H00K H 0.640(4) 0.338(2) -0.018(3) 0.075(11) Uiso 1 1 d . . . . .
H00M H 0.690(5) 0.279(2) 0.072(3) 0.058(11) Uiso 1 1 d . . . . .
H00N H 0.605(4) 0.359(2) 0.092(3) 0.075(11) Uiso 1 1 d . . . . .
loop_
_atom_site_aniso_label
_atom_site_aniso_U_11
_atom_site_aniso_U_22
_atom_site_aniso_U_33
_atom_site_aniso_U_23
_atom_site_aniso_U_13
_atom_site_aniso_U_12
Zn01 0.01820(14) 0.01583(14) 0.01126(13) -0.00171(7) 0.00013(9) -0.00035(9)
F002 0.0319(8) 0.0288(7) 0.0124(6) -0.0040(4) 0.0002(5) 0.0041(5)
F003 0.0232(7) 0.0211(6) 0.0276(7) -0.0010(5) -0.0002(5) 0.0058(5)
F004 0.0305(8) 0.0299(7) 0.0142(6) 0.0001(5) -0.0027(5) 0.0075(5)
F005 0.0340(8) 0.0259(7) 0.0238(7) -0.0088(5) 0.0045(6) 0.0063(5)
O006 0.0206(8) 0.0226(7) 0.0159(7) -0.0011(5) -0.0008(6) 0.0019(6)
O007 0.0185(8) 0.0205(7) 0.0175(7) -0.0057(5) 0.0019(6) -0.0013(6)
O008 0.0286(9) 0.0142(7) 0.0177(7) -0.0016(5) 0.0012(6) 0.0015(6)
O009 0.0206(8) 0.0183(7) 0.0199(7) 0.0003(5) -0.0063(6) 0.0007(6)
O00A 0.0236(8) 0.0258(8) 0.0156(7) -0.0026(5) 0.0045(6) -0.0047(6)
O00B 0.0174(8) 0.0259(8) 0.0180(7) -0.0028(5) 0.0041(6) 0.0007(6)
N00C 0.0231(10) 0.0162(8) 0.0168(8) -0.0009(6) 0.0009(7) 0.0025(7)
N00D 0.0222(10) 0.0185(8) 0.0168(9) -0.0033(6) 0.0059(7) -0.0028(7)
C00E 0.0127(10) 0.0157(9) 0.0151(9) -0.0013(7) 0.0023(8) -0.0017(7)
C00F 0.0191(11) 0.0144(9) 0.0088(8) 0.0022(6) 0.0008(8) 0.0013(8)
C00G 0.0132(10) 0.0153(9) 0.0138(9) -0.0007(7) 0.0001(8) -0.0031(7)
C00H 0.0196(11) 0.0152(9) 0.0193(10) -0.0029(7) 0.0016(8) -0.0007(8)
C00I 0.0196(11) 0.0176(10) 0.0107(9) -0.0007(7) -0.0015(8) -0.0024(8)
C00J 0.0191(11) 0.0190(10) 0.0106(9) 0.0022(7) 0.0035(8) 0.0015(8)
C00K 0.0215(11) 0.0139(9) 0.0186(10) -0.0060(7) 0.0046(8) -0.0002(8)
C00L 0.0205(11) 0.0158(9) 0.0188(10) -0.0014(7) 0.0049(8) -0.0007(8)
C00M 0.0148(10) 0.0128(9) 0.0223(10) 0.0018(7) 0.0000(8) 0.0015(8)
C00N 0.0183(11) 0.0173(10) 0.0122(9) 0.0005(7) -0.0018(8) -0.0029(8)
C00O 0.0301(13) 0.0254(11) 0.0150(10) 0.0004(8) 0.0055(9) -0.0024(9)
C00P 0.0500(16) 0.0210(11) 0.0176(10) 0.0035(8) 0.0037(10) 0.0088(10)
C00Q 0.0308(13) 0.0268(12) 0.0262(12) 0.0011(8) 0.0048(10) 0.0111(10)
C00R 0.0272(14) 0.0308(13) 0.0303(13) -0.0082(10) 0.0138(11) -0.0112(11)
loop_
_atom_type_symbol
_atom_type_description
_atom_type_scat_dispersion_real
_atom_type_scat_dispersion_imag
_atom_type_scat_source
C C 0.0033 0.0016 'International Tables Vol C Tables 4.2.6.8 and 6.1.1.4'
H H 0.0000 0.0000 'International Tables Vol C Tables 4.2.6.8 and 6.1.1.4'
F F 0.0171 0.0103 'International Tables Vol C Tables 4.2.6.8 and 6.1.1.4'
N N 0.0061 0.0033 'International Tables Vol C Tables 4.2.6.8 and 6.1.1.4'
O O 0.0106 0.0060 'International Tables Vol C Tables 4.2.6.8 and 6.1.1.4'
Zn Zn 0.2839 1.4301 'International Tables Vol C Tables 4.2.6.8 and 6.1.1.4'
loop_
_exptl_crystal_face_index_h
_exptl_crystal_face_index_k
_exptl_crystal_face_index_l
_exptl_crystal_face_perp_dist
-1 0 1 0.0622
0 -2 1 0.1661
0 1 0 0.1204
0 0 1 0.2170
0 0 -1 0.2170
1 -1 -1 0.0943
1 2 -2 0.1555
1 1 -2 0.1441
1 0 -2 0.1366
1 -1 -2 0.1380
1 -2 -2 0.1313
-1 2 2 0.1414
-1 2 1 0.1093
-1 0 2 0.1384
-2 1 2 0.0685
1 0 -1 0.0791
1 0 2 0.2620
1 2 2 0.2660
1 -1 2 0.2595
-1 1 -2 0.2542
0 -1 0 0.0843
-1 -2 1 0.0821
loop_
_geom_angle_atom_site_label_1
_geom_angle_atom_site_label_2
_geom_angle_atom_site_label_3
_geom_angle
_geom_angle_site_symmetry_1
_geom_angle_site_symmetry_3
_geom_angle_publ_flag
O007 Zn01 O006 110.17(6) . . ?
O007 Zn01 O009 113.34(6) . 4_565 ?
O007 Zn01 O00A 118.30(6) . . ?
O009 Zn01 O006 95.61(6) 4_565 . ?
O00A Zn01 O006 104.63(6) . . ?
O00A Zn01 O009 111.93(6) . 4_565 ?
C00H O006 Zn01 122.83(13) . . ?
C00F O007 Zn01 115.50(12) . . ?
C00J O009 Zn01 112.82(12) . 4_666 ?
C00L O00A Zn01 125.76(14) . . ?
C00H N00C C00P 121.86(17) . . ?
C00H N00C C00Q 121.05(17) . . ?
C00Q N00C C00P 117.05(17) . . ?
C00L N00D C00O 121.66(18) . . ?
C00L N00D C00R 120.35(18) . . ?
C00R N00D C00O 117.98(17) . . ?
C00G C00E C00F 121.31(17) . . ?
C00N C00E C00F 119.66(16) . . ?
C00N C00E C00G 118.97(17) . . ?
O007 C00F C00E 114.37(17) . . ?
O00B C00F O007 125.93(17) . . ?
O00B C00F C00E 119.69(17) . . ?
C00E C00G C00J 120.82(16) . . ?
C00I C00G C00E 118.50(17) . . ?
C00I C00G C00J 120.66(17) . . ?
O006 C00H N00C 123.30(18) . . ?
F002 C00I C00G 121.00(17) . . ?
F002 C00I C00K 117.23(16) . . ?
C00K C00I C00G 121.72(18) . . ?
O008 C00J O009 125.38(18) . . ?
O008 C00J C00G 119.29(18) . . ?
O009 C00J C00G 115.33(16) . . ?
F005 C00K C00I 120.27(17) . . ?
F005 C00K C00M 120.28(18) . . ?
C00M C00K C00I 119.45(17) . . ?
O00A C00L N00D 121.98(19) . . ?
F003 C00M C00K 120.24(17) . . ?
F003 C00M C00N 120.18(17) . . ?
C00K C00M C00N 119.58(18) . . ?
F004 C00N C00E 121.02(17) . . ?
F004 C00N C00M 117.23(17) . . ?
C00E C00N C00M 121.73(18) . . ?
loop_
_geom_bond_atom_site_label_1
_geom_bond_atom_site_label_2
_geom_bond_distance
_geom_bond_site_symmetry_2
_geom_bond_publ_flag
Zn01 O006 1.9974(14) . ?
Zn01 O007 1.9402(13) . ?
Zn01 O009 1.9602(14) 4_565 ?
Zn01 O00A 1.9543(14) . ?
F002 C00I 1.351(2) . ?
F003 C00M 1.342(2) . ?
F004 C00N 1.341(2) . ?
F005 C00K 1.348(2) . ?
O006 C00H 1.251(2) . ?
O007 C00F 1.283(2) . ?
O008 C00J 1.231(2) . ?
O009 C00J 1.275(2) . ?
O00A C00L 1.260(2) . ?
O00B C00F 1.226(2) . ?
N00C C00H 1.314(3) . ?
N00C C00P 1.462(3) . ?
N00C C00Q 1.454(3) . ?
N00D C00L 1.310(3) . ?
N00D C00O 1.467(3) . ?
N00D C00R 1.456(3) . ?
C00E C00F 1.522(2) . ?
C00E C00G 1.402(3) . ?
C00E C00N 1.376(3) . ?
C00G C00I 1.388(3) . ?
C00G C00J 1.513(3) . ?
C00I C00K 1.378(3) . ?
C00K C00M 1.371(3) . ?
C00M C00N 1.381(3) . ?
loop_
_refln_index_h
_refln_index_k
_refln_index_l
_refln_F_squared_meas
_refln_F_squared_sigma
0 0 -2 180.19 7.07
0 0 -2 160.08 6.72
0 0 3 3.82 1.07
0 0 -3 4.79 1.54
0 0 -3 5.62 1.56
0 0 -4 1446.3 45.53
0 0 4 1518.89 43.99
0 0 -4 1504.91 46.16
0 0 5 3.21 1.28
0 0 -5 0.84 2.04
0 0 -5 0.76 1.57
0 0 -6 3389.5 101.56
0 0 6 3440.34 99.33
0 0 -6 3579.22 102.78
0 0 7 -1.07 1.86
0 0 -7 3.1 2.52
0 0 -7 0.59 3.12
0 0 -8 2057.94 63.16
0 0 -8 1870.67 63.91
0 0 -9 -1.3 3.52
0 0 -10 2331.63 75
0 0 -11 0.78 3.97
0 0 -12 35.17 6.89
0 0 -13 13.26 5.14
0 0 -14 666.39 30.1
0 0 -15 -2.93 6.29
0 -1 -1 515.85 6.19
0 -1 1 545.96 7.34
0 1 -2 1774.81 49.42
0 -1 -2 1631.76 49.21
0 1 -2 1728.7 49.52
0 1 -2 1719.6 49.13
0 1 -3 163.03 7.64
0 -1 -3 162.24 7.68
0 1 -3 174.93 8.02
0 1 3 174.21 6.14
0 1 -4 134.76 7.22
0 1 -4 140.65 7.64
0 1 4 132.18 5.55
0 -1 4 141.66 6.83
0 1 -5 205.24 10.14
0 -1 -5 185.25 9.81
0 1 -5 195.76 10.29
0 1 5 190.48 7.92
0 -1 5 205.66 9.43
0 1 -6 309.37 13.85
0 -1 6 274.68 12.5
0 1 6 292.23 11.33
0 1 -6 281.98 14.18
0 -1 7 20.84 3.31
0 1 7 22.98 3
0 1 -7 17.65 4.19
0 1 -7 30.41 4.41
0 1 -8 1480.17 50.08
0 1 -8 1445.28 48.7
0 1 -9 173.38 11.48
0 1 -10 5.78 3.79
0 1 -11 401.8 20.55
0 1 -12 673.08 29.38
0 1 -13 32.64 6.8
0 1 -14 391.34 21.69
0 1 -15 -1.95 6.14
0 -2 0 2524.18 71.34
0 2 0 2517.16 71.26
0 -2 0 2591.03 71.29
0 2 -1 1383.54 36.56
0 2 -1 1312.33 36.67
0 -2 1 1292.72 37.75
0 2 -1 1242.97 37.59
0 2 -1 1189.01 36.95
0 -2 -1 1277.1 37.03
0 2 -2 1375.48 40.17
0 2 -2 1410.33 40.47
0 2 -2 1318.85 40.74
0 2 -2 1415.42 39.57
0 -2 -2 1361.3 39.5
0 2 3 3084.66 85.53
0 2 -3 3158.91 87.57
0 2 -3 3033.18 87.57
0 2 -3 3168.73 87.33
0 -2 -3 2992.58 85.29
0 2 -3 3007.54 85.35
0 2 4 849.44 25.61
0 -2 4 888.76 29.01
0 2 4 975.5 26.73
0 2 -4 915.18 29.06
0 2 -4 933.17 29.7
0 -2 -4 859.75 26.03
0 2 -4 884.49 26.14
0 2 -5 2097.06 58.87
0 2 -5 1902.2 54.24
0 -2 -5 1867.24 54.13
0 2 -5 1954.48 59.28
0 2 5 1917.28 54.53
0 -2 5 1959.24 58.3
0 2 6 4.13 1.25
0 -2 6 4.22 1.99
0 -2 -6 3.39 0.98
0 2 -6 3.27 0.92
0 2 -6 3.55 2.78
0 2 -6 1.33 1.96
0 2 -7 5.96 1.12
0 2 -7 7.69 3.7
0 2 -7 9.73 2.9
0 -2 7 7.22 2.61
0 2 -8 2832.99 85.04
0 2 -8 2703.43 86.04
0 2 -9 603.86 25.35
0 2 -10 1214.73 43.74
0 2 -11 134.33 11.08
0 2 -12 58.88 7.93
0 2 -13 38.52 7.16
0 2 -14 192.71 14.49
0 2 -15 -1.94 6.31
0 -3 0 0.5 0.88
0 3 0 1.9 0.97
0 -3 0 0.85 0.85
0 3 -1 637.05 18.61
0 -3 -1 620.81 18.54
0 3 -1 661.57 18.95
0 -3 -1 662.1 18.88
0 -3 1 657.02 20.83
0 3 -1 612.95 20.46
0 3 1 613.23 19.21
0 3 -1 605.66 20
0 -3 -1 681.76 20.24
0 3 -2 124.14 5.36
0 -3 -2 110.53 5.18
0 -3 -2 116.47 5.47
0 3 -2 117.87 5.51
0 3 -2 113.76 6.14
0 -3 2 126.4 6.5
0 -3 -2 116.21 5.39
0 3 -2 129.24 5.59
0 3 -3 738.86 24.03
0 -3 -3 689.58 23.29
0 3 -3 702.8 23.41
0 -3 -3 686.24 22.83
0 3 -3 742.27 23.13
0 3 -3 697.21 22.14
0 3 3 754.58 22.45
0 -3 -3 691.82 22
0 3 4 889.25 26.51
0 3 -4 796.54 28.41
0 3 -4 810.47 28.31
0 -3 -4 827.2 28.39
0 3 -4 856.28 27.97
0 -3 -4 825.28 27.81
0 3 -4 921.96 26.33
0 -3 -4 853.05 25.99
0 -3 5 614.42 21.86
0 3 5 600.9 18.81
0 3 -5 539.34 20.56
0 -3 -5 565.56 20.73
0 3 -5 562.17 18.05
0 -3 -5 546.01 17.88
0 -3 -5 537.69 21.25
0 3 -5 552.16 21.43
0 -3 -6 133.45 8.44
0 3 -6 141.32 8.69
0 3 -6 145.21 6.09
0 -3 -6 137.52 5.93
0 -3 -6 130.04 9.08
0 3 -6 145.56 9.42
0 -3 6 132.11 8.77
0 -3 7 17.4 3.79
0 3 -7 15.78 1.92
0 -3 -7 18.29 3.67
0 3 -7 18.84 4.06
0 3 -7 23.29 4.49
0 -3 -7 21.98 4.63
0 3 -8 107.73 8.65
0 -3 -8 100.68 8.22
0 -3 -8 86.51 8.51
0 3 -8 118.12 9.58
0 3 -8 107.7 4.8
0 -3 -9 608.12 25.46
0 3 -9 612.91 25.7
0 -3 -10 310.91 16.87
0 3 -10 297.44 16.66
0 -3 -11 97.02 9.31
0 3 -11 89.17 9.04
0 -3 -12 157.4 12.37
0 3 -12 148.94 12.11
0 -3 -13 103.55 10.28
0 3 -13 92.88 9.62
0 3 -14 688.7 31.11
0 -3 -14 736.17 31.77
0 -3 -15 80.94 10.5
0 3 -15 97.86 10.88
0 4 0 6602.31 186.36
0 -4 0 6779.94 186.31
0 -4 -1 4240.72 118.71
0 4 -1 4341.38 118.78
0 -4 -1 4356.87 121.53
0 4 -1 4538.22 121.65
0 -4 -1 4367.83 119.13
0 4 -1 4224.34 119.16
0 -4 1 4408.46 122.27
0 4 1 4238.2 120.41
0 4 2 1399.17 41.3
0 -4 2 1376.91 44.27
0 4 -2 1584.16 44.55
0 -4 -2 1477.21 42.3
0 -4 -2 1436.55 41.65
0 4 -2 1404.73 41.66
0 4 -2 1482.03 42.37
0 -4 -2 1485.16 43.01
0 4 -2 1399.93 42.95
0 4 -3 1862.45 50.88
0 -4 -3 1714.04 50.64
0 4 -3 1729.3 51.46
0 -4 -3 1721.84 51.35
0 4 -3 1771.1 52.77
0 4 3 1678.94 48.32
0 4 3 1722.7 50.95
0 -4 -3 1762.11 50.78
0 4 -3 1680.8 50.76
0 4 -4 976.36 31.42
0 -4 -4 975.46 31.36
0 4 -4 977.56 32.92
0 -4 -4 940.39 32.05
0 4 4 990.92 30.91
0 -4 -4 998.36 30.44
0 4 -4 1012.59 30.62
0 4 -4 997.14 32.4
0 -4 5 337.69 14.93
0 4 5 310.64 12.03
0 4 -5 319.12 11.69
0 -4 -5 283.06 11.28
0 4 -5 313.67 13.19
0 -4 -5 288.7 12.89
0 4 -5 285.45 13.62
0 -4 -5 288.37 13.63
0 -4 6 1825.51 56.04
0 4 6 1846.16 51.93
0 -4 -6 1707.43 53.83
0 4 -6 1723.06 53.88
0 -4 -6 1677.75 50.5
0 4 -6 1666.34 50.57
0 4 -6 1680.97 55.11
0 -4 -6 1757.31 55.33
0 -4 -7 168.51 10.03
0 4 -7 158.33 9.7
0 4 -7 150.42 7.07
0 -4 7 140.25 10.11
0 -4 -7 148.36 10.39
0 4 -7 167.5 10.88
0 -4 -8 1940.75 61.51
0 4 -8 1958.54 61.7
0 4 -8 1957.7 55.9
0 4 -8 1893.09 62.92
0 -4 -8 1817.05 62.65
0 4 -9 296.18 10.79
0 -4 -9 292.07 15.7
0 4 -9 330.57 16.55
0 4 -10 2125.24 69.01
0 -4 -10 2126.83 68.88
0 -4 -11 191.2 12.93
0 4 -11 165.31 12.21
0 4 -12 21.83 6.06
0 -4 -12 16.19 5.46
0 4 -13 63.11 8.31
0 -4 -13 46.18 7.6
0 4 -14 33.47 7.43
0 -4 -14 33.59 7.45
0 4 -15 107.27 11.39
0 -4 -15 117.33 12.32
0 5 0 0.29 1.16
0 -5 0 0.27 1.42
0 5 0 0.26 1.38
0 5 -1 102.76 3.68
0 -5 -1 112.41 6.19
0 5 -1 103.09 6.12
0 5 1 103.15 5.46
0 -5 1 104.06 6.45
0 5 -1 108.24 4.19
0 5 -2 11.01 2.07
0 -5 -2 16.75 2.46
0 5 -2 14.14 1.62
0 -5 -2 12.89 1.47
0 -5 -2 13.62 1.86
0 5 -2 13.43 1.82
0 5 2 12.83 1.82
0 -5 2 15.85 2.84
0 5 -2 16.4 2.75
0 -5 3 87.48 6.64
0 5 3 86.1 4.04
0 -5 -3 80.36 4.67
0 5 -3 79.42 4.7
0 -5 -3 93.5 5.47
0 5 -3 92.16 5.75
0 -5 -3 92.87 5.56
0 5 3 90.72 5.73
0 5 -3 82.78 5.51
0 5 -3 95.69 6.78
0 5 -4 1522.21 45.89
0 -5 -4 1437.14 45.64
0 5 -4 1601.55 48.72
0 5 -4 1543.55 47.17
0 -5 -4 1509.81 46.98
0 5 4 1522.87 46.44
0 -5 -4 1501.89 45.77
0 5 -4 1535.55 46.1
0 -5 -5 5624.27 161.43
0 5 -5 5570.35 161.4
0 5 5 5719.14 161.02
0 5 -5 5778.64 163.96
0 -5 -5 5772.96 160.22
0 5 -5 5683.57 160.4
0 5 -5 5777.5 163.14
0 -5 -5 5746.93 162.99
0 5 6 16.96 3.02
0 -5 6 16.56 3.99
0 -5 -6 21.52 2.81
0 5 -6 19.19 2.88
0 -5 -6 17.2 3.23
0 5 -6 26.19 3.72
0 -5 -6 15.08 3.79
0 5 -6 22.6 4.51
0 -5 -7 60.68 6.14
0 5 -7 48.21 5.31
0 5 -7 52.32 6.49
0 -5 -7 57.92 6.71
0 5 -7 51.8 4.24
0 -5 -8 208.87 12.01
0 5 -8 217.36 12.51
0 5 -8 201.95 9.12
0 5 -8 201.44 12.95
0 -5 -8 212.21 13.3
0 -5 -9 28.88 5.06
0 5 -9 29.58 5.21
0 5 -9 22.97 2.97
0 -5 -10 13.76 4.64
0 5 -10 13.79 4.74
0 5 -10 14.47 2.66
0 -5 -11 188.35 12.96
0 5 -11 209.06 13.44
0 5 -12 428.57 21.73
0 -5 -12 467.2 22.34
0 -5 -13 336.99 18.9
0 5 -13 346.35 19.25
0 -5 -14 120.82 11.73
0 5 -14 125.73 11.78
0 6 0 2703.07 76.33
0 -6 0 2576.85 75.81
0 6 0 2479.51 75.41
0 6 -1 349.33 14.38
0 -6 -1 377.59 14.41
0 6 1 338.06 13.38
0 -6 -2 968.64 29.05
0 6 -2 1030.04 29.22
0 6 -2 971.94 30.07
0 -6 -2 997.7 30.03
0 -6 -2 984.06 32.19
0 6 -2 1095.29 33.02
0 -6 2 1037.89 34.15
0 6 2 941.52 30.56
0 -6 3 2824.14 93.92
0 6 3 3156.61 89.59
0 -6 -3 3244.4 91.19
0 6 -3 3300.94 91.42
0 -6 -3 3264.17 90.05
0 6 -3 3092.9 89.96
0 6 -3 3456.09 94.5
0 6 -3 2917.17 91.88
0 -6 -3 3288.47 92.26
0 6 3 3218.14 92.64
0 6 4 76.38 3.7
0 6 -4 78.71 5.09
0 -6 -4 80.05 5.09
0 -6 -4 77.77 5.67
0 6 -4 72.12 5.61
0 6 -4 76.56 6.72
0 6 -4 79.73 5.77
0 -6 -4 68.88 5.27
0 6 4 77.58 5.83
0 6 -5 880.93 28.91
0 -6 -5 876.77 28.82
0 6 -5 902.04 30.52
0 -6 -5 870.01 30.16
0 6 5 862.86 29.26
0 6 -5 818.5 28.53
0 -6 -5 860.59 28.5
0 6 -5 813.91 30.99
0 6 -6 624.25 25
0 -6 -6 651.52 25.39
0 6 6 664.98 23.87
0 -6 -6 642.36 23.75
0 6 -6 673.61 24.09
0 -6 6 696.92 27.64
0 6 -6 647.33 22.86
0 -6 -6 643.42 22.68
0 6 -7 3527.72 106.96
0 -6 -7 3618.87 107.18
0 6 7 3754.61 106.34
0 6 -7 3600.35 104.82
0 -6 -7 3674.38 109.15
0 6 -7 3675.14 109.18
0 6 -8 23.92 3.36
0 -6 -8 24.84 5.55
0 6 -8 33.56 5.77
0 -6 -8 28 4.84
0 6 -8 19.88 4.52
0 6 -9 3281.38 91.01
0 6 -9 3002.15 95.11
0 -6 -9 3011.06 95.03
0 6 -10 202.59 9.1
0 6 -10 180.81 12.17
0 -6 -10 159.12 11.57
0 6 -11 157.51 11.54
0 -6 -11 134.83 10.67
0 -6 -12 54.16 7.23
0 6 -12 49.73 7.48
0 -6 -13 109.62 10.65
0 6 -13 118.45 11.07
0 -6 -14 -1.76 6.02
0 6 -14 0.88 5.41
0 7 0 -0.36 1.81
0 -7 0 1.54 1.95
0 7 0 0.41 2.01
0 -7 -1 74.44 5.75
0 7 -1 79.1 6.07
0 7 1 80.99 5.43
0 7 -1 70.02 5.72
0 -7 -2 3263.55 93.26
0 7 -2 3413.37 93.41
0 -7 -2 3413.83 94.54
0 7 -2 3282.29 94.58
0 -7 -2 3449.59 98.11
0 7 2 3221.92 96.04
0 7 3 1918.9 58.63
0 -7 3 1963.25 63.68
0 -7 -3 2049.38 59.54
0 7 -3 1983.57 59.56
0 -7 -3 1974.55 57.99
0 7 -3 2066.87 58.17
0 7 -3 2168.94 63.46
0 -7 -3 2024.09 61.32
0 7 -3 2225.16 62.15
0 7 3 1936.48 61.69
0 -7 4 103.65 8.45
0 -7 -4 111.11 6.87
0 7 -4 108.51 6.98
0 7 -4 96.96 5.65
0 -7 -4 93.01 5.6
0 7 -4 88.8 7.7
0 7 4 90.97 4.75
0 7 4 94.38 6.93
0 -7 -4 111.64 7.12
0 7 -4 99.68 6.96
0 -7 -5 2474.27 76.53
0 7 -5 2577.19 77.04
0 -7 -5 2486.9 74.84
0 7 -5 2520.97 75
0 7 5 2561.77 77
0 7 -5 2507.35 78.88
0 -7 -5 2618.22 75.95
0 7 -5 2660.29 76.32
0 7 -6 3.62 2.3
0 -7 -6 1.14 2.5
0 -7 -6 1.99 2.08
0 7 -6 -0.4 1.74
0 7 -6 0.54 2.88
0 -7 -6 1.58 2.85
0 7 6 3.21 2.4
0 7 7 1311.53 42.35
0 7 -7 1237.38 41.83
0 -7 -7 1301.53 42.07
0 7 -7 1296.92 44.27
0 -7 -7 1269.03 44.1
0 7 -7 1240.84 40.93
0 -7 -8 508.76 21.21
0 7 -8 562.21 22.02
0 -7 -8 522.6 23.43
0 7 -8 482.18 19.37
0 7 -9 1866.4 57.61
0 7 -9 1893.63 60.83
0 -7 -9 1913.51 60.83
0 7 -10 20.11 3.74
0 7 -10 14.98 4.49
0 -7 -10 20.1 4.98
0 7 -11 185.39 12.52
0 -7 -11 174.91 12.11
0 -7 -12 44.82 6.64
0 7 -12 50.18 7.02
0 -7 -13 1496.44 52.2
0 7 -13 1443.94 52.07
0 -7 -14 17.03 6.28
0 7 -14 23.81 7.22
0 8 0 66.15 5.64
0 -8 0 78.26 6.34
0 8 0 65.36 5.95
0 8 -1 991.3 33.32
0 8 1 945.08 31.8
0 8 -1 892.92 32.87
0 -8 -1 1032.67 33.35
0 -8 -2 23.13 2.22
0 8 -2 25.73 2.38
0 8 2 27.65 3.46
0 -8 -2 23.13 1.61
0 8 -2 24.67 1.73
0 8 -2 27.27 4.01
0 -8 -2 23.03 3.83
0 8 -3 139.09 6.09
0 -8 -3 137.71 5.97
0 8 -3 140.04 7.2
0 -8 -3 136.62 7.02
0 -8 -3 146.43 8.89
0 8 -3 129.47 8.61
0 8 3 164.91 9.61
0 8 3 135.08 7.15
0 -8 -4 165.29 8.58
0 8 -4 156.39 8.45
0 -8 -4 148.78 7.03
0 8 -4 147.13 6.98
0 8 -4 138.15 9.88
0 8 4 135.32 6.72
0 8 -4 114.34 8.4
0 8 4 146.91 9.33
0 -8 -4 136.28 8.73
0 -8 -5 251.77 12.33
0 8 -5 231.69 12.11
0 -8 -5 234.9 10.61
0 8 -5 234.42 10.66
0 8 5 249.77 13
0 8 -5 231.71 13.78
0 -8 -5 227.92 11.88
0 8 -6 1.87 2.92
0 8 6 6.26 2.98
0 8 -6 2.29 2.12
0 -8 -6 5.27 2.35
0 8 -6 0.55 2.63
0 -8 -6 -0.54 3.08
0 -8 -7 1183.54 39.52
0 8 -7 1145.52 39.45
0 8 7 1286.96 41.53
0 8 -7 1180.2 39.89
0 -8 -7 1191.56 42.15
0 8 -7 1263.3 42.63
0 8 8 24.75 4.83
0 8 -8 26.16 4.56
0 -8 -8 32.79 4.77
0 8 -8 35.22 4.96
0 -8 -8 32.63 6.1
0 8 -9 227.32 12.12
0 -8 -9 275.69 14.15
0 8 -9 262.26 13.87
0 8 -10 52.53 6.39
0 -8 -10 47.8 6.45
0 8 -10 44.61 5.59
0 8 -11 37.72 6.51
0 -8 -11 41.62 6.38
0 -8 -12 68.31 8.35
0 8 -12 66.36 8.09
0 8 -13 103.18 10.36
0 -8 -13 95.83 10.2
0 8 -14 -4.16 6.11
0 -8 -14 1.66 5.74
0 9 0 0.46 2.12
0 -9 0 0.5 2.51
0 9 0 0.54 2.39
0 -9 -1 578.26 21.97
0 9 1 525.87 20.33
0 9 -1 568.15 21.88
0 -9 -2 500.06 20.49
0 9 -2 547 21.38
0 -9 -2 499.37 14.55
0 9 -2 511.11 14.73
0 9 2 488.93 18.81
0 9 -2 464.14 20.53
0 -9 -2 495.42 15.62
0 9 -2 474.31 15.73
0 9 -3 197.24 8.8
0 -9 -3 209.58 8.85
0 9 3 191.31 9.33
0 9 3 178.92 11.13
0 9 -3 211.17 11.7
0 -9 -3 218.74 11.55
0 -9 -3 185.08 7.23
0 9 -3 187.54 7.35
0 -9 -4 1363.85 42.11
0 9 -4 1366.59 42.32
0 9 -4 1342.81 39.99
0 -9 -4 1305.61 39.78
0 9 -4 1327.14 46.11
0 9 -4 1320.66 44.37
0 -9 -4 1446.58 44.59
0 -9 -5 3203.84 92.79
0 9 -5 3203.43 92.89
0 -9 -5 3465.32 95.87
0 9 -5 3271.88 95.82
0 9 5 3292.32 97.81
0 -9 -5 3348.09 96.48
0 -9 -6 100.51 6.69
0 9 -6 109.63 6.92
0 9 -6 109.43 8.43
0 -9 -6 105.28 8.39
0 9 6 123.03 9.04
0 9 -6 124.27 8.77
0 9 -7 808.87 28.16
0 -9 -7 743.7 27.61
0 -9 -7 815.22 30.96
0 9 -7 785.11 30.73
0 9 7 802.56 30.58
0 9 -7 873.21 30.15
0 9 -8 364.12 16.8
0 -9 -8 411.61 17.26
0 -9 -8 423.17 20.08
0 9 8 379.99 18.5
0 9 -8 386.3 17.42
0 9 -9 222.45 12.27
0 9 -9 213.93 12.31
0 -9 -9 241.57 12.85
0 9 -10 59.4 6.78
0 -9 -10 54.52 6.5
0 9 -10 52.05 6.54
0 -9 -11 247.55 14.67
0 9 -11 299.37 15.89
0 9 -12 47.79 7.23
0 -9 -12 51.69 7.39
0 -9 -13 567.19 25.58
0 9 -13 575.7 25.85
0 10 0 712.09 27.95
0 10 0 698.31 26.5
0 10 -1 4467.53 125.56
0 10 -1 4222.49 124.31
0 10 1 4055.07 122.58
0 10 2 14.61 3.19
0 10 -2 17.26 4.17
0 10 -2 15.18 1.01
0 10 -2 6.63 3.13
0 -10 -2 14.7 4.08
0 10 -2 10.42 1.38
0 -10 -3 771.7 24.31
0 10 -3 749.64 24.42
0 10 -3 786.25 22.69
0 -10 -3 785.65 22.54
0 -10 -3 786.93 28.89
0 10 3 659.35 28.58
0 10 -3 611.93 27.72
0 10 -3 718.03 29.5
0 10 3 756.39 26.29
0 10 -4 14.41 3.93
0 -10 -4 14.09 2.2
0 10 -4 12.16 2.13
0 10 4 15.28 4.25
0 -10 -4 17.66 3.1
0 10 -4 11.96 2.87
0 -10 -5 175.27 8.24
0 10 -5 178.67 8.4
0 10 -5 190.94 10.55
0 -10 -5 180.15 10.24
0 10 -5 190.04 11.53
0 10 5 176.25 11.94
0 -10 -6 71.85 5.57
0 10 -6 72.71 5.61
0 10 -6 85.94 7.58
0 -10 -6 64.97 6.88
0 10 -6 82.86 7.64
0 10 6 75.01 7.82
0 10 -7 999.13 34.45
0 -10 -7 1053.8 34.59
0 -10 -7 1024.58 37.67
0 10 -7 1137.75 38.63
0 10 7 1057.87 38.59
0 10 -7 1047.99 37.43
0 10 8 107.94 9.37
0 -10 -8 89.43 7.12
0 10 -8 84.29 7.11
0 10 -8 94.44 8.09
0 10 9 409.91 20.14
0 10 -9 375.03 17.24
0 -10 -9 392.82 17.38
0 10 -9 376.86 17.94
0 10 -10 20.93 5.18
0 -10 -10 15.4 4.76
0 10 -10 13.9 4.45
0 10 -11 88.36 8.58
0 -10 -11 100.61 9.06
0 -10 -12 35.81 6.47
0 10 -12 23.88 5.83
0 -10 -13 2.9 4.92
0 10 -13 13.18 5.81
0 11 0 -0.56 3.1
0 11 0 0.69 3.05
0 11 -1 493.22 23.2
0 11 1 537.53 22.01
0 11 -2 1586.01 53.58
0 11 2 1575.97 50.66
0 11 -2 1591 53.29
0 11 -3 585.76 17.62
0 -11 -3 586.29 17.46
0 11 3 640.72 25.92
0 11 -3 591.92 25.18
0 11 -3 594.2 19.29
0 -11 -3 590.99 19.06
0 11 -4 1685.76 46.94
0 -11 -4 1518.93 46.56
0 -11 -4 1603.48 49.25
0 11 -4 1676.98 49.61
0 11 -4 1661.9 54.65
0 11 4 1644.96 55.04
0 -11 -5 1688.85 52.12
0 11 -5 1721.86 52.59
0 11 -5 1751.01 49.39
0 -11 -5 1582.39 48.94
0 11 5 1630.56 56.29
0 11 -5 1556.01 54.99
0 11 -6 151.22 10.05
0 -11 -6 148.21 9.97
0 -11 -6 139.76 7.7
0 11 -6 157.68 8.16
0 11 6 158.25 11.64
0 11 -6 163.04 11.44
0 11 -7 77.47 8.31
0 -11 -7 74 7.92
0 11 7 77.77 8.53
0 -11 -7 69.51 5.81
0 11 -7 94.89 6.51
0 11 -7 73.52 7.82
0 11 -8 18.23 4.92
0 11 8 14 5.09
0 -11 -8 11.39 5.03
0 11 -8 21.98 4.24
0 -11 -8 14.74 3.83
0 11 9 47.63 7.94
0 11 -9 55.91 7.32
0 -11 -9 50.9 6
0 11 -9 65.77 6.38
0 11 -10 609.78 24.48
0 -11 -10 630.02 24.52
0 11 -10 604.35 25.59
0 -11 -11 420.4 18.92
0 11 -11 383.08 18.68
0 -11 -12 541.85 23.64
0 11 -12 559.4 23.98
0 -11 -13 226.77 14.11
0 11 -13 211.67 14
0 12 0 249.67 15.15
0 12 0 224.89 13.46
0 12 -1 1169.08 40.26
0 12 1 950.02 36.1
0 12 -2 1068.01 40.36
0 12 2 1103.76 37.68
0 -12 -3 5.51 0.83
0 12 -3 8.02 1.09
0 12 3 0.76 3.44
0 12 -3 4.52 3.75
0 -12 -3 3.43 1.41
0 12 -3 3.53 1.58
0 -12 -4 6.02 1.4
0 12 -4 5.57 1.46
0 12 4 2.37 4
0 12 -4 -3.01 3.67
0 -12 -4 8.04 2.57
0 12 -4 4.4 2.41
0 12 -5 252.56 10.04
0 -12 -5 249.03 9.87
0 12 -5 259.79 12.54
0 -12 -5 269.22 12.46
0 12 -5 302.72 16.2
0 12 5 269.44 16.3
0 -12 -6 118.44 8.66
0 -12 -6 124.15 6.6
0 12 -6 108.77 6.38
0 12 6 114.54 10.44
0 12 -6 105.51 8.66
0 12 -6 104.94 9.69
0 12 7 2.47 3.79
0 12 -7 5.07 3.86
0 12 -7 0.34 2.79
0 -12 -7 1.65 2.35
0 -12 -7 4.82 3.8
0 12 -7 6.21 4.29
0 12 8 20.44 6.34
0 12 -8 25.23 5.71
0 -12 -8 19.85 3.94
0 12 -8 22.84 4.11
0 -12 -8 29.88 6.06
0 12 -9 794.33 31.85
0 12 -9 802.71 28.62
0 -12 -9 789.06 28.39
0 12 9 810.78 33.81
0 -12 -10 834.98 30.42
0 12 -10 851.55 30.73
0 12 -10 847.55 33.24
0 -12 -11 56.35 6.71
0 12 -11 55.96 7.23
0 12 -12 3.15 4.95
0 -12 -12 1.22 4.95
0 13 0 1.64 3.77
0 13 -1 26.2 6.3
0 13 -2 947.49 37.38
0 13 3 214.61 14.34
0 13 -3 188.64 13.69
0 -13 -4 1020.27 30.13
0 13 -4 1022.88 30.35
0 -13 -4 1126.07 32.38
0 13 -4 1092.64 32.67
0 13 -4 1065.59 40.55
0 13 4 1072.38 41.07
0 13 -5 2.98 2.65
0 -13 -5 4.26 2.82
0 13 5 6.13 4.8
0 13 -5 2.41 4.07
0 13 -5 5.16 1.84
0 -13 -5 2.58 1.42
0 13 -6 621.06 20.31
0 -13 -6 593.68 20.01
0 13 -6 578.47 26.62
0 -13 -6 604.46 23.5
0 13 6 620.94 28.06
0 13 -7 3.17 4.34
0 13 7 5.38 5.27
0 -13 -7 5.86 2.5
0 13 -7 9.16 3.09
0 -13 -7 8.67 4.32
0 -13 -8 105.13 6.95
0 13 -8 108.23 7.1
0 13 -8 107.37 10.31
0 -13 -8 101.49 9.68
0 13 8 124.65 12.2
0 13 9 187.34 14.77
0 13 -9 194.01 13.9
0 -13 -9 198.1 10.48
0 13 -9 176.78 10.21
0 13 -10 16.3 5.77
0 -13 -10 14.17 4.01
0 13 -10 26.25 4.65
0 -13 -11 110.49 8.78
0 13 -11 101.83 8.77
0 14 0 853.99 35.54
0 14 -1 31.84 6.34
0 14 -2 398.73 21.5
0 14 2 416.69 22.1
0 14 -3 14.94 5.8
0 14 3 12.94 5.97
0 -14 -4 251.69 8.01
0 14 -4 277.24 8.4
0 -14 -4 241.36 8.74
0 14 -4 287.81 17.25
0 14 4 300.87 18.36
0 14 -5 270.08 9.76
0 -14 -5 276.64 9.6
0 -14 -5 295.43 12.03
0 14 -5 294.47 17.38
0 14 5 316.43 18.74
0 -14 -6 71.82 6.33
0 14 -6 56.56 4.1
0 -14 -6 52.98 3.75
0 14 -6 65.56 8.54
0 14 6 59.88 8.9
0 14 -7 17.28 5.65
0 14 7 19.56 6.78
0 14 -7 15.93 2.95
0 -14 -7 15.83 2.99
0 14 8 218.52 16.22
0 14 -8 190.87 14.44
0 -14 -8 202.83 9.65
0 14 9 171.49 14.8
0 14 -9 153.95 13.23
0 -14 -9 160.83 9.05
0 -14 -10 88.7 6.97
0 14 -10 84.73 10.05
0 -14 -11 48.64 5.96
0 15 0 -1.91 4.93
0 15 -1 266.61 17.61
0 15 -2 681.92 32.38
0 15 2 863.06 35.11
0 15 -3 8.5 4.96
0 15 3 13.15 5.56
0 15 -4 477.36 24.44
0 15 4 468.74 25.1
0 -15 -5 18.46 1.78
0 15 -5 5.62 4.85
0 15 5 15.18 5.88
0 -15 -5 14.22 2.67
0 -15 -6 871.37 26.83
0 15 6 954.62 38.89
0 15 -6 980.08 38.04
0 -15 -7 29.31 3.35
0 15 -7 18.06 6.67
0 15 7 37.24 8.59
0 15 8 78.11 10.93
0 15 -8 69.8 9.67
0 -15 -8 57.01 4.72
0 15 -9 37.82 8.28
0 15 9 38.69 8.84
0 -15 -9 44.87 4.88
0 15 -10 76.38 10.35
0 -15 -10 48.77 5.28
0 16 0 1692.65 61.53
0 16 -1 185.74 14.91
0 16 -2 97.97 11.11
0 16 2 100.37 11.4
0 16 -3 17.28 6.46
0 16 3 46.81 8.35
0 16 -4 7.1 5.57
0 16 4 9.81 6.24
0 16 5 3.28 5.63
0 16 -5 1.02 5.17
0 16 6 673.65 32.36
0 16 -6 668.19 31.4
0 16 7 43.41 9.21
0 16 -7 51.74 9.38
0 16 -8 654.42 31.62
0 16 8 734.74 34.23
0 16 -9 23.96 7.76
0 16 9 14.21 7.89
0 17 0 4.51 5.62
0 17 -1 78.31 10.69
0 17 2 168.88 14.99
0 17 -2 177.96 15.43
0 17 3 142.03 14.31
0 17 -3 121.85 12.88
0 17 4 300.41 20.17
0 17 -4 257.31 18.37
0 17 -5 40.88 8.43
0 17 5 24.6 8.29
0 17 6 309.2 21.28
0 17 -6 347.22 21.71
0 17 7 1.22 6.79
0 17 -7 7.74 6.98
0 17 8 -3.75 7.16
0 17 -8 -1.1 5.85
0 18 0 67.01 10.91
0 18 -1 486.66 27.31
0 18 2 426.53 24.87
0 18 -2 365.84 23.28
0 18 3 129.41 14.18
0 18 -3 142.74 14.7
0 18 -4 2.39 6.46
0 18 4 2.48 6.79
0 18 -5 10.72 6.73
0 18 5 17.62 8.46
0 18 6 203.78 17.78
0 18 -6 178.96 16.22
0 18 7 509.98 28.67
0 18 -7 430.24 25.83
0 19 0 2.59 7.09
0 19 -1 25.72 9.78
0 19 -2 37.15 9.24
0 19 2 45.04 9.9
0 19 -3 377.4 24.44
0 19 3 358.86 23.96
0 19 -4 237.23 19.07
0 19 4 253.24 19.97
0 19 -5 66.98 11.57
0 19 5 50.76 10.48
0 20 0 296.84 22.11
0 20 -1 10.9 8.01
0 20 2 67.18 12.32
0 20 -2 40.61 10.44
0 20 3 67.8 11.79
0 20 -3 68.72 11.83
1 0 -15 46.65 7.68
1 0 -14 5.59 4.51
1 0 -13 104.84 9.98
1 0 -12 1.4 3.61
-1 0 11 376.31 17.23
1 0 -11 322.65 17.24
1 0 -10 0.59 2.97
-1 0 10 -0.54 3.11
-1 0 9 3462.76 96.73
1 0 -9 3017.62 96.34
-1 0 8 1.75 2.1
1 0 -8 1.78 3.2
1 0 -8 0.93 1.87
-1 0 7 20.63 3.55
1 0 -7 14.8 3.78
-1 0 7 20.03 4.68
1 0 -7 15.82 3.02
1 0 -6 0.34 1.37
-1 0 6 5.94 2.54
1 0 -5 3.35 1.53
-1 0 5 3.97 1.98
-1 0 4 -0.54 1.44
1 0 -4 -0.64 1.05
-1 0 3 3962.88 111.67
1 0 -3 3995.68 111.19
-1 0 2 1.96 0.73
1 0 -2 2.09 0.69
-1 0 1 9188.02 250.47
1 0 -1 9086.2 250.56
1 0 0 5.66 0.88
-1 0 0 4.96 0.79
1 0 1 650.06 20.96
-1 0 -1 681.72 20.97
-1 0 -2 1.83 1.33
1 0 2 0.54 1.13
-1 0 -3 1136.06 36.76
1 0 3 1163.3 36.82
-1 0 -4 2.14 2.17
1 0 4 1.73 1.95
-1 0 -4 -0.46 1.4
-1 0 -5 2437.78 70.93
1 0 5 2487.14 74.77
-1 0 -5 2391.61 74.64
-1 0 -6 0.6 1.68
1 0 6 1.79 2.69
-1 0 -6 2.97 3.06
-1 0 -7 916.34 35.56
-1 0 -7 1004.49 36.15
1 0 7 948.04 35.9
-1 0 -8 -0.74 4.24
-1 0 -8 1.09 1.3
-1 0 -9 359 18.51
-1 0 -9 282.02 9.44
-1 0 -10 6.08 5.04
-1 0 -11 400.48 21.97
-1 0 -12 -2.95 5.31
-1 0 -13 575.93 28.81
-1 0 -14 5.5 6.13
1 1 -15 569.5 26.46
1 1 -14 4 4.32
1 1 -13 422.46 21.06
1 1 -12 64.3 8.24
1 1 -11 128.08 10.05
-1 1 11 129.52 9.11
-1 -1 11 134.43 10.09
1 1 -10 98.45 8.23
-1 -1 10 88.21 7.84
-1 1 10 91.69 7.26
1 1 -9 950.9 34.72
-1 1 9 1019.39 33.8
-1 -1 9 1009.31 35.4
1 1 -8 938.57 33.94
1 1 -8 964.61 35.83
-1 1 8 1018.07 33.27
1 1 -7 2005.1 62.77
1 1 -7 1856.76 63.8
-1 -1 7 2224.81 64.1
-1 1 7 2258.89 66.09
-1 1 6 1752.8 52.63
1 1 -6 1573.27 50.13
-1 1 5 15.92 2.89
1 1 -5 11.98 2.11
-1 -1 4 620.63 19.01
1 1 -4 669.32 21.08
1 -1 -4 636.12 20.93
-1 -1 3 2153.05 61.55
1 -1 -3 2116.33 62.16
1 1 -3 2273.94 62.31
-1 1 3 2228.75 62.8
-1 1 2 3337.41 87.98
1 1 -2 3193.5 87.66
-1 1 1 702.11 20.1
1 1 -1 744.12 20.27
-1 1 0 244.18 8.28
1 -1 0 247.79 8.5
1 1 0 260.37 8.51
1 -1 1 1080.4 34.16
1 1 1 1169.28 34.27
-1 1 -1 1196.36 34.29
1 -1 2 48.02 3.83
1 1 2 50.67 3.84
-1 1 -2 46.24 3.76
-1 1 -3 207.32 10.09
1 -1 3 198.23 9.95
-1 1 -4 490.85 17.65
-1 -1 -4 490.5 16.12
1 1 4 501.92 19.45
-1 1 -4 493.23 19.48
1 -1 4 472.25 19.21
-1 1 -5 2270.58 67.43
-1 -1 -5 2350.92 65.73
1 1 5 2276.47 70.31
1 -1 5 2214.08 70.16
-1 1 -5 2196.98 70.06
-1 1 -6 2713.54 77.6
-1 1 -6 2581.75 80.96
1 -1 6 2621.82 81.03
-1 -1 -6 2559.08 75.53
1 1 6 2670.99 81.17
-1 1 -7 6.76 3.66
1 1 7 12.89 3.99
1 -1 7 10.2 3.9
-1 1 -7 6.1 2.72
-1 1 -7 8.05 4
-1 -1 -7 9.15 1.91
-1 1 -8 112.23 9.83
-1 -1 -8 97.08 4.78
-1 -1 -9 694.96 21.18
-1 1 -9 830.13 31.69
-1 1 -10 208.5 14.6
-1 1 -11 1164.85 44.94
-1 1 -12 236.99 16.69
-1 1 -13 585.55 29.04
-1 1 -14 2.19 5.46
1 2 -15 7.58 5.55
1 2 -14 0.8 3.74
1 2 -13 182.83 12.86
1 2 -12 275.36 15.64
-1 -2 11 701.15 28.61
-1 2 11 659.45 24.85
1 2 -11 687.89 27.6
-1 -2 10 104.37 9.09
-1 2 10 113.19 7.35
1 2 -10 112.54 8.92
-1 -2 9 2345.19 73
-1 2 9 2293 69.25
1 2 -9 2340.84 71.81
1 2 -8 5.36 3.46
-1 -2 8 10.54 3.39
-1 2 8 5.65 2.17
1 2 -8 8.86 2.88
1 2 -7 912.64 32.36
1 2 -7 838.08 30.36
1 2 -6 60.29 4.81
-1 2 6 75.19 6.3
-1 -2 6 66.66 5.82
-1 2 6 60.55 3.03
-1 2 5 1339.76 38.8
-1 -2 5 1298.97 38.75
-1 2 5 1428.41 42.99
1 2 -5 1445.67 41.5
-1 2 4 3953.78 104.92
1 2 -4 3960.59 103.86
-1 -2 3 7151.9 195.92
-1 2 3 6856.88 196.49
1 2 -3 7222.7 196.04
1 2 -2 7830.33 214.94
-1 2 2 7807.97 215.21
1 2 -1 7621.2 205.26
-1 2 1 7348.03 205.13
1 2 0 36.02 2.19
-1 2 0 34.99 2.04
-1 -2 0 37.04 2.83
-1 2 -1 5520.25 154.69
1 2 1 5605.88 154.81
-1 2 -2 496.54 17.52
1 2 2 504.37 17.65
-1 -2 -3 40.53 3.1
1 2 3 36.7 3.71
-1 2 -3 39.6 3.97
1 2 4 99.6 6.83
-1 -2 -4 92.1 4.94
-1 2 -4 80.7 6.38
-1 -2 -4 82.21 3.9
-1 2 -4 99.01 6.23
1 2 5 837.73 30.4
-1 -2 -5 885.44 26.54
-1 2 -5 850.64 30.67
-1 2 -5 894.12 29.11
-1 -2 -5 804.94 25.29
1 2 6 221.07 12.59
-1 2 -6 219.58 10.95
-1 -2 -6 207.11 8.57
-1 2 -6 204.11 12.41
-1 2 -7 2360.79 67.99
1 2 7 2265.37 70.96
-1 2 -7 2225.1 70.88
-1 -2 -7 2116.02 63.38
-1 2 -7 2232.33 70.76
-1 2 -8 192.66 12.78
-1 -2 -8 175.53 7.39
-1 -2 -9 541.83 17.24
-1 2 -9 542.34 17.36
-1 2 -10 53.1 2.64
-1 2 -10 56.6 7.83
-1 2 -11 35.88 7.25
-1 2 -12 354.3 20.73
-1 2 -13 454.52 24.76
-1 2 -14 3.27 5.98
1 -3 -15 197.31 14.12
1 3 -15 173.4 13.58
1 -3 -14 76.58 9.12
1 3 -14 94.05 9.4
1 -3 -13 145.64 11.43
1 3 -13 165.82 12.12
1 -3 -12 317.34 16.99
1 3 -12 305.66 16.9
-1 3 11 105.36 7.05
-1 -3 11 118.6 10.41
1 3 -11 125.92 9.85
1 -3 -11 119.81 9.79
-1 3 10 1095.8 36.18
1 3 -10 1111.45 39.59
1 -3 -10 1155.34 39.8
-1 -3 9 79.2 7.92
-1 3 9 70.74 5.23
1 -3 -9 67.29 6.45
1 3 -9 68.65 6.86
1 3 -8 127.79 9.8
1 -3 -8 127.48 9.69
-1 3 8 123.18 6.98
1 3 -8 137.6 8.73
1 -3 -8 153.12 9.06
-1 -3 8 149.61 10.17
-1 3 7 5271.13 143.75
1 -3 -7 4935.58 149.23
1 3 -7 5098.07 149.39
1 3 -7 5297.75 147.72
1 -3 -7 5199.82 147.58
-1 -3 7 4941.19 149.77
-1 3 6 604.43 19.36
-1 -3 6 641.2 23.93
-1 3 6 650.93 23.69
1 3 -6 585.96 21.46
1 -3 -6 622.19 21.71
-1 -3 6 579.49 23.22
-1 -3 5 1591.44 45.17
-1 3 5 1512.74 45.04
1 3 -5 1465.48 45.17
-1 -3 5 1556.98 49.19
-1 3 5 1640.72 48.41
1 -3 -5 1510.4 46.41
-1 -3 5 1573.41 48.19
1 3 -5 1584.92 46.6
1 3 -4 1424.92 42.84
-1 -3 4 1428.18 42.62
-1 3 4 1482.13 42.82
1 3 -4 1513.77 43.22
-1 3 4 1454.89 44.14
1 -3 -4 1427.18 42.98
-1 -3 4 1460.95 44.18
1 3 -3 129.98 6.1
1 3 -3 123.54 5.42
1 -3 -3 125.98 5.44
-1 -3 3 124.12 5.91
-1 -3 3 131.69 6.06
-1 3 3 126.68 5.94
1 3 -2 2658.69 76.82
-1 -3 2 2705.06 75.32
-1 3 2 2702.29 75.31
1 -3 -2 2640.39 74.85
1 3 -2 2726.62 74.94
1 3 -1 2758.37 80.39
-1 -3 1 2768.43 77.95
-1 3 1 2823.38 77.96
1 -3 -1 2837.2 78.05
1 3 -1 2864.6 78.12
1 3 0 237.46 8.12
1 -3 0 233.93 8.16
-1 3 0 231.61 7.8
-1 -3 0 229.62 7.72
-1 -3 0 253.62 9.68
1 3 0 253.36 9.86
-1 3 -1 9233.75 263.39
1 -3 1 9662.15 263.77
1 3 1 9631.83 263.7
-1 -3 -1 9600.64 263.43
-1 -3 -1 9670.32 264.22
-1 3 -2 1409.59 42.96
-1 -3 -2 1384.5 42.81
-1 -3 -2 1456.45 42.51
1 -3 2 1435.65 43.06
1 3 2 1410.57 42.96
-1 3 -3 1814.98 54.7
1 3 3 1821.13 54.59
-1 -3 -3 1821.68 54.6
1 -3 3 1832.99 54.69
-1 3 -3 1718.32 54.55
-1 -3 -3 1783.15 52.76
1 3 4 438.26 17.35
1 -3 4 394.37 16.89
-1 -3 -4 426.1 17.39
-1 3 -4 430.15 17.45
-1 3 -4 431.81 16.94
-1 -3 -4 391.88 14.61
1 -3 5 3651.75 104.23
1 3 5 3436.54 103.82
-1 3 -5 3479.9 104.04
-1 -3 -5 3460.9 104.05
-1 3 -5 3592.26 102.93
-1 -3 -5 3464.96 99.63
-1 3 -6 91.14 7.99
-1 -3 -6 109.15 8.64
1 3 6 108.44 8.57
1 -3 6 106.62 8.44
-1 3 -6 97.38 7.35
-1 -3 -6 105.08 5.81
-1 3 -7 461.42 21.23
-1 -3 -7 423.31 20.75
-1 -3 -7 452.88 15.84
-1 3 -7 462.06 19.35
-1 -3 -7 425.23 20.62
-1 3 -7 484.91 21.35
-1 -3 -8 1.3 1.53
-1 3 -8 5.61 3.21
-1 3 -8 -0.72 3.79
-1 -3 -8 2.9 3.13
-1 3 -9 765.98 24.57
-1 -3 -9 772.54 24.44
-1 3 -9 832.89 32.92
-1 -3 -9 874.33 33.39
-1 -3 -10 627.02 18.96
-1 3 -10 656.34 28.43
-1 -3 -10 691.39 28.8
-1 3 -11 1123.03 43.3
-1 -3 -11 1085.91 42.86
-1 -3 -12 125.89 12.13
-1 3 -12 114.43 11.5
-1 3 -13 96.37 11
-1 -3 -13 96.17 11.17
-1 3 -14 65.8 9.95
-1 -3 -14 67.39 10.44
1 4 -15 18.29 6.23
1 -4 -15 20.71 6.54
1 -4 -14 50.8 7.64
1 4 -14 42.26 6.86
1 -4 -13 29.15 5.93
1 4 -13 16.11 5
1 4 -12 953.82 36.74
1 -4 -12 1040.76 37.41
1 4 -11 727.41 28.75
1 -4 -11 716.88 28.51
-1 -4 11 723.31 31.3
1 4 -10 1452.19 50.15
1 -4 -10 1523.22 50.41
-1 4 10 1502.33 45.79
1 -4 -9 662.87 25.57
1 4 -9 638.77 25.41
-1 -4 9 697.63 28.64
-1 4 9 679.62 22.14
-1 4 8 939.3 28.15
1 4 -8 833.93 32.81
1 -4 -8 856.97 32.91
-1 -4 8 954.38 34.69
1 4 -8 842.28 30.86
1 -4 -8 895.57 31.17
1 4 -7 55.63 4.08
1 -4 -7 45.49 5.46
1 4 -7 51.91 5.75
-1 -4 7 43.76 5.67
-1 4 7 53.44 3.86
1 -4 -7 49.88 4.99
1 4 -7 50.29 4.81
1 4 -6 290.86 12
1 -4 -6 262.16 11.67
-1 4 6 266.3 13.21
-1 -4 6 274.76 13.44
1 4 -6 260.6 10.77
-1 4 6 273.19 10.72
1 4 -6 248.15 12.57
-1 -4 6 274.18 14.12
-1 4 5 58.72 5.23
1 4 -5 58.37 4.37
1 -4 -5 52.96 4.13
-1 -4 5 57.56 5.06
-1 4 5 61.33 4.15
-1 -4 5 54.6 4
1 4 -5 61.12 4.22
1 -4 -4 3460.48 96.55
-1 -4 4 3591.23 98.12
1 4 -4 3342.78 96.53
-1 4 4 3323.23 97.7
1 4 -4 3372.13 97.16
-1 4 4 3392.29 97.21
-1 -4 4 3445.81 97.21
1 4 -3 334.31 11.25
1 -4 -3 325.71 11.16
-1 4 3 335.18 12.72
-1 -4 3 321.96 11.98
-1 4 3 323.25 11.92
-1 -4 3 354.53 14.47
1 4 -3 310.09 12.4
-1 -4 2 1208.03 34.58
-1 4 2 1207.41 34.5
1 4 -2 1168.59 36.54
1 4 -2 1212.08 34.1
1 -4 -2 1165.87 34
1 4 -1 2305.93 68.32
1 -4 -1 2393.35 65.34
1 4 -1 2379.79 65.32
-1 4 1 2311.01 65.11
-1 -4 1 2328.21 65.14
-1 -4 0 4802.36 129.52
1 4 0 4582.9 126.93
1 -4 0 4521.99 127.02
1 4 0 4194.54 129.26
-1 -4 0 4632.95 126.29
-1 4 0 4621.08 126.38
1 4 1 7254.17 198.97
1 -4 1 7115.23 198.96
-1 -4 -1 7036.8 200.21
-1 4 -1 7122.61 198.54
-1 -4 -1 7296.79 198.51
1 -4 2 179.11 8.34
1 4 2 183.43 8.39
-1 -4 -2 171.78 8.27
-1 -4 -2 180.29 8.23
-1 4 -2 186.93 8.37
-1 4 -3 1136.22 37.09
1 4 3 1115.37 36.12
1 -4 3 1118.87 36.11
-1 4 -3 1162.73 36.43
-1 -4 -3 1103.22 36.06
-1 -4 -3 1126.01 35.09
-1 4 -4 3225.38 94.61
-1 -4 -4 3150.93 94.41
-1 4 -4 3197.33 94.63
-1 -4 -4 3214.86 91.97
1 4 4 3241.48 94.27
1 -4 4 3185.61 94.29
-1 -4 -5 1563.92 51.01
-1 4 -5 1541.6 51.09
-1 4 -5 1600.25 50.76
-1 -4 -5 1553.53 47.41
1 -4 5 1641.28 51.21
1 4 5 1583.09 50.99
-1 4 -6 3039.54 92.66
-1 -4 -6 2960.33 92.3
1 -4 6 3122.7 92.69
1 4 6 3083 92.65
-1 4 -6 3082.79 91.42
-1 -4 -6 2993.59 87.41
-1 4 -7 437.19 18.81
-1 4 -7 405.59 19.7
-1 -4 -7 361.42 18.94
-1 -4 -7 414.53 19.5
-1 4 -7 418.51 19.66
-1 -4 -7 393.74 14.94
-1 -4 -8 1008.08 37.86
-1 4 -8 995.7 37.66
-1 4 -8 1040.04 36.73
-1 -4 -8 983.89 31.48
-1 4 -8 1014.74 31.84
-1 4 -9 166.41 12.2
-1 -4 -9 184.53 12.91
-1 -4 -9 144.28 7.33
-1 4 -9 165.14 7.75
-1 -4 -10 37.98 6.89
-1 4 -10 39.42 7.07
-1 4 -10 41.82 3.59
-1 -4 -10 47.12 3.73
-1 4 -11 393 21.36
-1 -4 -11 364.03 20.59
-1 4 -12 59.78 8.88
-1 -4 -12 70 9.58
-1 4 -13 3.07 5.7
-1 -4 -13 3.1 5.41
-1 -4 -14 264.39 18.47
-1 4 -14 273.57 18.67
1 -5 -15 229.81 15.26
1 5 -15 193.75 14.3
1 -5 -14 420.09 21.03
1 5 -14 431.07 21.28
1 5 -13 333.21 18.01
1 -5 -13 344.22 18.05
1 5 -12 15.4 5.02
1 -5 -12 16.66 4.99
1 5 -11 22.8 4.5
1 -5 -11 26.33 4.66
-1 -5 11 22.65 5.99
-1 5 10 180.28 7.52
-1 -5 10 167.85 13.33
1 -5 -10 194.4 11.59
1 5 -10 198.59 11.95
-1 5 9 820.91 25.44
-1 -5 9 889.15 34.24
1 -5 -9 872.61 30.38
1 -5 -8 237.44 13.74
1 5 -8 238.75 13.76
-1 5 8 256.44 10.94
1 5 -8 270.44 11.07
-1 -5 8 266.93 15.42
1 5 -8 259.59 12.76
1 -5 -8 248.21 12.4
1 -5 -7 25.12 3.75
1 5 -7 26.17 3.6
-1 -5 7 16.92 4.36
1 5 -7 23.96 3.22
-1 5 7 23.25 3.08
1 -5 -7 15.89 3.84
1 5 -7 21.88 4.27
1 5 -6 371.78 16.03
1 -5 -6 352.57 15.74
1 -5 -6 343.46 14.18
1 5 -6 355.26 14.35
-1 -5 6 395.03 18.07
1 5 -6 373.71 14.21
-1 5 6 355.76 14.19
-1 -5 6 394.06 16.67
-1 -5 5 133.69 7.21
-1 5 5 135.49 7.33
1 5 -5 128.86 7.1
1 -5 -5 125.96 6.69
-1 -5 5 144 8.27
-1 5 5 143.91 8.29
1 5 -5 140.05 6.96
-1 5 4 3974.73 114.01
-1 -5 4 3905.18 113.69
1 -5 -4 3901.03 112.08
1 5 -4 3924.49 112.17
-1 -5 4 3958.47 116.82
-1 -5 4 3919.7 113.71
-1 5 4 3936.61 113.64
-1 -5 3 1227.74 36.89
-1 5 3 1243.52 36.78
1 5 -3 1268.61 35.72
1 -5 -3 1271.03 35.67
-1 -5 3 1097.06 37.74
-1 5 3 1313.61 38.65
1 5 -3 1031.5 37.57
-1 -5 3 1320.82 40.62
-1 -5 2 2721.84 79.92
1 -5 -2 2656.83 75.06
1 5 -2 2734.81 75.18
1 5 -2 2511.7 78.46
-1 5 2 2660.49 75.63
-1 -5 2 2831.6 75.85
-1 -5 1 7.93 2.12
-1 -5 1 6.29 0.87
1 5 -1 3.8 1.5
-1 5 1 7.16 0.83
1 -5 -1 6.11 0.83
1 5 -1 6.8 0.9
1 5 0 216.32 7.55
1 -5 0 202.76 7.54
-1 -5 0 216.75 9.5
-1 5 0 206.87 6.84
-1 -5 0 208.34 6.76
1 -5 1 937.63 28.08
1 5 1 959.82 28.06
-1 -5 -1 895.87 27.36
-1 5 -1 885.66 27.44
-1 -5 -1 897.24 28.41
-1 -5 -1 912.67 29.67
-1 5 -2 792.3 27.94
-1 -5 -2 764.52 24.25
1 -5 2 812.25 25.81
1 5 2 819.53 25.73
-1 -5 -2 811.58 26.42
-1 5 -2 808.4 25.67
-1 -5 -2 748.29 25.35
1 5 3 4126.79 115.56
-1 -5 -3 4008.16 115.7
-1 5 -3 3908.52 115.62
-1 5 -3 3834.57 117.01
-1 -5 -3 4022.32 111.78
1 5 3 4139.98 116.28
-1 -5 -3 3969.51 115.05
1 -5 3 4204.56 115.81
-1 -5 -4 1428.08 46.08
-1 5 -4 1468.05 46.39
-1 5 -4 1364.88 46.71
1 -5 4 1495.72 46.17
1 5 4 1451.66 45.94
-1 -5 -4 1444.97 44.51
1 -5 5 13.2 3.28
1 5 5 9.49 2.75
-1 -5 -5 8.32 3.21
-1 5 -5 3.69 2.9
-1 5 -5 5.87 2.76
-1 -5 -5 7.17 2.44
1 -5 6 405.94 18.42
-1 5 -6 392.61 18.46
-1 -5 -6 373.55 18.24
-1 -5 -6 402.35 18.27
-1 5 -6 416.22 15.78
-1 -5 -6 378.56 15.18
-1 5 -6 408.11 18.45
-1 5 -6 362.49 17.62
-1 5 -7 3.46 3.8
-1 -5 -7 3.43 3.81
-1 5 -7 4.09 2.34
-1 -5 -7 5.36 2.24
-1 5 -7 9.21 3.96
-1 -5 -7 -3.2 4
-1 5 -7 2.55 3.28
-1 5 -8 116.95 9.86
-1 -5 -8 96.83 9.1
-1 5 -8 98.8 9.13
-1 -5 -8 109.66 6.61
-1 5 -8 100.87 6.56
-1 5 -9 69.01 8.12
-1 -5 -9 67.1 8.07
-1 -5 -9 77.41 5.52
-1 5 -9 75.1 5.53
-1 5 -10 937.36 36.02
-1 -5 -10 966.97 36.29
-1 5 -11 241.25 15.91
-1 -5 -11 224.45 15.53
-1 -5 -12 465.95 24.27
-1 5 -12 465.55 24.18
-1 5 -13 279.9 18.51
-1 -5 -13 296.95 18.98
-1 5 -14 431.72 23.44
-1 -5 -14 365.74 22.49
1 -6 -15 23.63 6.58
1 6 -15 20.41 6.27
1 6 -14 124.88 10.89
1 -6 -14 116.85 10.57
1 -6 -13 -2.12 5.02
1 6 -13 3.55 3.9
1 -6 -12 315.18 16.86
1 6 -12 354.91 17.7
-1 -6 11 222.12 16.07
1 -6 -11 212.15 12.65
1 6 -11 206.66 12.67
1 -6 -10 43.64 5.66
1 6 -10 42.94 5.85
-1 -6 10 33.96 6.85
1 6 -9 1152.25 38.04
1 -6 -9 1199.34 38.18
-1 -6 9 1356.7 44.86
-1 6 9 1015.46 31.72
-1 6 9 1192.84 36.33
1 6 -9 1223.34 36.14
-1 -6 8 1775.58 59.3
1 6 -8 1698.8 52.36
-1 6 8 1807.19 52.86
1 6 -8 1635.57 53.44
1 -6 -8 1711.42 53.61
1 6 -8 1728.75 56.41
1 -6 -8 1665.48 56.1
1 -6 -7 1357.88 44.55
1 6 -7 1493.55 45.18
-1 -6 7 1442.19 50.22
1 -6 -7 1403.84 47.21
1 6 -7 1379.03 47.13
1 6 -7 1445.88 44.59
-1 6 7 1474.15 44.88
1 6 -6 184.2 9.34
1 6 -6 201.38 9.36
1 -6 -6 187.13 9.09
1 6 -6 187.45 10.38
1 -6 -6 171.53 10.22
-1 6 6 179.02 9.48
-1 6 5 132.97 7.63
-1 -6 5 117.14 7.22
1 -6 -5 125.95 6.48
1 6 -5 130.67 6.63
-1 -6 5 127.64 7.86
-1 6 5 127.31 7.8
1 6 -5 131.37 7.73
-1 -6 4 984.52 35.79
1 6 -4 1035.4 30.98
1 -6 -4 1058.11 30.93
-1 -6 4 1132.96 33.84
-1 6 4 1100.22 34
-1 -6 4 974.08 32.39
-1 6 4 1050.77 32.6
-1 -6 3 212.7 11.12
1 -6 -3 183.37 6.84
1 6 -3 187.63 6.97
-1 6 3 183.58 9.46
-1 -6 3 185.68 9.44
1 6 -3 155.94 8.88
-1 -6 3 180.81 7.9
-1 6 3 185.79 7.83
1 -6 -2 1539.28 44.07
-1 -6 2 1591.91 49.73
-1 -6 2 1576.43 44.9
-1 6 2 1515.65 44.76
1 6 -2 1573.15 44.18
-1 -6 1 446.3 13.8
-1 6 1 461.88 13.77
1 6 -1 468.51 14.05
1 -6 -1 475.75 14.14
-1 -6 1 461.95 18.06
-1 -6 0 64.6 4.94
1 6 0 73.46 3.49
1 -6 0 69.53 3.49
1 6 0 61.93 5.27
-1 6 0 65.63 2.73
-1 -6 0 67.51 5.33
-1 6 0 64.69 5.36
1 6 1 2049.35 58.1
1 -6 1 2037.06 58.24
-1 6 -1 1935.32 57.43
-1 -6 -1 2018.51 57.35
-1 -6 -1 2041.15 59.65
-1 -6 -1 2101.85 61.09
-1 -6 -2 135.47 7.86
-1 -6 -2 133.89 6.57
-1 6 -2 156.27 9.35
-1 6 -2 130.8 6.75
-1 -6 -2 133.04 6.75
1 -6 2 132.65 6.87
1 6 2 136.54 6.9
-1 6 -3 1537.96 47.51
-1 -6 -3 1583.38 47.57
1 -6 3 1588.82 47.56
1 6 3 1555.38 47.28
-1 -6 -3 1560.71 47.85
-1 -6 -3 1486.75 44.69
-1 6 -3 1534.49 49.86
1 6 3 1511.98 48.61
1 6 4 460.81 18.84
-1 -6 -4 457.67 18.52
-1 6 -4 459.84 18.68
-1 6 -4 477.7 19.99
-1 6 -4 446.87 18
-1 -6 -4 442.88 17.6
1 -6 4 480.36 18.6
1 6 4 455.99 18.2
-1 6 -5 149.44 9.92
-1 -6 -5 171.63 10.28
1 6 5 172.08 10.04
1 -6 5 154.27 9.75
-1 6 -5 165.06 10.72
-1 -6 -5 157.46 8.77
-1 6 -5 173.64 9.34
-1 -6 -6 3339.67 97.86
-1 6 -6 3399.05 98.41
-1 -6 -6 3379.93 100.93
-1 6 -6 3303.1 100.75
-1 6 -6 3413.6 102.13
-1 -6 -6 3441.22 101.82
-1 6 -6 3306.85 101.9
-1 -6 -7 688.24 28.28
-1 6 -7 715.25 28.58
-1 6 -7 746.13 28.53
-1 -6 -7 676.09 24.12
-1 6 -7 674.4 24.39
-1 -6 -7 689.92 27.41
-1 6 -7 624.32 26.68
-1 6 -8 1817.53 56.28
-1 -6 -8 1883.97 56.12
-1 6 -8 1731.54 60.23
-1 -6 -8 1900.23 61.14
-1 -6 -9 6.76 4.36
-1 6 -9 14.95 5.45
-1 6 -9 13.36 3.38
-1 -6 -9 7.29 2.93
-1 6 -10 11.37 5.46
-1 -6 -10 6.54 4.56
-1 6 -10 9.57 3.11
-1 -6 -11 16.67 5.85
-1 6 -11 13.93 5.39
-1 -6 -12 10.43 5.59
-1 6 -12 24.4 6.8
-1 -6 -13 29.86 7.36
-1 6 -13 27.56 7.22
-1 6 -14 308.13 19.76
-1 -6 -14 359.12 21.28
1 7 -14 399.1 20.61
1 -7 -14 407.96 20.52
1 7 -13 1.4 4.51
1 -7 -13 4.16 4.23
1 -7 -12 68.42 7.37
1 7 -12 58.71 7.11
1 7 -11 340.94 16.83
1 -7 -11 350.87 16.91
1 -7 -10 56.73 6.27
1 7 -10 60.75 6.67
-1 -7 10 55.91 8.8
-1 7 9 59.09 5.73
1 7 -9 55.35 5.7
1 7 -9 61.91 6.04
1 -7 -9 47.83 5.34
-1 -7 9 54.74 8.28
1 7 -8 1088.95 36.65
-1 7 8 1145.37 37.42
1 7 -8 1179.28 37.34
1 -7 -8 1102.48 36.79
-1 -7 8 1096.33 42.65
1 7 -8 1138.31 40
1 -7 -8 1045.68 39.24
-1 -7 7 35.34 5.88
1 7 -7 36.96 4.11
1 -7 -7 39.19 4.3
1 7 -7 37.38 5.31
1 -7 -7 32.61 5.28
-1 7 7 41.71 4.77
1 7 -7 28.64 4.08
1 -7 -6 2482.84 71.97
1 7 -6 2261.26 71.67
-1 7 6 2477.69 74.23
1 7 -6 2426.45 74.58
1 -7 -6 2359.84 74.31
1 -7 -5 912.23 29.17
1 7 -5 979.95 29.54
-1 -7 5 931.09 35.18
-1 7 5 966.76 32.18
-1 -7 5 1060.47 32.44
1 -7 -5 894.19 31.15
1 7 -5 948.98 31.52
1 7 -5 806.18 31.01
-1 7 4 399.73 16.11
1 7 -4 351.78 15.32
-1 -7 4 382.42 15.55
-1 -7 4 338 17.06
1 7 -4 336.02 12.37
1 -7 -4 352.76 12.39
-1 -7 4 380.07 14.37
-1 7 4 358.39 14.17
-1 7 3 667.18 24.16
1 7 -3 614.34 23.45
-1 -7 3 589.23 20.81
-1 7 3 638.44 20.99
-1 -7 3 639.06 25.31
1 -7 -3 663.83 19.54
1 7 -3 639.89 19.58
1 7 -2 13.15 1.27
1 -7 -2 12.62 1.18
-1 -7 2 11.45 2.98
-1 7 2 12.35 1.53
-1 -7 2 11.24 1.67
1 -7 -1 1447.03 40.48
-1 -7 1 1408.5 45.8
-1 -7 1 1496.27 40.25
-1 7 1 1377.96 40.07
1 7 -1 1305.84 45.16
1 7 -1 1424.85 40.36
1 7 0 752.94 22.23
1 -7 0 753.92 22.4
1 7 0 740.32 26.89
-1 7 0 766.64 27.04
-1 -7 0 733.98 21.23
-1 7 0 735.76 21.2
-1 -7 0 789.86 26.41
-1 7 -1 0.89 1.77
-1 -7 -1 0.81 2.28
-1 7 -1 1.98 1
-1 -7 -1 1.44 0.95
-1 -7 -1 0.67 1.61
1 7 1 0.34 0.98
1 -7 1 1.28 1.13
-1 -7 -2 2389.46 71.22
-1 7 -2 2478.01 71.97
-1 -7 -2 2285.92 69.02
1 7 2 2401.27 68.51
1 -7 2 2302.79 68.53
-1 7 -2 2407.14 68.56
-1 -7 -2 2340.39 68.32
-1 -7 -3 763.63 25.57
-1 7 -3 748.15 25.62
-1 7 -3 749.53 28.59
-1 7 -3 727.49 26.97
-1 -7 -3 735.32 26.62
1 7 3 707.94 27.35
1 7 3 796.79 25.69
1 -7 3 775.25 25.76
-1 7 -4 4640.57 134.21
-1 -7 -4 4666.29 134.13
-1 -7 -4 4657.1 133.84
-1 7 -4 4629.97 134.44
1 7 4 4581.25 135.35
1 7 4 4697.45 133.7
1 -7 4 4759.4 133.97
-1 7 -4 4563.78 136.53
-1 -7 -5 60.75 6.11
-1 7 -5 58.32 6.05
-1 7 -5 57.86 5.42
-1 -7 -5 52.8 5.21
1 7 5 48.43 5.81
-1 7 -5 57.81 6.81
-1 -7 -5 59.04 5.77
-1 7 -5 60.46 5.62
-1 7 -6 1015.82 35.56
-1 -7 -6 1020.09 35.58
-1 -7 -6 1009.74 33.97
-1 7 -6 947.81 33.93
-1 7 -6 1117.11 38.09
-1 -7 -6 968.75 36.04
-1 7 -6 1000.37 36.4
-1 -7 -7 18.39 3.59
-1 7 -7 22.18 3.98
-1 7 -7 10.3 4.02
-1 -7 -7 16.96 4.29
-1 7 -7 16.78 4.77
-1 -7 -7 20.74 5.1
-1 -7 -8 1106.4 36.52
-1 7 -8 1080.64 36.81
-1 -7 -8 1106.75 39.98
-1 7 -8 1144.24 40.28
-1 7 -9 1761.79 53.19
-1 -7 -9 1718.28 52.58
-1 7 -9 1554.53 56.62
-1 -7 -9 1681.7 57.36
-1 7 -10 39.11 5.02
-1 7 -10 44.18 7.35
-1 -7 -10 31.72 6.41
-1 7 -11 112.52 10.87
-1 -7 -11 127.5 11.34
-1 7 -12 973.12 39.81
-1 -7 -12 1034.93 40.3
-1 -7 -13 22.29 6.97
-1 7 -13 23 7.41
-1 -7 -14 97.62 11.61
-1 7 -14 103.31 11.73
1 -8 -14 93.38 9.6
1 8 -14 105.26 10.13
1 8 -13 5.52 4.64
1 -8 -13 7.51 4.85
1 8 -12 369.52 18.54
1 -8 -12 414.13 19.01
1 8 -11 23.07 4.71
1 -8 -11 39.28 5.52
1 8 -10 2483.57 74.47
1 -8 -10 2357.78 73.89
-1 8 10 2254.14 73.98
1 8 -10 2525.31 73.71
-1 -8 10 2492.94 82.83
1 8 -9 98.43 7.54
1 -8 -9 92.88 7.15
1 8 -9 84.13 7.19
-1 8 9 90.74 7.41
-1 -8 9 92.42 10.5
1 8 -8 1072.78 35.05
-1 8 8 1037.85 35.42
1 -8 -8 989.85 36.86
1 8 -8 1013.68 37.27
-1 -8 8 1003.53 40.55
1 8 -8 958.81 33.72
1 -8 -8 1019.87 33.89
1 8 -7 98.68 8.06
1 -8 -7 88.95 7.95
-1 8 7 90.31 7.38
1 8 -7 84.69 6.94
1 8 -7 94 6.48
1 -8 -7 93 6.31
-1 8 6 337.18 15.16
1 8 -6 309.12 14.48
1 -8 -6 288.73 14.04
1 8 -6 263.27 13.73
1 -8 -6 320.88 12.52
1 8 -6 297.54 12.28
1 8 -5 473.88 17.03
1 -8 -5 499.48 17.12
1 -8 -5 518.76 19.44
1 8 -5 487.5 19.32
-1 8 5 547.2 21
-1 -8 5 519.17 20.5
1 8 -5 507.07 20.41
-1 -8 5 519.11 23.49
-1 8 4 2196.72 66.79
-1 -8 4 2169.55 66.04
1 8 -4 2194.45 66.5
1 -8 -4 2066.06 63.46
1 8 -4 2133.67 63.66
-1 -8 4 2404.44 70.33
1 -8 -4 2109.99 61.22
1 8 -4 2147.6 61.36
-1 -8 3 535.68 20.87
1 8 -3 464.36 20.4
-1 8 3 568.94 21.67
1 8 -3 535.31 16.28
1 -8 -3 531.05 16.1
-1 -8 3 481.03 22.01
-1 -8 3 507.93 17.75
-1 8 3 537.47 17.83
-1 8 2 3227.81 94.58
-1 -8 2 3442.28 94.8
1 8 -2 3203.47 99.89
1 8 -2 3504.42 93.84
-1 -8 2 3272.77 101.05
1 8 -1 202.39 11.18
1 8 -1 183.94 6.47
1 -8 -1 187.59 6.58
-1 -8 1 192.21 6.38
-1 8 1 193.06 6.28
-1 -8 1 209.03 11.28
-1 8 1 176.29 10.2
-1 -8 0 1777.61 48.56
-1 8 0 1733.02 48.51
1 8 0 1730.89 55.63
-1 8 0 1886.01 55.93
-1 -8 0 1825.67 55.12
-1 -8 0 1727.5 55.12
-1 8 0 1891.31 56.29
1 -8 0 1678.32 49.6
1 8 0 1755.36 49.35
-1 8 -1 20.84 4.17
-1 -8 -1 17.44 3.15
1 8 1 21.39 2.1
1 -8 1 20.62 2.22
-1 -8 -1 23.49 3.89
-1 8 -1 23.68 4.09
-1 -8 -1 21.41 1.68
-1 8 -1 17.97 1.72
-1 8 -2 30.95 2.89
-1 -8 -2 31.95 2.97
-1 -8 -2 33.44 3.79
-1 -8 -2 36.47 4.45
-1 8 -2 30.72 4.58
1 8 2 33.27 3.14
1 -8 2 33.82 3.18
-1 -8 -3 1630.72 49.63
-1 8 -3 1595.63 49.66
1 8 3 1638.61 49.5
1 -8 3 1679.76 49.84
-1 -8 -3 1547.31 51.54
-1 8 -3 1670.02 52.58
-1 8 -3 1681.76 53.97
1 8 3 1617.23 52.81
-1 -8 -4 429.58 17.99
-1 8 -4 453.17 18.4
1 8 4 487.94 20.37
-1 -8 -4 454.55 18.85
-1 8 -4 469.38 19.55
-1 8 -4 450.12 20.74
-1 -8 -4 468.95 17.98
-1 8 -4 437.58 17.65
-1 -8 -5 138.09 9.1
-1 8 -5 123.93 8.93
-1 8 -5 130.91 10.26
1 8 5 129.05 9.49
-1 8 -5 133.81 8.97
-1 -8 -5 121.38 8.5
-1 8 -5 143.36 8.75
-1 -8 -5 119.27 8.13
-1 -8 -6 4277.45 124.35
-1 8 -6 4351.32 125.16
-1 -8 -6 4231.09 126.37
-1 8 -6 4239.44 126.55
-1 8 -6 4262.27 125.09
-1 -8 -6 4269.76 125
-1 8 -7 611.48 23.82
-1 -8 -7 596.44 23.22
-1 -8 -7 615.32 25.99
-1 8 -7 629.5 26.28
-1 8 -7 589.11 24.55
-1 -8 -7 617.65 24.72
-1 8 -8 214.21 13.27
-1 -8 -8 201.28 12.75
-1 8 -8 237.94 12.25
-1 -8 -8 221.5 11.79
-1 8 -9 34.12 5.06
-1 -8 -9 40.79 5.55
-1 -8 -9 43.89 6.48
-1 8 -9 45.17 6.89
-1 8 -10 672.56 25.66
-1 8 -10 759.87 30.37
-1 -8 -10 691.28 29.49
-1 8 -11 3.35 4.38
-1 -8 -11 1.68 4.54
-1 8 -12 20.39 6.21
-1 -8 -12 22.3 6.89
-1 -8 -13 28.01 7.02
-1 8 -13 32.43 7.29
1 -9 -14 600.64 25.84
1 9 -14 587.28 25.69
1 -9 -13 21.7 5.56
1 9 -13 20.67 5.81
1 9 -12 52.63 6.66
1 -9 -12 49.38 6.41
1 9 -11 391.01 18.28
1 -9 -11 410.63 18.39
1 9 -10 76.5 7.48
-1 9 10 65.05 7.33
1 9 -10 79.44 7.07
1 -9 -10 81 7.15
1 -9 -9 20.55 3.79
1 9 -9 25.09 4.19
-1 -9 9 14.22 5.93
-1 9 9 19.74 4.47
1 9 -9 11.28 4.1
-1 9 8 1319.54 43.74
1 9 -8 1222.84 42.5
1 9 -8 1317.72 41.14
1 -9 -8 1322.84 41.01
-1 -9 8 1148.3 47.92
1 -9 -8 1289.37 44.64
1 9 -8 1195.07 44.05
1 9 -7 9.73 3.67
1 -9 -7 14.61 4.17
1 -9 -7 17.27 3.05
1 9 -7 10.31 2.68
1 9 -7 9.58 3.66
-1 9 7 7.39 3.76
-1 9 7 12.29 2.24
1 9 -6 939.44 29.42
1 -9 -6 898.06 29.07
-1 9 6 885.81 29.01
-1 -9 6 864.24 36.52
-1 9 6 937.38 33.56
1 9 -6 893.23 32.01
1 -9 -6 895.02 31.97
-1 -9 5 61.88 6.49
1 9 -5 60.85 6.38
-1 9 5 63.91 6.49
-1 9 5 58.63 4.8
-1 -9 5 67.38 8.03
1 9 -5 59.61 5.46
1 -9 -5 62.42 5.58
1 -9 -5 66.7 4.21
1 9 -5 67.06 4.34
-1 -9 4 686.93 25.37
1 9 -4 636.68 25.32
-1 9 4 632.72 25.34
-1 9 4 623.67 22.79
-1 -9 4 624.16 27.24
1 -9 -4 647.07 22.35
1 9 -4 666.37 22.53
1 -9 -4 657.16 20.02
1 9 -4 628.23 20.07
1 9 -3 181.16 6.59
-1 9 3 185.69 11.22
-1 -9 3 198.61 11.15
1 9 -3 157.05 10.41
1 9 -3 165.84 7.83
1 -9 -3 181.38 7.99
-1 9 3 168.27 9.45
-1 -9 3 175.65 11.91
1 -9 -3 185.9 6.5
1 9 -2 7.46 1.49
1 9 -2 2.47 0.86
1 -9 -2 2.62 0.91
1 9 -2 -0.56 2.58
-1 -9 2 4.96 2.86
-1 9 2 5.38 2.63
-1 -9 2 7.2 3.66
1 9 -1 25.49 4.7
-1 -9 1 25.99 4.17
-1 9 1 24.9 4.27
-1 9 0 619.83 23.71
-1 -9 0 606.88 23.34
1 9 0 552.08 23.57
-1 -9 0 589.13 23.24
-1 9 0 562.84 23.61
-1 9 -1 492.55 14.92
-1 -9 -1 494.22 14.65
-1 9 -1 475.54 21.03
-1 -9 -1 504.96 20.82
1 -9 1 511.8 15.84
-1 -9 -1 532.3 20.38
-1 9 -1 485.14 21.08
-1 9 -2 2578.9 73.94
-1 -9 -2 2538.43 72.98
-1 9 -2 2346.73 67.36
-1 -9 -2 2365.44 67.15
1 9 2 2241.37 72.9
-1 -9 -2 2273.94 67.32
-1 9 -2 2206.08 67.28
1 -9 2 2476.42 67.93
1 9 3 1047.83 36.69
-1 9 -3 1042.98 36.08
-1 -9 -3 1006.91 35.23
-1 9 -3 968.04 31.71
-1 -9 -3 980.57 31.76
-1 -9 -3 1035.14 32.4
-1 9 -3 1024.34 32.49
1 9 4 1842.84 57.78
-1 9 -4 1804.25 56.69
-1 -9 -4 1732.02 55.62
-1 9 -4 1717.39 53.03
-1 -9 -4 1705.06 52.91
-1 9 -4 1772.14 54.13
-1 -9 -4 1679.86 53.65
1 9 5 224.98 13.74
-1 -9 -5 251.44 13.28
-1 9 -5 261.09 13.79
-1 -9 -5 241.61 11.9
-1 9 -5 240.35 12.01
-1 -9 -5 268.62 13.3
-1 9 -5 241.49 12.85
1 9 6 477.28 21.81
-1 9 -6 468 21.04
-1 -9 -6 457.96 20.57
-1 -9 -6 484 20.11
-1 9 -6 429.94 20.04
-1 -9 -6 482.97 19.56
-1 9 -6 473.37 19.49
-1 -9 -7 45.97 6.73
-1 9 -7 32.21 6.06
-1 9 -7 38.74 5.52
-1 -9 -7 43.94 5.85
-1 9 -7 42.57 5.56
-1 -9 -7 34.1 5.13
-1 -9 -8 1402.58 45.28
-1 9 -8 1368.85 45.7
-1 -9 -8 1338.58 46.26
-1 9 -8 1323.75 46.27
-1 9 -9 816.89 29.26
-1 -9 -9 775.03 28.63
-1 -9 -9 762.14 30.56
-1 9 -9 720.98 30.16
-1 9 -10 566.38 24.72
-1 -9 -10 580.58 24.89
-1 9 -11 184.41 13.46
-1 -9 -11 207.46 14.07
-1 9 -12 1253.27 45.9
-1 -9 -12 1202.81 45.49
-1 -9 -13 58.31 8.69
-1 9 -13 68.38 9.35
1 10 -13 30.94 5.86
1 -10 -13 34.76 6.11
1 -10 -12 206.16 12.47
1 10 -12 217.77 12.8
1 -10 -11 411.32 18.32
1 10 -11 419.79 18.61
1 10 -10 7.22 4.46
-1 10 10 8.03 4.41
1 -10 -10 9.5 3.64
1 10 -10 14.57 3.78
1 10 -9 353.12 17.13
-1 10 9 331.49 17.23
-1 -10 9 374.54 22.75
1 10 -9 334.65 15.07
1 -10 -9 351.36 15.16
1 -10 -8 1567.02 49.5
1 10 -8 1621.71 49.85
1 10 -8 1629.24 54.28
1 -10 -8 1562.95 53.75
1 10 -8 1634.04 53.19
-1 10 8 1661.28 54.24
1 10 -7 4.38 2.43
1 -10 -7 7.58 2.62
1 10 -7 6.98 3.67
1 -10 -7 3.42 3.64
1 10 -7 4.18 3.08
-1 10 7 2.56 3.3
-1 10 7 6.94 2.13
-1 -10 6 66.04 9.01
1 -10 -6 66.08 6.36
1 10 -6 62.92 6.14
1 -10 -6 71.37 4.73
1 10 -6 71.66 4.7
1 10 -6 76.81 7.53
-1 10 6 45.11 5.99
-1 10 6 58.4 4.78
-1 -10 5 27.92 5.6
-1 10 5 21.03 3.61
1 10 -5 22.29 2.49
-1 10 5 13.47 4.1
1 -10 -5 31.55 2.85
1 10 -5 15.95 4.33
1 -10 -5 26.44 4.11
1 10 -5 19.9 3.72
1 10 -4 47.35 4.4
1 10 -4 47.93 3.06
1 -10 -4 55.58 3.15
-1 -10 4 43.16 6.02
-1 10 4 38.4 5.64
1 -10 -4 41.86 4.25
-1 -10 4 40.3 6.6
-1 10 4 46.32 4.81
1 10 -4 39.51 5.47
1 10 -3 879.99 34.67
-1 10 3 1043.08 36
-1 -10 3 1009.89 34.94
-1 10 3 997.07 33.17
-1 -10 3 982.29 36.97
1 10 -3 929.71 29.79
1 -10 -3 968.7 29.76
1 10 -3 972.57 28.07
1 -10 -3 951.81 27.88
1 10 -2 3678.89 108.62
-1 -10 2 3525.56 107.31
-1 -10 2 3548.09 109.36
-1 10 2 3686.98 106.53
1 -10 -2 3602.95 99.85
1 10 -2 3700.54 99.79
1 10 -2 3525.41 100.43
1 -10 -2 3549.84 100.47
1 10 -1 170.64 11.3
-1 10 1 172.05 10.49
-1 -10 1 172.16 11.3
-1 -10 0 318.88 15.82
-1 10 0 319.96 15.82
-1 -10 0 331.62 15.84
-1 10 0 304.57 15.97
1 10 0 283.79 15.7
-1 10 -1 22.63 4.84
-1 10 -1 19.72 4.55
-1 -10 -1 13.49 3.78
-1 10 -1 18.18 1.42
-1 -10 -1 17.58 1.38
-1 -10 -1 22.69 1.16
-1 10 -2 3.27 3.26
-1 -10 -2 4.89 1.53
-1 10 -2 9.37 1.69
1 10 2 3.9 2.88
-1 10 -2 6.06 1.53
-1 -10 -2 8.82 1.62
-1 -10 -2 8.44 3.48
-1 10 -2 4.44 2.87
1 10 3 328.81 17.02
-1 10 -3 318.08 16.48
-1 -10 -3 338.86 16.3
-1 10 -3 314.46 12.25
-1 -10 -3 319.23 12.25
-1 10 -3 322.77 12.86
-1 -10 -3 329.15 12.69
1 10 4 720.53 29.62
-1 -10 -4 779.88 28.82
-1 10 -4 726.32 29.03
-1 10 -4 739.59 24.96
-1 -10 -4 723.24 24.86
-1 10 -4 746.66 26.22
-1 -10 -4 743.12 26.05
1 10 5 192.91 13.25
-1 -10 -5 233.89 13.01
-1 10 -5 230.44 13.44
-1 10 -5 216.07 10.88
-1 -10 -5 216.2 10.83
-1 -10 -5 237.48 12.2
-1 10 -5 225.55 12.08
1 10 6 738.17 30.18
-1 10 -6 738.13 28.45
-1 -10 -6 747.98 28.32
-1 10 -6 662.69 28.12
-1 -10 -6 766.18 28.37
-1 10 -6 708.13 26.32
-1 -10 -6 726.78 26.45
-1 -10 -7 6.09 4.03
-1 10 -7 4.15 4.17
-1 10 -7 8.27 4.11
-1 -10 -7 7.87 4.2
-1 -10 -7 3.11 2.97
-1 10 -7 4.73 2.97
-1 -10 -8 1412.21 46.31
-1 10 -8 1409.4 46.42
-1 10 -9 423.56 19.3
-1 10 -9 419.43 19.9
-1 -10 -9 408.14 19.68
-1 10 -10 64.51 7.85
-1 10 -10 87.14 8.21
-1 -10 -10 77.2 8.47
-1 -10 -11 35.13 7.14
-1 10 -11 55.87 7.62
-1 10 -12 43.87 7.4
-1 -10 -12 49.53 7.63
-1 -10 -13 26.66 6.72
-1 10 -13 33.47 7.4
1 -11 -13 326 16.59
1 11 -13 341.09 17.17
1 11 -12 15.09 4.91
1 -11 -12 7.64 4.12
1 11 -11 28.54 4.8
1 -11 -11 29.89 5.07
-1 11 11 15.58 5.8
1 11 -10 4.58 3.53
1 -11 -10 3.12 3.33
-1 11 10 10.45 4.92
1 11 -10 8.7 4.92
1 11 -9 432.67 20.39
-1 11 9 444.05 21.1
1 11 -9 398.17 17.01
1 -11 -9 448.95 17.4
1 11 -8 224.57 13.61
-1 11 8 220.36 14.37
1 11 -8 257.18 11.25
1 -11 -8 224.79 10.66
1 11 -8 231.37 14.17
1 -11 -8 229.01 13.9
1 11 -7 575.54 19.73
1 -11 -7 567.9 19.54
-1 -11 7 571.61 28.86
-1 11 7 544.37 19.1
-1 11 7 558.06 24.71
1 11 -7 545.89 24.02
1 11 -7 580 23.54
1 -11 -7 545.37 23.04
1 -11 -6 201.58 8.66
1 11 -6 202.81 8.83
-1 -11 6 214.24 15.69
-1 11 6 193.77 9.71
-1 11 6 237.68 14.1
1 11 -6 215.05 13.17
1 -11 -6 193.73 11.28
1 11 -6 196.22 11.27
1 11 -5 400.43 14.1
1 -11 -5 397.06 13.98
-1 11 5 430.6 17.06
-1 -11 5 473.87 23.55
-1 11 5 434.85 20.74
1 11 -5 473.73 20.82
1 -11 -5 421.74 16.99
1 11 -5 449.53 17.39
1 -11 -4 1485.7 42.87
1 11 -4 1474.06 42.98
-1 -11 4 1545.99 54.27
-1 11 4 1551.24 47.95
-1 11 4 1450.35 51.21
1 11 -4 1468.32 50.88
1 -11 -4 1525.38 45.69
1 11 -4 1512.54 45.74
1 11 -3 135.49 10.39
-1 11 3 134.56 10.47
-1 -11 3 156.13 12.07
-1 11 3 143.79 9.27
1 -11 -3 135.28 5.23
1 -11 -3 141.22 6.51
1 11 -3 145.05 6.61
-1 -11 2 3.8 3.79
-1 11 2 4.25 3.36
1 11 -2 4.16 3.39
-1 -11 1 430.5 20.48
-1 11 1 432.6 19.2
1 11 -1 403.27 20.02
-1 11 0 75.52 7.65
-1 11 0 89.24 8.63
1 11 0 100.39 8.99
-1 11 -1 1174.51 42.71
-1 11 -1 1271.02 43.82
-1 11 -2 16.19 1.65
-1 -11 -2 12.16 1.5
1 11 2 10.05 4.01
-1 -11 -2 12.63 1.62
-1 11 -2 14.77 1.67
-1 11 -3 1528.62 50.22
-1 11 -3 1436.5 43.24
-1 -11 -3 1448.62 43
1 11 3 1394.75 49.96
-1 11 -3 1465.81 42.62
-1 -11 -3 1381.65 42.4
-1 -11 -4 286.29 12.41
-1 11 -4 287.85 12.59
1 11 4 292.01 16.49
-1 11 -4 258 11.28
-1 -11 -4 271.13 11.37
-1 11 -4 257.54 15.21
-1 11 -5 18.73 3.4
-1 -11 -5 17.15 3.32
-1 11 -5 5.29 3.09
-1 -11 -5 19.53 4.01
1 11 5 18.07 5.08
-1 11 -5 16.13 4.73
-1 -11 -6 460.57 19.91
-1 11 -6 421.73 19.62
1 11 6 474.85 22.81
-1 -11 -6 454.97 18.33
-1 11 -6 443.71 18.25
-1 11 -6 476.03 21.6
1 11 7 59.93 8.32
-1 11 -7 41.87 6.74
-1 -11 -7 50.85 6.94
-1 11 -7 55.32 7.02
-1 -11 -7 59.47 5.97
-1 11 -7 38.83 5.2
-1 11 -8 106.1 8.48
-1 -11 -8 91.7 7.95
-1 11 -9 6.17 4.7
-1 11 -9 5.59 3.65
-1 -11 -9 3.07 3.57
-1 11 -10 346.39 17.99
-1 -11 -10 358.66 18.15
-1 11 -10 389.36 18.85
-1 11 -11 246.56 15.01
-1 -11 -11 257.7 15.26
-1 11 -12 302.85 17.26
-1 -11 -12 266.66 16.53
1 12 -12 518.94 21.74
1 -12 -12 537.92 21.76
1 12 -11 917.76 33.11
1 -12 -11 972.5 33.26
-1 12 11 996.33 38.52
1 -12 -10 596.76 22.37
1 12 -10 592.56 22.43
1 12 -10 593.27 26.18
-1 12 10 598.67 27.03
1 -12 -9 127.22 7.7
1 12 -9 118.39 7.68
-1 12 9 126.75 11.27
1 12 -9 131.87 10.96
1 12 -8 56.41 4.76
1 -12 -8 54.98 4.76
1 -12 -8 58.51 7.29
1 12 -8 67.32 8.09
-1 12 8 46.1 7.61
1 -12 -7 69.88 7.58
1 12 -7 66.53 7.25
-1 12 7 65.35 8.28
1 12 -7 59.87 7.72
-1 12 7 54.2 4.97
1 -12 -7 74.96 4.85
1 12 -7 76.87 5.11
1 12 -6 23.03 4.37
1 -12 -6 42.42 5.48
-1 12 6 30.58 6.37
1 12 -6 23.82 5.5
1 -12 -6 32.63 3.02
1 12 -6 39.46 3.37
-1 12 6 37.88 4.59
-1 -12 6 41.33 8.04
1 12 -5 321.94 11.1
1 -12 -5 309.12 10.88
-1 12 5 357.87 18.68
1 -12 -5 303.45 13.54
1 12 -5 318.33 13.87
1 12 -5 265.26 16.41
-1 -12 5 291.36 19.16
-1 12 5 308.84 14.2
-1 -12 4 1538.45 57.93
-1 12 4 1667.61 52.32
1 12 -4 1595.34 49.07
1 -12 -4 1598.71 49.04
-1 12 4 1670.05 56.64
1 12 -4 1707.6 56.44
1 12 -4 1654.17 46.72
1 -12 -4 1637.45 46.51
1 -12 -3 234.85 7.87
1 12 -3 244 7.92
1 12 -3 241.25 14.95
-1 12 3 217.37 14.47
1 -12 -3 237.51 8.78
1 12 -3 240.93 8.9
-1 -12 3 218.99 15.43
-1 12 3 255.62 13.31
-1 12 2 1186.55 39.92
1 12 -2 1071.06 41.43
-1 12 1 1187.1 40.71
1 12 -1 1089.7 41.97
-1 12 0 1063.99 38.22
1 12 0 1067.83 39.59
-1 12 0 964.7 38.58
-1 12 -1 454.68 22.14
1 12 2 29.08 5.99
-1 12 -2 33.23 1.85
-1 -12 -2 31.26 1.62
-1 12 -2 37.07 1.83
-1 12 -2 40.76 6.53
1 12 3 12.89 4.8
-1 12 -3 4.06 1.53
-1 -12 -3 7.03 1.7
-1 -12 -3 8.4 1.8
-1 12 -3 7.75 1.98
-1 12 -3 3.07 3.9
1 12 4 333.35 18.83
-1 12 -4 361.68 14.01
-1 -12 -4 352.08 13.77
-1 12 -4 341.46 18.36
-1 12 -4 321.59 12.54
-1 -12 -4 320.89 12.49
-1 12 -5 125.99 8.74
-1 -12 -5 131.89 8.59
-1 12 -5 124.1 10.64
-1 12 -5 138.63 7.55
-1 -12 -5 128.25 7.3
1 12 5 128.59 11.48
-1 12 -6 123.59 9.29
-1 -12 -6 141.59 9.92
-1 12 -6 117.64 10.56
1 12 6 144.09 12.17
-1 12 -6 132.79 8.07
-1 -12 -6 124.94 7.8
-1 12 -7 41.61 4.89
-1 -12 -7 39.23 4.99
1 12 7 25.53 6.77
-1 12 -7 31.09 5.73
-1 -12 -7 34.66 6.01
-1 12 -7 32.45 6.46
-1 12 -8 4.54 4.88
-1 12 -8 8.77 3.4
-1 -12 -8 9.13 3.28
-1 12 -9 486.88 22.93
-1 12 -9 483.68 20.85
-1 -12 -9 475.24 20.7
-1 12 -10 153.36 11.91
-1 12 -10 154.91 10.93
-1 -12 -10 152.62 10.87
-1 12 -11 19.78 5.95
-1 -12 -11 28.96 5.95
-1 12 -12 278.68 16.62
-1 -12 -12 302.45 16.72
1 13 -12 38.47 5.83
1 -13 -12 43.9 5.93
-1 13 11 22.63 7.2
1 13 -11 19.67 4.47
1 -13 -11 23.75 4.56
1 -13 -10 214.32 10.73
1 13 -10 212.84 10.87
1 13 -10 220.73 15.33
-1 13 10 189.23 15.06
-1 13 9 52.15 8.49
1 13 -9 62.08 8.68
1 13 -9 69.33 5.51
1 -13 -9 58.99 5.35
1 -13 -8 21.21 5.8
1 13 -8 25.59 6.41
-1 13 8 22.01 6.5
1 -13 -8 20.93 3.24
1 13 -8 22.45 3.34
1 13 -7 725.48 24.04
1 -13 -7 738.97 23.89
1 13 -7 805.94 31.71
1 -13 -7 741.4 28.39
-1 13 7 742.86 32.06
-1 13 6 193.53 14.47
1 13 -6 224.93 8.95
1 -13 -6 229.44 8.83
1 -13 -6 205.94 11.51
-1 13 6 209.19 11.11
1 13 -5 832.85 27.86
1 -13 -5 811.79 27.57
-1 13 5 817.32 29.19
1 13 -5 854.03 33.68
-1 13 5 789.29 33.62
1 13 -5 802.28 24.58
1 -13 -5 801.76 24.39
1 -13 -4 10.41 1.41
-1 13 4 13.85 5.29
1 13 -4 10.84 1.64
-1 13 4 13.14 3.91
1 13 -4 11.85 2.55
1 -13 -4 15.44 2.6
-1 13 3 690.07 26.23
-1 13 3 659.25 28.93
1 13 -2 136.45 11.58
-1 13 2 159.24 10.99
1 13 -1 9.22 4.54
1 13 0 132.97 11.37
-1 13 0 145.01 11.73
-1 13 -1 1436.31 51.47
1 13 2 947.05 37.03
-1 13 -2 865.93 35.64
-1 13 -3 522.77 15.47
-1 -13 -3 483.79 15.19
-1 -13 -3 490.84 15.41
-1 13 -3 525.13 16.06
-1 13 -3 485.74 23.77
1 13 3 493.03 24.48
1 13 4 86.28 9.73
-1 -13 -4 91.68 5.64
-1 13 -4 86.55 5.74
-1 13 -4 94.13 9.59
-1 13 -4 78.27 4.81
-1 -13 -4 92.39 4.8
1 13 5 103.13 10.71
-1 13 -5 109.68 10.18
-1 13 -5 105.39 6.21
-1 -13 -5 104.89 6.13
-1 -13 -5 110.65 7.5
1 13 6 113.93 11.66
-1 13 -6 115 7.18
-1 -13 -6 105.67 6.94
-1 -13 -6 130.58 9.17
-1 13 -7 70.33 9.17
-1 13 -7 78.02 6.41
-1 -13 -7 82.09 6.4
-1 -13 -7 79.76 8.38
1 13 7 83.45 10.43
-1 13 -8 23.43 6.33
-1 13 -8 26.76 4.88
-1 -13 -8 19.73 4.19
-1 13 -9 154.5 10.47
-1 -13 -9 177 10.77
-1 13 -9 190.22 13.98
-1 13 -10 72.57 9.02
-1 13 -10 78.41 8
-1 -13 -10 63.1 7.11
-1 13 -11 914.79 34.32
-1 -13 -11 916.19 34.13
-1 14 11 476.96 25.29
1 -14 -11 476.4 18.82
-1 14 10 126.9 12.8
1 14 -10 126.94 12.21
1 -14 -10 136.35 8.13
1 14 -9 520.76 25.2
-1 14 9 540.76 26.31
1 -14 -9 490.09 18.24
1 14 -8 224.59 15.28
-1 14 8 205.55 15.4
1 -14 -8 217.93 9.59
1 14 -8 221.06 9.73
-1 14 7 78.82 10.08
1 14 -7 73.42 4.87
1 -14 -7 73.27 4.69
1 14 -7 81.84 9.49
1 -14 -7 80.18 7.71
-1 14 6 7.44 4.79
1 14 -6 2.61 4.71
1 -14 -6 4.2 3.18
1 14 -6 3.05 1.83
1 -14 -6 2.52 1.72
-1 14 5 29.66 7.05
1 14 -5 27.38 6.46
-1 14 5 34.74 5.34
1 14 -5 40.82 2.9
1 -14 -5 36.21 2.57
1 -14 -5 33.78 4.12
1 14 -4 206.18 14.55
-1 14 4 211.23 14.92
-1 14 4 204.13 12.08
1 14 -4 196.39 6.59
1 -14 -4 185.17 6.4
1 -14 -4 173.49 7
-1 14 3 1402.67 50.28
1 14 -3 1377.16 49.55
-1 14 3 1242.41 44.97
1 14 -2 296.15 18.37
1 14 -1 1671.75 59.18
1 14 0 126.3 11.63
-1 14 0 106.35 10.73
-1 14 -1 18.75 5.78
-1 14 -2 6.24 4.36
1 14 2 11.16 5.47
-1 14 -3 305.5 17.71
-1 14 -3 256.32 7.79
1 14 3 314.1 18.58
-1 -14 -4 832.88 25.16
-1 14 -4 887.5 34.96
-1 14 -4 823.54 24.49
-1 -14 -4 779.98 24.18
1 14 4 786.25 35.05
-1 -14 -5 198.05 9.46
-1 14 -5 155.98 12.86
-1 -14 -5 169.41 7.68
-1 14 -5 176.65 7.94
1 14 5 182.08 14.54
1 14 6 44.47 8.29
-1 14 -6 38.62 7.75
-1 -14 -6 44.12 5.5
-1 -14 -6 46.12 4.28
-1 14 -6 48.64 4.52
-1 14 -7 1443.42 45.34
-1 -14 -7 1374.67 44.83
-1 14 -7 1637.74 54.26
1 14 7 1549.46 55.79
-1 14 -8 72.37 9.43
-1 -14 -8 57.08 5.8
-1 14 -9 232.34 15.73
-1 -14 -9 201.55 11.56
-1 -14 -10 56.67 6.9
-1 15 10 1.06 6.72
1 15 -10 4.77 6.15
1 -15 -10 5.16 3.08
1 -15 -9 234.26 10.29
1 15 -9 208.42 16.13
-1 15 9 237.62 17.47
-1 15 8 21.54 7.04
1 15 -8 17.04 6.86
1 -15 -8 17.95 2.86
-1 15 7 413.24 23.03
1 15 -7 366.88 21.21
1 -15 -7 395.93 13.7
1 15 -6 336.48 19.82
1 -15 -6 315.83 11.1
1 -15 -5 179.74 7.71
-1 15 5 161.44 13.65
1 -15 -5 156.86 6.09
1 15 -5 176.83 13.74
-1 15 5 173.83 11.25
1 15 -4 4.74 4.72
-1 15 4 6 5.07
-1 15 4 7.3 4.17
-1 15 3 349.21 20.68
1 15 -3 293.38 18.83
1 15 -2 76.76 10.11
1 15 -1 538.39 26.68
-1 15 0 1197.98 45.2
1 15 0 1077.75 44.11
-1 15 -1 152.53 13.3
1 15 2 19.17 6.66
-1 15 -2 14.48 5.69
-1 15 -3 746.76 33.82
1 15 3 843.67 35.77
-1 -15 -4 75.02 3.3
-1 -15 -4 77.47 3.12
1 15 4 85.7 10.7
-1 15 -5 11.7 5.44
-1 -15 -5 14.78 2.18
1 15 5 20.56 6.45
-1 15 -6 320.75 20.26
-1 -15 -6 365.28 13.34
-1 15 -7 12.73 6.6
1 15 7 20.45 7.5
-1 -15 -7 21.82 3.65
-1 15 -8 30.87 7.66
-1 -15 -8 13.27 3.72
-1 -15 -9 152.86 9.44
-1 15 -9 183.91 14.46
-1 16 9 421.42 24.43
1 16 -9 385.94 22.94
1 16 -8 35.72 8.25
-1 16 8 30.96 8.31
-1 16 7 39.04 8.24
1 16 -7 26.56 7.56
-1 16 6 12.24 6.88
1 16 -6 23.43 7.31
1 16 -5 176.83 14.59
-1 16 5 129.13 13.18
-1 16 4 12.82 5.7
1 16 -4 18.44 6.55
1 16 -3 557.65 28.12
-1 16 3 600.48 29.51
1 16 -2 48.67 8.65
1 16 -1 1085.05 44.09
1 16 0 104.57 11.82
-1 16 0 107.67 11.8
-1 16 -1 -1.06 5.17
1 16 2 100.1 11.55
-1 16 -2 103.28 11.76
1 16 3 87.33 11.15
-1 16 -3 97.87 11.4
1 16 4 293.63 19.86
-1 16 -4 228.35 17.29
1 16 5 431.01 24.56
-1 16 -5 379.72 22.69
-1 16 -6 -3.16 5.78
1 16 6 1.19 6.23
1 16 7 677.65 34.45
-1 16 -7 721.48 32.9
-1 16 -8 6.15 5.95
-1 16 -9 66.05 9.91
-1 17 8 2.38 6.53
1 17 -8 13.21 6.79
-1 17 7 252.07 18.72
1 17 -7 272.09 19.08
1 17 -6 277.43 19.67
-1 17 6 303.79 20.72
1 17 -5 260.09 18.52
-1 17 5 241.42 18.56
-1 17 4 48.01 9.2
1 17 -4 38.55 8.31
1 17 -3 89.67 11.42
-1 17 3 100 11.99
1 17 -2 22.28 7.71
-1 17 2 12.48 6.59
1 17 -1 335.69 21.42
1 17 0 106.6 12.22
-1 17 0 118.72 13.08
-1 17 -1 806.51 36.81
-1 17 -2 4.52 5.64
1 17 2 20.95 7.59
1 17 3 265.28 19.53
-1 17 -3 272.1 18.99
1 17 4 17.04 7.18
-1 17 -4 35.83 8.05
1 17 5 1011.54 43.24
-1 17 -5 916.86 40.79
-1 17 -6 6.67 6.62
1 17 6 10.14 7.06
-1 17 -7 6.6 6.55
1 17 7 6.46 7.09
-1 17 -8 20.77 7.65
-1 18 7 25.12 8.7
1 18 -7 18.78 7.83
1 18 -6 131.82 14.01
-1 18 6 126.66 14.78
-1 18 5 82.12 11.96
1 18 -5 100.31 12.46
-1 18 4 29.73 8.55
1 18 -4 54.22 9.92
1 18 -3 557.96 29.77
-1 18 3 610.4 30.8
1 18 -2 119.19 13.4
-1 18 2 111.49 13.04
1 18 -1 413.29 24.96
-1 18 0 84.97 11.94
1 18 0 88.97 12.04
-1 18 -1 23.88 8.36
1 18 2 6.28 7.19
-1 18 -2 3.58 6.15
-1 18 -3 60.59 10.5
1 18 3 63.97 11.23
1 18 4 132.98 14.95
-1 18 -4 116.32 13.36
1 18 5 260.46 20.2
-1 18 -5 275.04 19.78
-1 18 -6 48.17 9.07
1 18 6 47.24 11.07
-1 19 5 58.88 10.95
1 19 -5 60.18 11.37
-1 19 4 84 12.96
1 19 -4 69.5 11.59
-1 19 3 13.07 8.35
1 19 -3 12.69 8.02
1 19 -2 164.78 16.1
-1 19 2 194.51 17.17
1 19 -1 320.74 22.48
-1 19 0 5.04 7.21
1 19 0 -3.89 7.8
-1 19 -1 8.82 7.68
1 19 2 422.33 26.77
-1 19 -2 410.49 25.45
1 19 3 287.36 21.43
-1 19 -3 246.67 19.81
-1 19 -4 36.09 9.63
1 19 4 31.88 10.23
-1 19 -5 14.93 7.68
1 19 5 5.65 7.98
1 20 -3 279.36 21.77
-1 20 3 327.82 23.35
-1 20 2 52.34 10.75
1 20 -2 84.26 13.16
1 20 -1 12.32 8.15
1 20 0 395.71 25.83
-1 20 0 365.36 24.82
-1 20 -1 105.22 14.13
-1 20 -2 34.47 9.56
1 20 2 49.99 11.3
2 0 -15 8.18 4.43
-2 0 14 662.16 28.67
2 0 -14 671.84 27.85
2 0 -13 5.3 4.04
-2 0 13 -2.23 4.19
-2 0 12 536.37 23.8
2 0 -12 528.26 22.87
-2 0 11 1.98 3.28
2 0 -11 0.56 3.58
-2 0 10 687.57 27.32
2 0 -10 653.22 25.38
2 0 -9 5.42 3.24
-2 0 8 347.58 17.01
2 0 -8 329.1 14.45
-2 0 7 11.03 3.48
2 0 -7 14.03 2.78
-2 0 6 9999 273.75
2 0 -6 9630.6 271.3
-2 0 5 4.4 2.1
2 0 -5 4.05 1.38
-2 0 4 4935.56 143.11
2 0 -4 5234.23 142.31
2 0 -3 1.97 0.86
-2 0 3 1.52 1.04
-2 0 2 5037.07 136.72
2 0 -2 4812.73 136.92
2 0 -1 1.03 0.83
-2 0 1 1.77 0.89
2 0 0 3.84 1.32
-2 0 0 5.2 1.31
-2 0 -1 5.11 1.62
2 0 1 3.03 1.49
2 0 2 1281.47 41.28
-2 0 -2 1322.29 41.09
-2 0 -3 2.13 2
2 0 3 0.93 1.64
2 0 4 951.2 33.78
-2 0 -4 935.19 33.36
2 0 5 0.62 2.26
-2 0 -5 0.59 2.62
-2 0 -6 570.87 20.67
2 0 6 506.76 23.51
-2 0 -6 538.78 23.84
2 0 7 -0.78 3.11
-2 0 -7 1.65 2.67
-2 0 -8 535.06 20.32
2 0 8 464.7 24.16
-2 0 -9 -1.43 3.04
2 0 9 6.62 4.54
-2 0 -10 996.43 41.65
-2 0 -11 -2.22 6.25
-2 0 -12 1057.26 44.56
-2 0 -13 6.05 5.92
-2 0 -14 462.56 26.8
2 1 -15 158.25 11.89
-2 1 14 24.62 5.74
-2 -1 14 30.17 6.68
2 1 -14 29.46 6.44
2 1 -13 62.81 7.66
-2 1 13 75.21 8.02
-2 -1 13 61.82 8.12
-2 -1 12 4.62 3.97
-2 1 12 -0.64 3.55
2 1 -12 3.67 3.69
-2 1 11 171.45 11.13
-2 -1 11 185.86 12.49
2 1 -11 170.19 10.95
2 1 -10 2111.59 67.24
-2 -1 10 2266.22 70.18
2 1 -9 1.35 3
-2 1 8 1624.83 53.23
2 1 -8 1588.3 49.9
-2 -1 7 367.22 12.41
2 1 -7 385.19 15.17
-2 1 6 1437.21 46.3
2 1 -6 1475.43 44.37
-2 1 5 822.27 27.58
2 1 -5 837.2 26.21
2 1 -4 2227.51 65.5
-2 1 4 2373.41 66.57
2 1 -3 63.94 3.49
-2 1 3 67.52 3.75
-2 1 2 10.79 1.42
2 1 -2 14.28 1.63
2 -1 -1 3293.72 94.05
2 1 -1 3397.35 94.14
-2 1 1 3338.56 93.34
-2 1 0 6098.91 167.24
2 -1 0 5992.19 167.96
2 1 0 5941.67 168.06
2 1 1 486.4 17.07
2 -1 1 462.72 16.86
-2 1 -1 429.38 16.11
2 1 2 3411.01 99.61
-2 1 -2 3458.73 99.26
2 -1 2 3407.51 99.63
-2 1 -3 787.94 28.47
2 1 3 839.72 29.03
2 -1 3 791.2 28.77
-2 1 -4 1519.17 49.24
2 1 4 1528.23 49.58
2 -1 4 1478.4 49.39
-2 1 -5 78.16 7.62
2 -1 5 99.26 8.13
2 1 5 98.47 8.14
-2 -1 -6 130.23 7.31
-2 1 -6 117.5 8
2 1 6 96.74 8.92
2 -1 6 126.49 9.85
-2 1 -6 117.55 9.6
2 -1 7 460.22 22.53
2 1 7 461.53 22.62
-2 -1 -7 483.15 18.21
-2 1 -7 496.78 19.74
2 1 8 789.93 34.47
2 -1 8 775.94 34.53
-2 -1 -8 854.09 29.12
2 1 9 530.86 25.96
-2 1 -9 546.77 21.8
2 -1 9 517.62 25.69
-2 -1 -9 502.36 18.55
-2 1 -10 2482.79 83.86
-2 1 -11 5.52 4.65
-2 1 -12 270.6 19.44
-2 1 -13 13.26 6.81
-2 1 -14 121.1 13.94
2 2 -15 129.44 11.01
-2 -2 14 502.38 25.36
-2 2 14 496.77 22.02
2 2 -14 519.64 23.13
-2 -2 13 382.63 20.48
-2 2 13 325.27 16.94
2 2 -13 381.9 18.44
-2 -2 12 1072.6 40.15
-2 2 12 972.97 36
2 2 -12 1039.45 37.09
2 2 -11 199.57 11.96
-2 -2 11 196.87 13.5
-2 2 11 197.75 11.6
2 2 -10 231.72 12.64
-2 -2 10 251.83 14.8
-2 -2 9 1.37 3.17
2 2 -9 -1.79 2.73
-2 -2 8 56.57 3.21
-2 2 8 62.11 3.36
-2 -2 7 9.24 1.84
2 2 -7 19.31 2.94
-2 2 7 14.61 3.6
-2 2 6 1280.71 40.36
-2 -2 6 1211.58 37.05
2 2 -6 1236.86 38.12
-2 2 5 1450.86 45.55
2 2 -5 1522.69 44.25
-2 -2 5 1476.9 44.25
2 2 -4 1227.75 36.21
-2 2 4 1207.51 37.14
2 2 -3 4106.65 114.3
-2 2 3 4083.06 114.58
2 2 -2 7551.37 208.04
-2 2 2 7516.13 207.64
2 2 -1 8127.67 228.15
-2 2 1 8354.97 227.45
-2 2 0 7024.63 196.61
2 2 0 7191.69 197.46
2 2 1 119.38 6.6
-2 2 -1 105.25 5.94
2 2 2 776.36 26.3
-2 2 -2 729.61 25.55
2 2 3 1445.68 46.41
-2 2 -3 1429.91 45.91
2 2 4 4308.98 125.87
-2 2 -4 4265.59 125.34
2 2 5 379.44 18.08
-2 2 -5 375.89 17.87
-2 -2 -6 8.12 2.19
-2 2 -6 6.49 2.86
-2 2 -6 8.18 3.63
2 2 6 8.39 3.3
-2 -2 -7 629.11 22.04
-2 2 -7 628.73 24.35
-2 -2 -7 607.61 21.06
2 2 7 586.1 26.81
-2 -2 -8 920.32 29.84
-2 2 -8 935.57 33.08
2 2 8 894.64 36.38
-2 -2 -8 869.49 29.23
2 2 9 177.86 13.74
-2 2 -9 174.52 11.42
-2 -2 -9 179.22 8.91
-2 2 -9 176.43 14.45
-2 2 -10 5.24 5.4
-2 2 -11 436.75 24.61
-2 2 -12 321.83 21.06
-2 2 -13 62.27 10.03
-2 2 -14 421.24 25.31
2 3 -15 47.17 7.24
2 -3 -15 41.91 7.16
2 3 -14 284.5 15.59
2 -3 -14 252.6 15.03
-2 3 14 248.13 13.7
-2 -3 14 273.05 18.29
-2 3 13 3.63 3.16
-2 -3 13 1.91 5.09
2 -3 -13 3.23 3.9
2 3 -13 6.49 3.87
2 3 -12 338.81 17.15
2 -3 -12 330.07 16.95
-2 3 12 351.25 16.23
2 3 -11 75.67 7.4
2 -3 -11 76.37 7.58
-2 3 11 80.63 6.95
-2 -3 11 68.68 8.62
-2 -3 10 289.58 16.82
2 3 -10 279.89 14.15
2 -3 -10 299.61 14.4
-2 -3 9 116.98 9.69
2 3 -9 91.34 7.24
2 -3 -9 110.93 7.63
-2 3 9 101.14 4.67
-2 -3 8 406.59 18.68
-2 3 8 433.4 19.06
2 3 -8 434.48 16.42
2 -3 -8 418.08 16.16
-2 -3 8 353.11 13.14
-2 3 8 368.63 13.25
-2 -3 7 1712.28 55.81
-2 3 7 1830.11 56.36
2 3 -7 1878.64 53.65
2 -3 -7 1810.56 53.45
-2 -3 7 1835.04 51.64
-2 -3 6 151.57 8.75
-2 3 6 134.71 8.25
-2 -3 6 137.54 6.51
2 -3 -6 119.12 6.6
2 3 -6 103.12 6.27
-2 -3 5 124.14 6.55
-2 -3 5 109.09 6.75
-2 3 5 126.28 7.13
2 3 -5 120.72 6.04
2 -3 -5 121.46 6.03
-2 -3 4 1785.13 52.34
-2 -3 4 1750.64 51.82
-2 3 4 1721.58 51.71
2 -3 -4 1702.33 50.62
2 3 -4 1807.04 50.8
-2 -3 3 1063.59 32.68
2 -3 -3 1125.22 32.47
2 3 -3 1128.66 32.52
-2 3 3 1082.29 32.67
-2 -3 3 1082.71 34.4
2 -3 -2 20.76 1.96
2 3 -2 21.49 2.04
-2 -3 2 22.61 2
2 3 -1 261.08 10.04
2 -3 -1 285.41 10.21
-2 3 1 283.98 9.5
-2 -3 1 275.58 9.42
2 -3 0 4984.48 139.18
2 3 0 5085.66 139.21
-2 3 0 4883.07 138.23
-2 -3 0 4922.12 138.18
2 3 1 17.12 2.56
-2 3 -1 19.81 2.51
2 -3 1 20.5 2.74
-2 -3 -1 16.48 2.28
2 3 2 4348.2 126.47
-2 -3 -2 4299.29 125.81
2 -3 2 4408.5 126.57
-2 3 -2 4575.63 126.13
2 -3 3 916.16 32.18
2 3 3 926.47 32.14
-2 -3 -3 925.37 31.67
-2 3 -3 924.55 31.68
2 3 4 40.79 5.02
2 -3 4 46.06 5.34
-2 -3 -4 43.42 5.13
-2 3 -4 42.81 5.22
-2 -3 -5 807.54 27.28
-2 3 -5 846.5 30.89
-2 -3 -5 759.78 30.08
2 -3 5 809.89 30.77
2 3 5 795.02 30.67
-2 3 -6 394.66 19.49
-2 -3 -6 383.17 19.19
-2 -3 -6 416.31 14.19
-2 3 -6 437.06 18.7
2 3 6 388.39 19.43
2 -3 6 398.62 19.5
-2 -3 -6 394.61 15.91
-2 -3 -7 234.22 9.29
-2 3 -7 233.16 13.25
2 3 7 220.5 14.34
2 -3 7 232.61 14.57
-2 -3 -7 238.03 11.04
-2 3 -8 1865.25 59.75
2 -3 8 1801.93 62.66
2 3 8 1864.86 63.11
-2 -3 -8 1815.96 55.53
2 3 9 1169.55 46.1
-2 3 -9 1201.63 42.65
2 -3 9 1255.94 46.74
-2 -3 -9 1198.49 38.21
-2 -3 -9 1249.31 47.23
-2 3 -9 1230.6 47.15
-2 3 -10 2542.85 85.58
-2 -3 -10 2566.97 85.7
-2 -3 -11 12.14 5.99
-2 3 -11 28.4 7.57
-2 3 -12 586.76 29.72
-2 -3 -12 565.27 29.35
-2 3 -13 169.1 15.17
-2 -3 -13 206.27 16.87
-2 3 -14 77.76 11.23
-2 -3 -14 110.13 13.24
2 4 -15 62.67 8.21
2 -4 -15 74.77 8.84
2 4 -14 217.91 13.69
2 -4 -14 251.75 14.38
-2 -4 14 199.18 16.49
2 4 -13 334.59 16.99
2 -4 -13 330.16 16.75
-2 4 13 320.04 14.65
-2 -4 13 320.5 20.13
2 4 -12 368.07 17.27
2 -4 -12 357.48 17.12
-2 4 12 315.43 14.95
-2 -4 12 354.85 20.43
2 -4 -11 74.32 7.15
2 4 -11 84.09 7.76
-2 -4 11 80.3 9.21
-2 4 11 73.49 6.36
-2 4 10 336.32 11.72
2 4 -10 342.26 15.85
2 -4 -10 355.08 15.89
-2 -4 10 323.86 18.77
2 4 -9 8.25 2.9
2 -4 -9 9.89 3.04
-2 -4 9 13.34 4.5
-2 4 9 8.31 2.05
-2 4 8 133.62 6.76
-2 -4 8 122.61 6.59
-2 -4 8 137.29 10.12
-2 4 8 141.96 10.26
-2 -4 8 128.86 10.53
2 4 -8 115.22 7.48
2 -4 -8 139.33 8.04
2 4 -7 40.18 4.06
-2 4 7 40.87 3.81
-2 -4 7 46.64 3.9
2 -4 -7 30.13 3.6
-2 4 7 42.34 5.51
-2 -4 7 38.03 5.14
-2 -4 6 387.31 16.76
-2 4 6 405.98 16.85
2 -4 -6 404.49 14.83
2 4 -6 387.09 14.74
-2 -4 6 413.49 15.19
-2 4 5 7541.02 207.26
-2 -4 5 7001.09 206.49
2 -4 -5 7353.6 205.32
2 4 -5 7273.64 205.37
-2 -4 4 168.75 8.02
-2 4 4 166.97 7.93
2 -4 -4 166.47 7.15
2 4 -4 186.13 7.38
-2 -4 3 1594.53 46.82
-2 4 3 1639.53 46.89
2 4 -3 1671.56 46.66
2 -4 -3 1557.93 46.41
-2 -4 3 1597.83 48.99
-2 -4 2 639.49 19.4
-2 4 2 607.09 19.29
2 4 -2 643.29 19.85
2 -4 -2 632.49 19.74
2 4 -2 647 19.76
2 -4 -1 6029.89 169.36
2 4 -1 6175.17 169.39
-2 -4 1 6097.35 168.24
-2 4 1 6064.56 168.22
-2 -4 1 6136.35 171.88
2 -4 0 896.76 27.26
2 4 0 833.5 26.95
-2 -4 0 854.43 25.94
-2 4 0 835.11 25.97
-2 -4 0 860.3 28.46
2 4 1 145.61 7.61
2 -4 1 143.05 7.61
-2 4 -1 139.44 6.92
-2 -4 -1 142.1 6.93
-2 -4 -1 139.55 7.86
2 -4 2 6345.57 175.3
2 4 2 6139.88 175.05
-2 4 -2 6204.41 174.26
-2 -4 -2 5986.53 174.01
-2 -4 -2 6269.7 174.6
-2 -4 -3 165.38 8.71
-2 4 -3 145.96 8.79
-2 -4 -3 149.7 8.84
2 4 3 161.54 9.4
2 -4 3 145.07 9.17
-2 -4 -4 1905.23 56.83
2 -4 4 1797.35 59
2 4 4 1841.63 59.16
-2 4 -4 1853.01 58.66
-2 -4 -4 1877.06 58.73
-2 4 -5 3345.02 94.25
-2 -4 -5 3063.79 90.44
2 -4 5 3033.75 94.1
2 4 5 3091.46 94.28
-2 4 -5 3070.33 94.1
-2 -4 -5 2965.13 93.77
-2 4 -6 299.91 15.49
-2 -4 -6 287.62 10.08
2 4 6 308.92 16.37
2 -4 6 300.64 16.29
-2 -4 -6 307.78 13.25
-2 -4 -6 312.1 16.34
-2 4 -6 292.77 16.17
-2 4 -7 1066.72 38.19
-2 -4 -7 1040.67 34.41
2 4 7 1067.13 40.04
2 -4 7 1039.35 39.63
2 4 8 11.1 4.95
2 -4 8 6.88 3.71
-2 4 -8 8.77 4.07
-2 -4 -8 5.64 2.84
2 -4 9 155.36 13.13
-2 4 -9 163.68 13.82
-2 -4 -9 180.83 14.24
-2 -4 -9 170.59 9.06
-2 4 -10 7.14 5.34
-2 -4 -10 -1.04 5.16
-2 4 -11 223 16.96
-2 -4 -11 221.44 16.84
-2 4 -12 35.93 8.03
-2 -4 -12 30.8 8.5
-2 4 -13 84.73 11.71
-2 -4 -13 118.41 13.77
-2 4 -14 31.91 7.96
-2 -4 -14 26.21 8.59
2 5 -15 259.49 15.52
2 -5 -15 265.27 15.69
-2 -5 14 -1.18 6.06
2 5 -14 2.03 4.03
2 -5 -14 4.04 4.1
-2 -5 13 3.32 5.4
-2 5 13 3.13 2.78
2 5 -13 3.79 4.08
2 -5 -13 1.88 3.92
-2 -5 12 5.2 4.8
-2 5 12 6.49 3.13
2 -5 -12 8.63 3.95
2 5 -12 12.19 4.09
-2 -5 11 445.8 23.65
2 -5 -11 475.07 19.53
2 5 -11 474.92 19.56
-2 5 10 2112.48 62.05
-2 -5 10 2267.32 72.67
2 5 -10 2168.8 65.88
2 -5 -10 2034.59 65.24
-2 5 9 1402.39 42.59
-2 -5 9 1485.53 51.07
2 -5 -9 1358.09 44.43
2 5 -9 1360.07 44.58
-2 -5 8 581.8 23.48
-2 5 8 549.22 23.14
-2 -5 8 563.68 25.15
2 -5 -8 513.82 19.75
2 5 -8 534.81 19.99
-2 5 8 518.59 19.09
-2 -5 8 520.59 19
-2 -5 7 778.87 29.42
-2 5 7 857.19 29.84
-2 -5 7 819.13 32.34
2 -5 -7 776.71 26.61
2 5 -7 781.84 26.67
-2 5 7 828.01 27.12
-2 -5 7 801.8 26.85
-2 -5 6 286.29 13.16
-2 5 6 272.19 12.85
2 -5 -6 258.99 10.79
2 5 -6 268.59 10.95
-2 -5 6 272 11.76
-2 5 6 255.51 11.81
-2 -5 5 488.63 18.13
-2 5 5 489.16 18.08
2 -5 -5 453.99 16.26
2 5 -5 440.27 16.21
-2 -5 4 2040.35 60.9
-2 5 4 2071.76 60.97
-2 -5 4 2232.63 62.85
2 -5 -4 2122.53 59.76
2 5 -4 2014.97 59.68
-2 5 3 1578.85 46.33
-2 -5 3 1521.69 46.27
2 5 -3 1572.97 45.96
2 -5 -3 1599.79 45.9
-2 5 2 463.12 14.39
-2 -5 2 425.71 14.25
2 5 -2 445.7 14.71
2 -5 -2 467.58 14.84
2 5 -1 4563.73 126.44
2 -5 -1 4587.74 126.54
-2 -5 1 4522.41 125.21
-2 5 1 4428.58 125.15
-2 -5 1 4583.02 129.55
2 -5 0 8745.23 242.61
2 5 0 8716.79 242.46
-2 5 0 8573.72 241.02
-2 -5 0 8783.29 240.99
-2 -5 0 9027.95 244.86
2 5 1 471.12 17.15
2 -5 1 454.3 17.1
-2 -5 -1 475.58 17.99
-2 5 -1 453.67 16.13
-2 -5 -1 448.34 15.97
-2 -5 -2 3636.12 104.23
2 -5 2 3554.82 104.22
2 5 2 3573.53 104.28
-2 -5 -2 3494.99 103.01
-2 5 -2 3678.94 103.37
-2 -5 -3 1033.01 34.65
2 5 3 1067.73 35.73
2 -5 3 1043.82 35.72
-2 5 -3 1068.99 35.23
-2 -5 -3 1038.43 35.04
-2 -5 -4 246.46 11.83
2 5 4 241.39 13.01
2 -5 4 270.37 13.69
-2 -5 -4 252.4 13.03
-2 5 -4 251.6 12.99
-2 -5 -5 58.32 5.43
-2 5 -5 73.31 7.46
-2 5 -5 60.64 6.73
-2 -5 -5 70.38 7.11
2 -5 5 66.19 6.89
2 5 5 59.09 6.52
-2 5 -6 19.54 4.82
2 -5 6 24.4 5.2
2 5 6 17.22 4.53
-2 -5 -6 24.54 4.02
-2 5 -6 20.97 5.16
-2 -5 -6 20.75 4.87
2 5 7 147.26 11.49
2 -5 7 138.01 11.1
-2 5 -7 169.44 11.72
-2 -5 -7 148.45 8.95
2 5 8 429.93 22.08
2 -5 8 435.76 22.21
-2 -5 -8 431.86 17.46
-2 5 -9 696.84 31.12
-2 -5 -9 693.61 30.96
-2 -5 -9 648.07 23.97
-2 5 -10 645.13 29.21
-2 -5 -10 608.78 28.64
-2 5 -11 424.98 23.83
-2 -5 -11 415.1 23.81
-2 5 -12 37.61 8.17
-2 -5 -12 25.93 7.01
-2 -5 -13 2.35 6.07
-2 5 -13 1.15 5.74
2 -6 -15 277.85 15.99
2 6 -15 271.42 15.8
-2 -6 14 11.23 6.75
2 -6 -14 19.1 5.01
2 6 -14 13.96 4.21
-2 -6 13 975.04 41.57
2 -6 -13 926.18 34.5
2 6 -13 938.28 34.72
-2 -6 12 308.46 19.74
2 6 -12 314.75 15.27
2 -6 -12 281.94 14.63
-2 6 11 1258.86 38.73
2 6 -11 1254.11 42.13
2 -6 -11 1332.45 42.37
-2 6 11 1142 38.56
-2 -6 11 1407.93 50.15
2 6 -10 15.06 3.8
2 -6 -10 11.15 3.2
-2 -6 10 12.73 4.8
-2 6 10 12.24 2.97
2 6 -9 12.1 3.65
2 -6 -9 12.75 3.08
-2 6 9 4.02 2.44
-2 -6 9 3.65 3.75
2 -6 -8 32.62 3.75
2 6 -8 34.59 4.09
-2 -6 8 33.02 5.62
-2 6 8 36.55 6.15
-2 -6 8 39.61 6.6
-2 6 8 35.71 4.34
-2 -6 8 30.54 3.96
2 -6 -7 6.98 2.25
-2 -6 7 5.35 3.3
-2 6 7 2.64 3.23
2 6 -7 3.7 1.91
-2 -6 7 5.29 2.59
-2 6 7 3.6 2.47
-2 -6 7 1.55 3.09
-2 -6 6 953.59 32.14
-2 6 6 977.89 32.3
-2 -6 6 880.51 30.99
-2 6 6 941.95 31.7
2 6 -6 958.36 29.69
2 -6 -6 904.69 29.36
-2 -6 5 1844.04 55.9
-2 6 5 1918.33 56.06
-2 6 5 1876.83 57.12
-2 -6 5 2038.29 57.06
2 -6 -5 1886.27 53.76
2 6 -5 1824.24 53.73
2 6 -4 438.26 18.77
-2 -6 4 502.96 17.12
-2 6 4 458.43 16.79
-2 -6 4 530.28 19.17
2 -6 -4 482.65 15.76
2 6 -4 468.5 15.77
2 -6 -3 2775.16 79.51
2 6 -3 2823.31 79.68
2 6 -3 2864.47 84.36
-2 -6 3 2729 80.03
-2 6 3 2761.72 80.05
2 6 -2 506.59 20.26
-2 6 2 516.74 15.8
-2 -6 2 470.82 15.65
2 -6 -2 502.35 16.2
2 6 -2 510.29 16.24
2 -6 -1 37.55 3.08
2 6 -1 41.02 4.77
2 6 -1 40.71 3.15
-2 -6 1 35.08 4.41
-2 6 1 50.39 2.66
-2 -6 1 44.83 2.57
2 6 0 79.02 4.98
2 -6 0 70.26 4.74
-2 -6 0 82.24 4.02
-2 6 0 71.08 3.88
-2 -6 0 81.05 6.41
2 6 1 3226.05 92.3
2 -6 1 3276.11 92.54
-2 -6 -1 3076.47 93.76
-2 -6 -1 3177.53 90.87
-2 6 -1 3199.89 91.04
-2 -6 -2 48.59 4.95
2 -6 2 45.34 4.57
2 6 2 45.69 4.66
-2 -6 -2 47.23 4.18
-2 6 -2 45.76 4.28
-2 -6 -3 2913.48 82.99
2 6 3 2737.14 82.93
2 -6 3 2782.65 83.22
-2 6 -3 2757.34 82.32
-2 -6 -3 2675.13 82.14
-2 6 -4 15.29 4.21
2 -6 4 10.8 3.24
2 6 4 19.6 3.75
-2 -6 -4 11.35 3.31
-2 6 -4 17.14 3.48
-2 -6 -4 15.38 3.48
-2 6 -5 2453.82 74.85
-2 -6 -5 2481.03 74.81
-2 6 -5 2346.15 75.75
-2 -6 -5 2352.18 72.51
2 6 5 2403.83 75.08
2 -6 5 2353.15 74.94
-2 -6 -6 160.21 9.48
2 6 6 153.72 11.18
2 -6 6 151.14 11.3
-2 6 -6 163.62 11.73
-2 -6 -6 155.41 11.19
-2 6 -6 148.72 11.17
-2 -6 -7 117.06 8.15
2 6 7 120.29 10.34
2 -6 7 128.92 10.67
-2 -6 -8 96.48 7.55
2 6 8 91.37 9.5
2 -6 8 88.27 9.2
-2 6 -8 85.44 9.82
-2 -6 -8 85.25 9.53
-2 -6 -9 0.95 5.35
-2 6 -9 12.09 5.25
-2 6 -9 7.05 3.48
-2 -6 -9 7.27 3.67
-2 6 -10 42.33 8.39
-2 -6 -10 40.97 7.87
-2 6 -10 29.69 4.77
-2 6 -11 128.91 12.85
-2 -6 -11 105.94 11.71
-2 6 -12 10.86 6.23
-2 -6 -12 15.51 7.08
-2 6 -13 340.75 21.9
-2 -6 -13 391.64 23.42
2 7 -14 63.15 7.94
2 -7 -14 57.93 7.25
2 -7 -13 3.59 3.98
2 7 -13 0.61 3.65
-2 -7 13 3.77 6.15
2 7 -12 35.23 5.34
2 -7 -12 39.17 5.47
-2 7 12 31.77 3.09
-2 -7 12 38.96 8.44
-2 7 11 59.1 5.49
-2 -7 11 50.06 8.57
2 -7 -11 59.77 6.2
2 7 -11 50.46 5.75
-2 7 10 -1.27 2.58
-2 -7 10 -6.28 5.48
2 -7 -10 0.9 2.68
2 7 -10 -0.46 3.08
-2 7 9 495.04 19.65
-2 -7 9 498.67 25.45
2 -7 -9 484.88 19.16
2 7 -9 503.34 19.42
2 7 -8 67.35 5.53
2 -7 -8 64.01 5.22
-2 7 8 76.49 7.75
-2 -7 8 77.61 8.12
-2 -7 8 67 8.67
-2 -7 8 60.58 5.92
-2 7 8 63.81 5.9
-2 -7 7 439.48 17.68
-2 7 7 441.55 17.95
2 7 -7 391.04 15.61
2 -7 -7 402.69 15.63
-2 -7 7 447.21 19.06
-2 7 7 436.45 18.77
-2 7 6 187.56 10.1
-2 -7 6 160.86 9.41
2 7 -6 131.05 9.16
-2 -7 6 163.72 9.53
-2 7 6 151.16 9.16
2 7 -6 158.83 7.59
2 -7 -6 156.46 7.51
-2 7 5 3.89 2.56
-2 -7 5 2.52 2.06
2 -7 -5 5.45 1.58
2 7 -5 4.77 1.41
2 7 -5 5.9 3.1
-2 -7 5 7.8 3.4
-2 -7 5 7.48 2.93
-2 7 5 2.39 2.62
2 -7 -4 1360.55 40.67
2 7 -4 1377.02 40.8
-2 7 4 1378.15 45.32
-2 -7 4 1537.18 45.51
2 7 -4 1367.38 45.44
-2 -7 4 1347.71 42.11
-2 7 4 1436.84 42.29
-2 -7 4 1388.29 47.78
-2 -7 3 1.83 2.28
2 7 -3 5.53 2.42
-2 7 3 6.56 1.7
2 7 -3 4.37 1.38
2 -7 -3 6.97 1.46
-2 -7 3 5.92 1.7
2 7 -2 393.26 18
-2 -7 2 437.37 13.86
-2 7 2 414.51 13.69
2 -7 -2 428.31 14.26
2 7 -2 437.33 14.24
2 7 -1 2503.88 77.48
2 -7 -1 2536.01 72.69
2 7 -1 2571.78 72.59
-2 7 1 2508.01 70.99
-2 -7 1 2552.31 71.07
2 -7 0 1136.62 35.41
2 7 0 1152.46 35.28
-2 -7 0 1145.76 38.23
-2 -7 0 1137.21 33.31
-2 7 0 1135.17 33.45
2 7 0 1192.13 39.56
-2 7 -1 4195.94 119.14
-2 -7 -1 4445.16 123.3
-2 -7 -1 4211.92 118.95
2 7 1 4185.79 120.65
2 -7 1 4235.27 120.98
-2 -7 -2 151.09 7.75
-2 7 -2 147.54 7.9
-2 -7 -2 147.35 9.09
2 7 2 154.61 8.62
2 -7 2 149.94 8.58
-2 -7 -3 1444.36 45.65
-2 -7 -3 1371.52 44.34
-2 7 -3 1471.83 44.86
-2 -7 -3 1371.15 42.3
2 7 3 1415.24 45.39
2 -7 3 1358.01 45.24
-2 7 -4 141.61 9.41
-2 -7 -4 167.96 9.99
-2 -7 -4 152.63 9.3
-2 7 -4 178.09 11.93
-2 -7 -4 151.86 6.76
2 7 4 161.3 10.1
2 -7 4 155.26 10.02
2 7 5 13.77 3.58
2 -7 5 17.12 4.36
-2 7 -5 18.1 4.05
-2 -7 -5 13.77 4.16
-2 7 -5 7.14 4.32
-2 -7 -5 7.58 3.5
2 7 6 137.42 10.7
2 -7 6 140.98 10.51
-2 -7 -6 151.14 9.59
-2 7 -6 136.46 10.53
-2 -7 -6 150.82 10.8
2 -7 7 2124.79 68.4
2 7 7 2032.83 67.93
-2 -7 -7 2058.07 64.27
-2 7 -8 36.38 6.97
-2 -7 -8 33.58 6.81
-2 -7 -8 35.74 5.27
-2 7 -8 44.81 5.79
2 -7 8 34.87 6.28
-2 7 -9 1551.03 54.68
-2 -7 -9 1557.71 54.89
-2 -7 -9 1525.96 48.49
-2 7 -9 1423.11 48.47
-2 7 -10 297.75 18.21
-2 -7 -10 275.73 18
-2 7 -10 248.93 13.21
-2 7 -11 613.24 28.83
-2 -7 -11 541.59 27.89
-2 -7 -12 -1.09 6.31
-2 7 -12 -1.07 5.93
-2 -7 -13 90.29 11.92
-2 7 -13 83.93 11.58
2 -8 -14 23.82 5.06
2 8 -14 32.41 5.99
-2 -8 13 131.59 14.79
2 8 -13 127.32 9.7
2 -8 -13 116.07 9.45
2 -8 -12 10.73 3.95
2 8 -12 3.82 3.41
-2 -8 12 6.31 6.4
2 8 -11 1367.36 43.28
2 -8 -11 1433.81 43.42
-2 8 11 1475.4 43.3
-2 8 10 89.1 7.37
2 8 -10 74.92 6.61
2 -8 -10 91.85 6.88
-2 -8 10 97.71 11.2
-2 8 9 210.69 11.53
-2 -8 9 203.67 15.57
2 -8 -9 197.11 10.21
2 8 -9 198.44 10.44
2 -8 -8 2.96 3.2
2 8 -8 7.76 3.27
-2 8 8 4.11 3.02
-2 -8 8 2.91 2.99
-2 -8 8 0.97 3.76
-2 -8 8 -0.65 4.2
2 -8 -8 4.65 2.32
2 8 -8 0.68 2.15
2 8 -7 232.88 12.58
-2 8 7 232.07 12.44
-2 -8 7 206.41 11.72
2 8 -7 213.65 9.9
2 -8 -7 227.63 10.01
-2 -8 7 231.83 12.79
-2 8 7 213.99 12.29
2 -8 -6 289.42 10.99
2 8 -6 279.48 10.99
-2 -8 6 269.98 16.5
2 8 -6 245.12 13.52
-2 8 6 267.13 13.8
-2 -8 6 296.15 13.92
-2 -8 6 230.33 12.56
-2 8 6 270.51 13.12
2 -8 -5 971.51 30.34
2 8 -5 990.29 30.54
2 8 -5 1005.6 35.43
-2 -8 5 1010.18 34.74
-2 8 5 1028.21 35.51
-2 -8 5 1036.53 33.06
-2 8 5 1009.13 32.85
-2 -8 5 964.43 37.73
2 8 -4 169.45 7
2 -8 -4 171.06 6.89
2 8 -4 156.78 10.38
-2 -8 4 169.96 11.65
-2 8 4 157.35 10.12
-2 -8 4 146.56 9.66
-2 -8 4 158.77 7.95
-2 8 4 153.58 7.77
2 -8 -3 1616.78 47.27
2 -8 -3 1648.51 47.46
2 8 -3 1642.66 47.44
-2 -8 3 1636.5 48.06
-2 8 3 1584.4 47.84
-2 -8 3 1694.23 54.69
2 8 -3 1571.9 52.97
-2 8 3 1817.64 54.07
-2 -8 3 1688.57 52.63
-2 -8 2 594.67 23.66
-2 -8 2 567.07 17.64
-2 8 2 553.42 17.53
2 8 -2 593.53 23.48
2 8 -2 564.62 18.1
2 -8 -2 548.41 18.14
2 -8 -1 30.71 2.89
2 8 -1 34.35 2.97
-2 8 1 30.81 2.06
-2 -8 1 29.97 2.13
-2 -8 1 36.56 4.84
2 8 -1 26.01 4.72
2 8 0 800.41 25.63
2 -8 0 785.7 25.7
-2 -8 0 803.39 28.61
2 8 0 727.02 29.47
-2 -8 0 870.32 29.58
-2 8 0 783.23 23.57
-2 -8 0 790.05 23.47
2 8 1 290.68 12.55
2 -8 1 297.78 12.81
-2 -8 -1 346.94 14.28
-2 -8 -1 310.43 14.83
-2 8 -1 317.04 11.41
-2 -8 -1 302.42 11.13
2 8 2 417.73 18.95
-2 -8 -2 381.51 14.64
-2 8 -2 370.1 14.64
-2 -8 -2 364.05 15.3
-2 -8 -2 419.9 17.78
2 8 2 392.65 15.93
2 -8 2 419.27 16.27
-2 -8 -3 1286.28 41.74
-2 8 -3 1331.29 41.97
-2 8 -3 1333.84 46.34
-2 -8 -3 1239.76 40.42
-2 -8 -3 1329.75 43.94
2 8 3 1326.93 42.72
2 -8 3 1387.18 43.17
2 -8 4 24.43 4.21
2 8 4 21.62 4.25
-2 8 -4 17.52 4.91
-2 -8 -4 22.87 4.4
-2 -8 -4 35.18 3.25
-2 8 -4 23.95 4.15
-2 -8 -4 28.61 4.25
-2 -8 -5 3143.75 95.93
-2 -8 -5 3184.34 96.57
-2 8 -5 3283.42 96.97
2 -8 5 3254.73 97.26
2 8 5 3161.25 96.78
-2 -8 -6 233.63 12.91
2 -8 6 239.46 14.28
2 8 6 227.26 13.86
-2 -8 -6 245.63 14.08
-2 8 -6 241.37 14.1
2 8 7 1241.5 44.11
2 -8 7 1160.87 43.55
-2 8 -7 1126.17 43.19
-2 8 -7 1244.02 41.79
-2 -8 -7 1223.41 40.91
-2 8 -8 117.72 8.97
-2 -8 -8 114.61 8.91
-2 8 -8 100.89 10.01
-2 -8 -8 123.26 10.97
-2 8 -9 162.91 10.77
-2 8 -9 171.76 13.32
-2 -8 -9 163.47 13.22
-2 -8 -10 80.9 9.81
-2 8 -10 88.7 10.44
-2 8 -10 75.58 7.44
-2 8 -11 0.98 5.92
-2 -8 -11 -3 5.24
-2 8 -12 73.32 10.68
-2 -8 -12 65.22 9.63
-2 -8 -13 561.55 28.82
-2 8 -13 517.38 27.83
2 9 -14 15.33 5.14
2 -9 -14 12.65 4.76
2 -9 -13 8.41 3.99
2 9 -13 4.57 3.77
2 -9 -12 11.34 3.82
2 9 -12 5.78 3.9
-2 9 12 3.64 3.79
-2 -9 12 9.36 7.01
2 -9 -11 327.27 15
2 9 -11 328.75 15.19
-2 9 11 311.91 15.59
-2 -9 11 322.52 21.89
-2 9 10 127.34 9.35
-2 -9 10 121.34 12.87
2 -9 -10 115.07 7.9
2 9 -10 122.36 8.03
-2 9 9 1060.06 37.21
2 -9 -9 1036.81 34.38
2 9 -9 1047.18 34.57
-2 -9 9 1101.67 44.27
2 9 -8 15.15 3.92
2 -9 -8 7.21 4.01
-2 9 8 5.87 3.67
2 -9 -8 10.33 2.63
2 9 -8 10.6 2.71
2 9 -8 7.28 4.12
2 -9 -7 522.32 18.14
2 9 -7 494.12 18.02
-2 9 7 531.71 22.01
-2 -9 7 548.13 21.84
2 9 -7 487.02 21.73
-2 9 7 484.05 21.14
-2 -9 7 528.02 21.86
2 9 -7 491.44 20.87
2 9 -6 10.9 3.96
-2 -9 6 19.24 4.4
-2 9 6 7.84 3.23
-2 9 6 7.23 3.17
2 -9 -6 13.99 2.48
2 9 -6 15.87 2.42
-2 -9 6 13.82 3.67
-2 -9 6 20.43 5.43
2 -9 -5 152.56 6.85
2 9 -5 146.11 6.88
-2 9 5 159.49 10.73
-2 -9 5 169.02 10.61
-2 -9 5 162.36 8.88
-2 9 5 160.93 8.62
-2 -9 5 156.61 12.12
2 9 -5 151.25 10.7
2 9 -4 66.76 6.92
-2 9 4 73.27 5.16
-2 -9 4 87.72 5.62
-2 -9 4 83.15 7.49
-2 9 4 91.77 7.92
-2 -9 4 82.01 8.38
2 -9 -4 74.14 4.2
2 9 -4 80.18 4.34
2 9 -3 3.37 1.34
2 -9 -3 5.88 1.42
-2 9 3 4.67 1.6
-2 -9 3 3.37 1.68
-2 -9 3 -0.69 2.76
-2 -9 3 3.26 3.11
-2 9 3 7.27 3.07
2 9 -3 4.29 3.21
-2 9 2 49.59 3.13
-2 -9 2 57.81 3.34
-2 -9 2 46.56 6.19
2 9 -2 58.6 3.66
2 -9 -2 54.24 3.72
2 9 -2 62.77 6.75
-2 9 1 1508.62 52.92
2 -9 -1 1614.82 47.62
2 9 -1 1600.97 47.37
-2 -9 1 1613.75 52.77
-2 9 1 1582.49 45.57
-2 -9 1 1611.09 45.65
2 9 0 452.89 15.55
2 -9 0 430.24 15.64
-2 -9 0 457.15 19.31
2 9 0 466.35 20.52
-2 9 0 419.55 13.38
-2 -9 0 427.69 13.45
-2 -9 0 403.23 18.31
-2 9 -1 670.94 20.8
-2 -9 -1 652.42 20.6
-2 -9 -1 600.01 25.27
-2 -9 -1 676.92 24.88
2 9 1 669.32 22.71
2 -9 1 676.19 22.98
-2 -9 -2 10.22 3.13
2 9 2 8.91 3.3
2 -9 2 7.19 2.82
2 9 2 12.6 2.78
-2 -9 -2 10.5 3.46
-2 -9 -2 6.86 2.13
-2 9 -2 8.83 2.14
2 9 3 1629.06 58.11
2 -9 3 1795.26 54.68
2 9 3 1723.49 54.18
-2 9 -3 1780.41 53.58
-2 -9 -3 1720.87 53.14
-2 -9 -3 1729.07 53.17
-2 -9 -3 1760.63 56.23
2 9 4 0.5 2.69
2 -9 4 2.58 2.75
-2 -9 -4 0.28 2
-2 9 -4 -0.47 2.67
-2 -9 -4 2.75 2.66
-2 9 -4 -0.64 2.94
-2 -9 -4 1.11 3.14
-2 -9 -5 6.12 3.47
-2 9 -5 -0.57 3.13
-2 -9 -5 5.02 3.56
-2 9 -5 7.71 3.97
2 9 5 2.3 3.11
2 -9 5 4.16 3.06
-2 9 -6 345.24 17.59
-2 -9 -6 349.91 17.64
-2 9 -6 354.54 17.4
-2 -9 -6 349.6 16.87
2 9 6 334.22 17.33
2 -9 6 314.92 17.04
-2 9 -7 766.38 31.49
-2 -9 -7 825.13 32.11
-2 -9 -7 792.13 29.86
-2 9 -7 768.23 30.27
-2 9 -8 891.17 35.54
-2 -9 -8 945.96 36.21
-2 -9 -8 904.89 33.27
-2 9 -8 888.21 33.74
-2 9 -9 409.42 21.51
-2 -9 -9 427.79 22.11
-2 9 -9 425.94 19.77
-2 9 -10 26.75 5.58
-2 9 -10 33.23 7.07
-2 -9 -10 33.73 7.86
-2 9 -11 479.13 24.74
-2 -9 -11 488.69 25.04
-2 9 -12 15.27 7.43
-2 -9 -12 11.3 6.63
2 -10 -13 491.39 21.21
2 10 -13 534.82 21.86
-2 10 12 102.46 9.17
-2 -10 12 105.21 13.82
2 -10 -12 106.48 8.26
2 10 -12 109.74 8.41
2 -10 -11 247.47 12.44
2 10 -11 240.34 12.48
-2 -10 11 287.36 20.52
-2 10 11 249.94 14.25
-2 -10 10 297.11 20.58
2 -10 -10 288.17 12.85
2 10 -10 275.15 12.76
-2 10 10 312.56 15.84
-2 -10 9 77.3 10.43
-2 10 9 55.89 7.15
2 -10 -9 68.86 5.5
2 10 -9 65.68 5.48
2 -10 -8 32.84 5.39
2 10 -8 26.01 4.51
-2 10 8 25.97 5.3
2 -10 -8 26.98 3.44
2 10 -8 30.32 3.74
2 10 -8 33.23 6.18
2 -10 -7 114.92 6.38
2 10 -7 116.57 6.49
2 10 -7 126.5 9.81
-2 -10 7 115.03 9.18
-2 10 7 94.83 8.96
-2 -10 7 106.6 11.32
2 10 -7 104.31 8.37
2 -10 -7 103.63 8.34
2 10 -6 60.96 4.29
2 -10 -6 61.95 4.28
-2 10 6 71.82 7.52
-2 -10 6 48.19 6.62
2 10 -6 64.39 7.29
2 10 -6 61.36 5.99
-2 -10 6 45.65 7.67
-2 -10 6 67.35 6.31
-2 10 6 63.63 6.25
-2 -10 5 2865.45 84.56
-2 10 5 2669.71 85.02
2 10 -5 2761.97 85.22
2 10 -5 2836.11 77.89
2 -10 -5 2697.83 77.61
-2 -10 5 2608.86 80.48
-2 10 5 2628.53 80.19
-2 -10 5 2790.34 88.6
2 10 -4 0.67 3.14
-2 -10 4 8.97 4.2
2 -10 -4 2.37 1.41
2 10 -4 6.36 1.67
-2 -10 4 5.88 2.54
-2 10 4 0.28 2.07
-2 10 4 6.75 3.48
-2 -10 4 4.84 3.6
-2 -10 3 3685.11 106.11
-2 -10 3 3458.25 102.85
-2 10 3 3583.61 104.26
2 10 -3 3275.68 103.36
2 -10 -3 3448.89 96.08
2 10 -3 3434.59 95.96
-2 -10 3 3288.12 96.7
-2 10 3 3367.38 96.58
2 10 -2 292.67 10.53
2 -10 -2 293.59 10.71
-2 -10 2 278.01 15.68
-2 -10 2 270.61 9.91
-2 10 2 279.86 9.82
2 10 -1 1500.48 45.04
2 -10 -1 1483.32 45.25
-2 -10 1 1657.03 52.04
-2 10 1 1552.11 43.39
-2 -10 1 1525.66 43.47
2 10 -1 1517 52.17
-2 10 1 1515.73 51.83
2 -10 0 1379.91 43.25
2 10 0 1447.85 43.15
-2 -10 0 1442.32 48.13
2 10 0 1532.08 50.48
-2 10 0 1456.91 40.85
-2 -10 0 1442.2 40.9
-2 10 0 1304.91 48.66
-2 -10 0 1507.84 48.68
-2 10 -1 831.45 32.63
-2 -10 -1 759.16 30.99
-2 -10 -1 869.47 25.34
-2 10 -1 850.27 25.5
-2 10 -1 861.55 33.35
-2 -10 -1 849.59 30.79
2 -10 1 839.79 27.78
2 10 1 842.78 27.49
2 -10 2 433.37 17.37
2 10 2 461.51 17.31
-2 10 -2 474.23 21.36
-2 -10 -2 471.68 18.99
-2 -10 -2 455.44 15.72
2 10 2 404.25 21.05
-2 10 -2 441.3 15.84
2 10 3 3.85 3.84
-2 10 -3 5.5 3.78
2 -10 3 7.24 2.7
2 10 3 12.9 3.16
-2 -10 -3 5.72 2.83
-2 10 -3 7.21 2.43
-2 -10 -3 8.51 2.8
-2 10 -4 208.55 11.1
-2 -10 -4 221.75 11.23
-2 10 -4 173.89 12.45
2 10 4 212.9 11.53
2 -10 4 208.69 11.58
-2 10 -5 856.07 33.25
-2 10 -5 897.71 31.82
-2 -10 -5 837.26 31.24
2 10 5 870.31 31.79
2 -10 5 843.79 31.86
-2 -10 -6 271.59 15.32
-2 10 -6 287.15 15.63
-2 10 -6 313.07 16
-2 -10 -6 273.88 15.24
-2 10 -6 297.21 16.19
-2 10 -7 5.49 4.24
-2 -10 -7 9.74 4.45
-2 10 -7 15.42 4.81
-2 10 -8 1242.07 44.44
-2 10 -8 1257.96 45.5
-2 -10 -8 1286.89 45.73
-2 10 -9 84.15 8.77
-2 10 -9 75.7 8.87
-2 -10 -9 63.58 8.71
-2 10 -10 33.58 6.58
-2 10 -10 33.73 6.98
-2 -10 -10 46.33 7.99
-2 10 -11 195.5 14.72
-2 -10 -11 193.22 14.83
-2 -10 -12 53.63 9.17
-2 10 -12 49.89 9.08
2 11 -13 28.7 5.65
2 -11 -13 19.68 4.87
2 -11 -12 65.08 6.6
2 11 -12 62.97 6.67
-2 -11 12 58.18 11.35
-2 11 12 55.02 7.74
2 -11 -11 702.13 25.47
2 11 -11 715.52 25.69
-2 11 11 663.64 28.3
-2 -11 11 683.86 35.72
-2 11 10 63.65 8
2 11 -10 61.56 5.8
2 -11 -10 63.49 5.72
-2 -11 10 62.5 10.46
2 -11 -9 684.46 23.94
2 11 -9 724.74 24.36
-2 11 9 649.68 22.81
2 11 -9 687.21 29.26
-2 11 9 741.73 29.15
2 11 -8 487.95 17.94
2 -11 -8 476.62 17.71
-2 11 8 560.98 23.87
2 11 -8 485.34 22.84
2 11 -8 484.1 21.77
2 -11 -8 507.84 21.96
2 11 -7 622.13 26.75
2 -11 -7 600.74 20.59
2 11 -7 625.11 20.84
-2 -11 7 643.1 30.86
-2 11 7 607.85 26.41
2 -11 -7 598.25 24.2
2 11 -7 617.94 24.47
2 11 -6 133.16 10.47
2 -11 -6 112.81 5.95
2 11 -6 122.74 6.24
-2 -11 6 111.39 11.53
-2 11 6 137.26 10.67
2 -11 -6 112.3 8.13
2 11 -6 117.47 8.39
2 11 -5 193.86 8.13
2 -11 -5 195.85 8.06
2 11 -5 203.58 13.24
-2 -11 5 205.47 14.94
-2 11 5 200.84 13.2
2 11 -5 180.77 9.87
-2 -11 5 214.42 10.51
-2 11 5 200.85 10.18
2 11 -4 434.91 20.79
-2 -11 4 398.24 15.58
-2 11 4 415.44 15.52
-2 -11 4 423.69 22.04
-2 11 4 403.55 20.36
2 -11 -4 411.37 14.11
2 11 -4 430.98 14.17
-2 -11 3 42.29 6.72
2 11 -3 49.84 7.09
2 11 -3 51.9 3.47
2 -11 -3 48.98 3.47
-2 -11 3 46.92 3.74
-2 11 3 48.15 3.67
-2 11 3 51.06 6.95
-2 -11 2 11.28 4.32
2 11 -2 9.08 1.96
2 -11 -2 9.62 2.12
2 11 -2 16.31 4.79
-2 -11 2 11.33 1.91
-2 11 2 14.24 1.86
2 11 -1 1774.41 51.52
2 -11 -1 1823.53 51.98
2 11 -1 1670.57 59.34
-2 -11 1 1789.51 59.42
-2 11 1 1699.37 59.57
-2 11 1 1763.14 50.19
-2 -11 1 1811.02 50.4
-2 11 0 439.2 13.59
-2 -11 0 447.96 13.67
-2 11 0 450.2 21.36
2 11 0 403.91 21.23
2 11 0 476.55 15.44
2 -11 0 458.78 15.8
-2 11 0 445.59 21.57
-2 11 -1 50.22 2.82
-2 11 -1 51.48 6.55
-2 -11 -1 58.75 6.4
2 11 1 46.7 3.89
2 -11 1 42.33 3.89
2 11 2 1654.57 49.36
2 -11 2 1590.32 49.8
2 11 2 1531.27 56.07
-2 11 -2 1619.22 55.54
-2 -11 -2 1712.58 53.08
-2 -11 -2 1657.69 47.6
-2 11 -2 1602.62 47.84
2 11 3 714.11 25.48
2 -11 3 756.75 26.05
-2 11 -3 761.27 30.39
-2 11 -3 706.54 24.48
-2 -11 -3 729.85 24.44
2 11 3 705.67 30.69
2 11 4 435.99 17.86
2 -11 4 442.94 18.35
-2 11 -4 426.09 17.45
-2 -11 -4 416.36 17.15
2 11 4 403.03 22
-2 11 -4 390.33 20.25
-2 -11 -5 135.34 9.22
-2 11 -5 134.91 9.44
-2 11 -5 121.99 10.39
-2 -11 -5 120.58 8.91
-2 11 -5 134.01 9.43
-2 -11 -6 290.83 15.33
-2 11 -6 253.66 14.87
-2 -11 -6 290.21 14.98
-2 11 -6 314.67 15.29
-2 11 -6 256.32 15.81
-2 11 -7 21.3 5.38
-2 11 -7 13.67 4.73
-2 -11 -7 15.66 4.86
-2 11 -8 1248.82 43.97
-2 -11 -8 1205.88 43.73
-2 11 -8 1206.9 44.18
-2 11 -9 1718.01 59.89
-2 -11 -9 1761.28 60.16
-2 11 -9 1865.85 60.35
-2 11 -10 32.54 6.76
-2 11 -10 36.26 7.37
-2 -11 -10 33.81 7.04
-2 11 -11 128.81 12.08
-2 -11 -11 123.72 12.04
-2 12 12 259 16.34
2 12 -12 281.21 13.74
2 -12 -12 276.75 13.48
-2 12 11 74.24 9.25
-2 -12 11 80.29 12.52
2 12 -11 94.14 7.08
2 -12 -11 100.26 7.19
-2 12 10 600.75 26.47
2 -12 -10 548.2 20.82
2 12 -10 573.85 21.17
-2 -12 10 569.19 31.93
2 -12 -9 88.61 5.87
2 12 -9 83.79 5.99
-2 12 9 79.41 9.15
2 12 -9 62.03 8.59
2 -12 -8 39.39 4.08
2 12 -8 40.02 4.03
2 -12 -8 22.78 5.34
-2 12 8 31.56 6.65
2 12 -8 18.28 5.75
-2 12 8 24.27 4
-2 -12 8 20.95 7.1
-2 12 7 31.19 4.93
-2 -12 7 18.48 6.29
2 -12 -7 24.99 4.83
2 12 -7 25.61 4.92
2 12 -7 32.11 3.52
-2 12 7 36.3 6.87
2 12 -7 26.25 6.22
2 -12 -7 28.23 3.2
-2 12 6 231.52 15.17
2 12 -6 241.03 9.61
2 -12 -6 249.77 9.53
-2 12 6 213.4 12.13
-2 -12 6 214.8 16.77
2 -12 -6 222.27 11.95
2 12 -6 222.83 11.94
2 12 -6 262.12 15.7
-2 12 5 808.79 31.95
2 12 -5 764.08 23.37
2 -12 -5 729.53 23.08
2 -12 -5 725.92 25.7
2 12 -5 681.39 25.61
2 12 -5 715.65 30.62
-2 12 5 787.54 28.37
-2 -12 5 754.61 33.79
-2 12 4 674.58 29.12
2 12 -4 740.9 29.72
2 12 -4 660.29 22.72
-2 12 4 641.83 26.21
-2 -12 4 740.34 31.47
2 12 -4 675.84 21.13
2 -12 -4 643.02 21.05
-2 12 3 235.56 15
-2 12 3 208.3 8.57
-2 -12 3 197.46 8.65
-2 12 3 205.93 12.69
-2 -12 3 211.55 14.92
2 12 -3 195.99 13.73
2 12 -3 224.92 8.41
2 -12 -3 198.46 8.29
-2 12 2 53.7 7.14
-2 -12 2 68.47 8.4
-2 -12 2 54.91 3.43
-2 12 2 55.98 3.23
2 12 -2 66.27 8.4
2 12 -2 53.78 3.46
2 -12 -2 56.98 3.65
2 12 -1 264.3 9.43
2 -12 -1 285.21 10.06
2 12 -1 299.08 17.34
-2 -12 1 291.34 9.19
-2 12 1 277.13 8.89
-2 -12 1 307.84 16.84
2 -12 0 392.66 12.94
-2 12 0 375.32 11.27
-2 -12 0 376.79 11.4
-2 -12 0 410.31 19.71
2 12 0 350.35 12.13
-2 12 0 355.1 19.44
2 12 0 442.73 21.48
-2 12 -1 33.68 2.11
-2 -12 -1 36.95 2.16
2 12 1 37.86 3.11
2 -12 1 32.79 3.19
-2 -12 -1 35.14 5.92
-2 12 -1 37.98 6.78
-2 12 -2 474.14 22.91
2 12 2 436.65 22.95
2 -12 2 456.18 16.76
2 12 2 473.16 16.54
-2 -12 -2 456 14.86
-2 12 -2 454.66 15.14
-2 -12 -2 472.12 20.59
-2 12 -3 627.94 27.81
-2 12 -3 591.52 21.02
-2 -12 -3 640.3 21.06
2 -12 3 621.84 22.42
-2 12 -3 643.63 22.21
2 12 3 632.86 28.89
-2 12 -4 761.98 31.44
-2 -12 -4 737.2 25.65
-2 12 -4 699.31 25.71
-2 12 -4 758.21 26.34
-2 -12 -4 726.04 26.15
2 12 4 764.33 32.67
-2 12 -5 398.36 17.47
-2 -12 -5 379.24 17.15
-2 12 -5 396.37 20.66
-2 12 -5 405.64 17.32
-2 -12 -5 397.51 17.16
-2 12 -6 177.99 12.86
-2 -12 -6 134.86 10.64
-2 12 -6 150.11 10.85
-2 12 -6 167.41 10.51
-2 -12 -6 148.47 10.19
-2 12 -7 497.29 21.58
-2 -12 -7 495.03 21.56
-2 12 -7 505.35 24.04
-2 12 -8 15.23 4.82
-2 -12 -8 22.51 5.6
-2 12 -8 25.33 6.08
-2 12 -9 55.26 7.84
-2 -12 -9 62.75 7.93
-2 12 -9 56.28 8.16
-2 12 -10 149.03 12.36
-2 -12 -10 167.22 12.69
-2 12 -10 155.83 12.5
-2 12 -11 26.73 6.57
-2 -12 -11 25.92 6.76
2 -13 -12 79.53 6.99
2 13 -12 74.26 6.96
-2 13 11 80.81 9.91
2 -13 -11 75.62 6.38
2 13 -11 82.16 6.72
-2 13 10 340.78 19.95
2 -13 -10 345.35 14.51
2 13 -10 373.29 14.97
2 -13 -9 5.54 2.85
2 13 -9 4.79 2.72
-2 13 9 7.89 5.41
2 13 -9 2.58 4.86
2 -13 -8 1147.45 35.87
2 13 -8 1164.25 36.1
-2 -13 8 1197.33 49.7
-2 13 8 1243.31 44.8
2 13 -8 1141.78 43.83
2 -13 -8 1101.33 40.61
-2 13 7 3.58 4.45
2 13 -7 -0.87 4.67
2 -13 -7 1.18 1.98
2 13 -7 2.21 2.21
-2 -13 7 8.62 6.13
-2 13 7 1.86 3.3
2 -13 -7 -2.12 4.04
-2 13 6 506.12 21.06
2 -13 -6 497.91 20.01
2 13 -6 517.28 24.66
2 -13 -6 489.77 16.89
2 13 -6 514.29 17.16
-2 13 6 495.04 24.54
-2 13 5 21.73 4.78
-2 -13 5 25.79 6.42
2 13 -5 18.92 5.92
-2 13 5 20.95 5.83
2 -13 -5 18.52 3.77
2 13 -5 16.82 3.7
2 -13 -5 22.53 2.69
-2 13 4 1.24 3.73
-2 -13 4 9.06 5.68
2 13 -4 5.17 4.59
2 13 -4 4.93 2.45
2 -13 -4 3.78 2.29
2 -13 -4 6.69 1.76
2 13 -4 7.09 1.88
-2 13 4 7.94 4.62
2 13 -3 23.44 5.89
2 13 -3 28.66 2.87
2 -13 -3 30.74 2.81
2 13 -3 32.02 2.68
-2 13 3 26.22 6.15
2 -13 -3 32.77 3.04
-2 13 3 36.37 6.28
-2 -13 3 32.02 7.14
2 13 -2 1415.21 44.54
2 -13 -2 977.15 30.37
2 -13 -2 1088.12 30.46
-2 -13 2 1279.69 43.43
2 13 -1 202.26 14.69
-2 -13 1 179.76 13.46
-2 13 0 292.72 17.72
-2 -13 0 287.7 16.62
2 13 0 295.36 18.04
-2 13 -1 365.24 19.58
-2 -13 -1 397.36 18.68
-2 13 -1 324.96 9.71
-2 -13 -1 329.86 9.76
-2 -13 -1 289.63 10.51
-2 13 -1 320.28 10.47
-2 13 -2 166.72 7.52
-2 -13 -2 174.75 7.62
-2 13 -2 182.56 6.74
2 13 2 189.94 14.56
-2 13 -2 199.49 14.03
-2 13 -3 92.69 5.85
-2 -13 -3 75.92 5.49
-2 13 -3 111.59 10.58
2 13 3 106.66 11.14
-2 13 -3 102.98 5.55
-2 -13 -3 83.78 4.9
-2 13 -4 6.57 2.8
-2 -13 -4 6.23 2.67
-2 -13 -4 3.78 2.72
-2 13 -4 3.53 5.26
2 13 4 13.92 5.54
-2 13 -5 8.01 4.59
-2 -13 -5 2.99 2.93
-2 -13 -5 6.19 3.11
-2 13 -5 10.41 3.51
-2 -13 -6 146.86 10.31
-2 13 -6 147.81 9.58
-2 -13 -6 145.81 9.42
-2 13 -6 145.32 12.5
-2 13 -7 14.15 5.83
-2 13 -7 17.55 4.2
-2 -13 -7 7.6 3.44
-2 13 -8 286.03 15.26
-2 -13 -8 279.27 14.99
-2 13 -8 266.27 17.34
-2 13 -9 526.01 23.84
-2 -13 -9 530.03 23.76
-2 13 -9 576.78 26.33
-2 -13 -10 228.22 14.74
-2 13 -10 260.48 15.51
-2 14 11 447.7 23.77
2 -14 -11 416.78 16.89
2 -14 -10 -0.33 2.97
-2 14 10 7.66 5.48
2 14 -10 8.41 6.15
2 -14 -9 11.99 2.94
2 14 -9 14.92 6.57
-2 14 9 10.59 6.28
-2 -14 9 1.47 6.33
2 14 -8 137.7 7.23
-2 14 8 154.67 13.17
-2 -14 8 148.46 15.79
2 14 -8 142.02 12.99
2 -14 -8 131.75 7.03
-2 -14 7 36.55 8.91
-2 14 7 30.66 5.11
-2 14 7 35.81 7.29
2 14 -7 40.22 7.63
2 14 -7 34.88 3.62
2 -14 -7 39.77 3.64
2 -14 -7 35.85 5.54
-2 14 6 742.22 32.26
2 -14 -6 697.56 25.72
-2 -14 6 786.53 35.91
-2 14 6 729.95 27.7
2 14 -6 690.26 31.47
2 14 -6 736.51 22.84
2 -14 -6 685.58 22.49
2 -14 -5 411.56 15.77
2 14 -5 386.8 21.45
-2 14 5 441.52 22.72
2 -14 -5 388.02 13.77
2 14 -5 400.3 13.76
-2 -14 5 397.59 23.68
-2 14 5 397.39 18.85
2 -14 -4 804.84 25.6
-2 -14 4 870.97 37.19
2 -14 -4 806.92 24.8
-2 14 4 745.9 33.88
2 14 -4 793.27 24.65
2 14 -3 144.5 12.34
-2 -14 3 110.97 12.01
-2 14 3 127.67 11.94
-2 -14 2 3350.31 106.8
2 14 -2 3387.27 106.84
2 14 -1 23.08 6.03
-2 -14 1 21.69 6.04
-2 14 0 156.3 12.95
2 14 0 134.23 12.62
-2 14 -1 97.74 10.65
-2 14 -2 4.72 4.26
2 14 2 6.13 4.8
-2 -14 -2 3.93 1.08
-2 14 -2 3.85 1.44
-2 -14 -2 4.67 1.31
2 14 3 499.94 26.17
-2 14 -3 487.84 25.09
-2 -14 -3 517.86 15.86
-2 14 -3 499.26 16.81
-2 -14 -3 469.75 16.62
2 14 4 609.15 30.1
-2 -14 -4 606.25 20.41
-2 14 -4 582.55 20.81
-2 -14 -4 592.61 20.68
-2 14 -5 4.73 4.8
-2 14 -5 9.12 3.47
-2 -14 -5 5.72 3.05
-2 -14 -5 4.46 2.84
-2 14 -6 572 21.01
-2 -14 -6 506.33 20.37
-2 14 -6 495.94 25.71
-2 -14 -7 62.41 6.44
-2 14 -7 52.86 8.8
-2 -14 -8 366.19 17.17
-2 14 -8 370.51 21.01
-2 14 -9 19.45 7.14
-2 -14 -9 13.91 5.04
-2 -14 -10 84.92 8.82
-2 15 10 47.09 9.12
2 15 -10 70.44 10.32
2 -15 -10 57.89 5.25
2 -15 -9 2.52 2.53
-2 15 9 -4.2 5.93
2 15 -9 -5.02 6.26
2 -15 -8 303.18 11.83
-2 15 8 322.13 19.77
2 15 -8 268.48 18.73
-2 15 7 42.28 8.29
2 15 -7 30.18 7.81
2 -15 -7 35.17 3.4
-2 15 6 451.04 23.78
-2 -15 6 369.77 24.27
-2 15 6 391.47 18.45
2 -15 -6 399.37 13.79
2 15 -6 325.3 20.83
2 15 -5 115.51 12.1
2 -15 -5 108.59 6.75
2 -15 -5 113.22 5.63
-2 -15 5 128.52 13.44
-2 15 5 131.87 12.41
2 -15 -4 0.76 1.04
2 -15 -4 0.35 1.38
-2 15 4 -1.01 4.54
-2 -15 4 4.62 5.85
2 15 -4 6.04 5.53
-2 15 3 65.56 9.27
-2 -15 3 61 9.39
2 15 -3 70.01 9.9
2 15 -2 122.86 12.74
2 15 -1 58.12 9.4
2 15 0 455.06 24.86
-2 15 0 465.35 24.73
-2 15 -1 192.71 15.06
2 15 2 243.37 17.78
-2 15 -2 247.46 17.36
-2 15 -3 2.02 4.76
-2 -15 -3 2.49 1.18
-2 -15 -3 -0.11 1.5
2 15 3 -1.12 5.76
-2 -15 -4 427.58 15.12
2 15 4 480.81 26.02
-2 15 -4 492.97 25.11
-2 -15 -5 0.28 2.24
-2 15 -5 -2.03 5.57
-2 -15 -6 160.03 8.95
-2 15 -6 191.88 15.1
-2 -15 -7 127.8 8.58
-2 15 -7 160.82 13.81
-2 -15 -8 194.31 11.05
-2 15 -8 192.81 15.46
-2 -15 -9 3.2 3.72
-2 15 -9 5.03 6.34
-2 16 9 -3.38 6.87
2 16 -9 -1.07 7.08
-2 16 8 66.55 10.51
2 16 -8 51.72 9.85
-2 16 7 9.89 6.29
2 16 -7 8.65 6.36
2 16 -6 289.42 19.21
-2 16 6 249.45 18.43
2 16 -5 60.51 9.85
-2 16 5 67.98 9.93
2 16 -4 912.99 39.11
-2 16 4 894.55 39.04
2 16 -3 162.7 14.77
-2 16 3 190.19 15.31
2 16 -2 22.02 7.57
2 16 -1 361.46 22.17
2 16 0 5.65 6.38
-2 16 0 -5.33 5.67
-2 16 -1 125.56 12.61
2 16 2 315.33 21.13
-2 16 -2 345.96 20.92
2 16 3 8.35 6.25
-2 16 -3 11.72 6.35
2 16 4 878.05 39.45
-2 16 -4 833.76 37.15
-2 16 -5 12.89 6.4
-2 16 -6 718.9 33.36
-2 16 -7 29.95 7.77
-2 16 -8 82.13 11.18
2 17 -8 291.13 20.17
-2 17 8 281.57 20.43
2 17 -7 151.47 14.86
-2 17 7 141.83 14.51
2 17 -6 144.29 14.52
-2 17 6 151.72 15.1
2 17 -5 197.74 16.15
-2 17 5 180.33 15.98
2 17 -4 33.71 8.6
-2 17 4 37.89 8.68
2 17 -3 194.29 16.48
-2 17 3 176.16 15.51
2 17 -2 322.27 21.38
2 17 -1 243.04 18.35
2 17 0 735.95 35.91
-2 17 0 778.32 35.53
-2 17 -1 48.85 8.85
2 17 2 342.86 22.64
-2 17 -2 306.63 20.6
2 17 3 -1.27 7.46
-2 17 -3 5.68 6.59
2 17 4 153.01 15.41
-2 17 -4 127.17 13.53
-2 17 -5 5.68 6.51
-2 17 -6 349.67 22.27
-2 17 -7 115.3 13.3
-2 18 7 -1.27 7.44
2 18 -7 -3.69 7.42
-2 18 6 114.05 13.4
2 18 -6 113.69 13.96
2 18 -5 171.84 16.3
-2 18 5 173.51 16.15
2 18 -4 536.81 29.39
-2 18 4 537.62 29.45
-2 18 3 40.19 9.7
2 18 -3 63.7 11.17
2 18 -2 322.43 22.27
2 18 -1 40.81 9.96
2 18 0 50.45 10.56
-2 18 0 49.82 9.93
-2 18 -1 14.49 7.28
2 18 2 107.67 13.8
-2 18 -2 78.4 11.39
2 18 3 35.13 9.88
-2 18 -3 25.34 7.99
2 18 4 754.22 38.81
-2 18 -4 860.3 38.37
-2 18 -5 74.54 11.33
-2 18 -6 118.51 13.83
-2 19 5 53.56 10.54
2 19 -5 58.05 12.38
-2 19 4 9.18 7.4
2 19 -4 -2.65 7.89
-2 19 3 98.52 13.07
2 19 -3 100.24 13.98
2 19 -2 14.82 8.61
2 19 -1 12.23 7.89
2 19 0 27.54 9.09
-2 19 0 23.54 8.81
-2 19 -1 353.15 23.85
2 19 2 119.91 14.98
-2 19 -2 108.95 13.83
2 19 3 147.71 16.61
-2 19 -3 141.31 15.45
2 19 4 79.29 13.35
-2 19 -4 79.52 12.02
2 20 -2 355.13 24.54
-2 20 2 311.2 23.22
2 20 -1 126.8 15.95
-2 20 0 147.6 16.1
2 20 0 164.58 17.63
-3 0 15 553.18 26.95
3 0 -15 565.66 24.22
3 0 -14 4.32 3.58
-3 0 14 7.09 4.49
3 0 -13 592.69 25.09
-3 0 13 724.63 29.64
3 0 -12 5.8 3.33
-3 0 12 -0.82 4.25
3 0 -11 1256.56 41.78
3 0 -10 -1.3 2.51
-3 0 10 -0.19 1.04
3 0 -9 93.35 6.75
-3 0 8 0.58 3.03
3 0 -8 4.84 2.45
-3 0 7 3097.88 92.92
3 0 -7 3146.51 90.42
-3 0 6 3.42 2.29
3 0 -6 0.53 1.46
3 0 -5 8825.55 247.34
-3 0 5 9051.25 248.6
3 0 -4 -2.21 1.25
-3 0 4 2.32 1.53
3 0 -3 45.03 3.5
-3 0 3 52.97 3.46
3 0 -2 1.56 1.2
-3 0 2 4 1.22
-3 0 1 396.58 13.92
3 0 -1 414.32 15.48
-3 0 0 0.76 1.2
3 0 0 1.79 1.47
-3 0 -1 719.27 24.83
3 0 1 740.11 26.29
-3 0 -2 2.46 2.19
3 0 2 6.07 2.52
-3 0 -3 6720.49 191.73
3 0 3 6730.04 193.11
3 0 4 1.34 3.03
-3 0 -4 0.58 2.57
-3 0 -5 3509.32 105.24
3 0 5 3403.62 106.16
3 0 6 0.82 3.71
3 0 7 18.09 6.04
-3 0 -8 -1.6 3.2
3 0 8 0.97 4.09
-3 0 -9 2071.75 62.95
3 0 9 1820.16 68.59
3 0 10 2.26 6.01
-3 0 -11 643.56 33.57
-3 0 -12 -1.36 6.53
-3 0 -13 748.29 37.78
-3 -1 15 3.95 5.65
-3 1 15 -0.84 4.91
3 1 -15 7.24 3.72
-3 1 14 12.28 5.28
-3 -1 14 0.96 5.01
3 1 -14 10.48 4.27
3 1 -13 174.5 11.03
-3 1 13 153.21 12.13
-3 -1 13 136.9 12.47
3 1 -12 162.26 10.57
-3 -1 12 169 13.39
3 1 -11 43.66 5.45
-3 1 10 97.36 4.34
-3 -1 10 98.5 4.07
3 1 -9 3070.62 79.56
-3 -1 9 2465.47 75.43
-3 1 8 659.32 25.89
3 1 -8 633.76 22.7
-3 1 7 271.33 13.14
3 1 -7 245.24 10.89
-3 1 6 238.56 11.48
3 1 -6 241.34 10.21
3 1 -5 172.41 7.78
-3 1 5 165.86 8.4
3 1 -4 1000.36 30.72
-3 1 4 994.13 30.99
3 1 -3 752.99 24.66
-3 1 3 796.25 24.2
-3 1 2 3.49 1.21
3 -1 -2 3.12 1.32
3 1 -2 2.34 1.1
3 -1 -1 22.39 2.8
-3 1 1 28.96 2.55
3 1 -1 29.87 3.14
3 -1 0 1516.11 47.88
3 1 0 1570 47.95
-3 1 0 1554.87 46.42
3 1 1 4740.11 133.42
3 -1 1 4528.83 133.3
-3 1 -1 4606.29 131.6
3 1 2 55.57 5.58
-3 1 -2 54.52 5.33
3 -1 3 31.25 4.65
3 1 3 33.52 4.99
-3 1 -3 28.09 4.57
3 1 4 36.89 5.27
3 -1 4 24.2 4.54
-3 1 -4 30.31 4.97
-3 1 -5 1929.84 62.94
3 1 5 1941.32 64.3
3 -1 5 1919.02 64.21
3 -1 6 114.13 10.26
3 1 6 114.71 10.3
-3 1 -7 1756.55 54.54
3 1 7 1615.02 58.15
3 -1 7 1548.99 57.95
-3 1 -8 114 9.07
-3 -1 -8 128.18 8.6
3 -1 8 115.84 11.45
3 1 8 134.14 12.04
-3 -1 -9 838.24 29.21
-3 1 -9 812.53 30.7
3 1 9 778.93 35.36
3 1 10 128.6 13.14
3 -1 10 183.02 14.96
-3 1 -11 444.02 26.7
-3 1 -12 6.78 6.87
-3 1 -13 98.37 12.96
3 2 -15 437.38 20.79
-3 -2 15 476.09 25.46
3 2 -14 182.3 11.44
-3 -2 14 151.62 13.85
-3 2 14 151.14 11.99
3 2 -13 827.34 31.16
-3 2 13 845.71 33.23
-3 -2 13 859.87 36.19
-3 -2 12 63.86 8.62
3 2 -12 65.01 6.65
3 2 -11 50.25 5.54
-3 2 10 62.97 3.84
-3 -2 10 84.38 4.28
-3 -2 9 1516.77 47.4
3 2 -9 1783.32 50.62
3 2 -8 315.39 13.01
-3 2 8 319.43 15.66
-3 -2 8 272.7 11.74
3 2 -7 3673.2 105.28
-3 2 7 3789.97 108.19
-3 -2 7 3600.88 105.26
-3 2 6 1822.65 56.31
3 2 -6 1854.56 54.59
3 2 -5 2683.96 77.54
-3 2 5 2720.11 78.64
3 2 -4 272.9 10.71
-3 2 4 286.44 11.03
3 2 -3 4.13 1.42
-3 2 3 2.73 1.34
3 2 -2 234.43 10.05
-3 2 2 240.87 9
-3 2 1 1108.18 34.06
3 2 -1 1173.44 35.86
3 2 0 48.07 4.39
-3 2 0 46.61 3.76
3 2 1 3077.25 90.75
-3 2 -1 3056.14 89.07
3 2 2 407.62 18.04
-3 2 -2 434.52 17.4
3 2 3 2230.97 71.09
-3 2 -3 2307.06 70.03
-3 2 -4 83.82 7.56
3 2 4 89.47 8.08
3 2 5 7.48 3.72
-3 2 -5 1.33 3.49
3 2 6 94.04 9.23
-3 2 -7 512.88 21.73
3 2 7 428.89 23.24
-3 2 -8 229.09 13.65
-3 -2 -8 222.35 11.31
3 2 8 229.97 16.32
-3 -2 -9 42.68 5.48
3 2 9 33.7 7.23
-3 -2 -9 37.42 4.97
-3 2 -9 56.05 7.44
3 2 10 236.94 17.51
-3 2 -11 1233.63 51.42
-3 2 -12 65.66 11.42
-3 2 -13 306.57 22.43
-3 -3 15 -2.27 6.23
3 -3 -15 2.6 4.14
3 3 -15 6.51 4.38
3 -3 -14 114.57 9.1
3 3 -14 111.48 8.78
-3 -3 14 85.26 11.04
-3 3 14 90.66 8.98
3 -3 -13 174.18 11.05
3 3 -13 172.86 11.1
-3 -3 13 161.74 14.24
-3 3 13 168.77 11.96
-3 -3 12 36.38 7.4
3 -3 -12 34.75 5.15
3 3 -12 30.79 5.06
-3 -3 11 652.74 29.03
3 -3 -11 580.6 22.87
3 3 -11 581.5 23
-3 3 10 502.41 18.47
-3 -3 10 550.95 18.72
3 -3 -10 702.49 22.94
3 3 -10 682.86 22.86
-3 -3 9 253.88 11.06
3 3 -9 291.47 12.88
3 -3 -9 294.46 12.81
-3 3 8 1325.06 42.74
3 -3 -8 1238.7 38.62
3 3 -8 1245.96 38.66
-3 -3 7 434.03 16.74
-3 -3 7 416.06 18.28
-3 3 7 454.85 18.72
3 -3 -7 447.84 16.41
3 3 -7 453.09 16.49
-3 -3 6 560.39 19.58
-3 -3 6 519.99 19.78
-3 3 6 498.31 19.67
3 -3 -6 517.86 18.07
3 3 -6 501.21 18
-3 3 5 1293.9 40.37
-3 -3 5 1257.3 40.27
3 -3 -5 1327.9 39.33
3 3 -5 1314.56 39.35
-3 3 4 869.51 27.59
-3 -3 4 893.89 27.72
3 -3 -4 881.85 27.4
3 3 -4 854.01 27.36
-3 3 3 794.68 24.21
-3 -3 3 743.22 24.03
3 -3 -3 784 24.78
3 -3 -3 761.38 24.79
3 3 -3 801.57 25.04
3 3 -3 773.89 24.77
3 3 -2 1382.6 42.83
3 -3 -2 1442.93 42.94
-3 3 2 1425.53 41.38
-3 -3 2 1406.54 41.37
3 3 -1 3423.09 98.31
3 -3 -1 3422.9 98.29
-3 3 1 3430.35 96.45
-3 -3 1 3390.98 96.34
3 -3 0 401.85 16.31
3 3 0 411.37 16.38
-3 -3 0 428.04 14.99
-3 3 0 407.91 14.95
-3 -3 -1 4802.29 136.5
-3 3 -1 4880.25 136.57
3 3 1 4894.78 138.49
3 -3 1 4626.1 138.18
-3 -3 -2 241.93 11.48
-3 3 -2 214.86 11.14
3 3 2 229.57 12.25
3 -3 2 238.93 12.43
-3 3 -3 192.72 10.92
-3 -3 -3 172.07 10.3
3 -3 3 182.2 11.38
3 3 3 179.47 11.22
-3 3 -4 2.32 2.73
-3 -3 -4 0.58 2.92
3 3 4 2.69 2.68
3 -3 4 2.03 2.85
3 3 5 187.63 12.83
3 -3 5 173.75 12.46
-3 3 -5 180.85 11.95
-3 -3 -5 184.2 12.1
3 3 6 1379.79 48.97
3 -3 6 1320.78 48.51
-3 3 -7 213.81 13.29
3 3 7 193.96 14.24
3 -3 7 200.47 14.36
-3 3 -8 829.82 31.82
-3 -3 -8 826.01 26.86
3 3 8 731.56 33.72
3 -3 8 741.89 33.72
-3 -3 -8 782.4 28.66
3 3 9 316.82 19.72
3 -3 9 275.42 18.88
-3 -3 -9 329.43 14.99
3 3 10 64.34 9.88
3 -3 10 58.81 9.24
-3 -3 -11 -5.26 6.31
-3 3 -11 -1.29 6.76
-3 3 -12 18.52 8.28
-3 -3 -12 32.49 8.57
-3 3 -13 180.76 17.29
-3 -3 -13 233.62 19.4
3 -4 -15 197.02 12.8
3 4 -15 195.65 12.63
-3 -4 15 208.2 17.74
3 -4 -14 610.81 24.47
3 4 -14 587.98 24.21
-3 -4 14 565.19 29.89
-3 4 14 565.03 24.17
-3 -4 13 396.08 23.16
-3 4 13 372.46 18.32
3 -4 -13 407.95 18.15
3 4 -13 389.21 17.92
-3 -4 12 86.08 10.59
3 -4 -12 94.65 7.72
3 4 -12 85.63 7.39
3 -4 -11 416.75 17.56
3 4 -11 413.43 17.59
-3 4 11 386.15 13.92
3 -4 -10 335.74 14.55
3 4 -10 342.63 14.83
-3 4 10 328.9 12.67
3 -4 -9 103.48 6.84
3 4 -9 96.77 6.88
-3 4 9 86.91 5.99
-3 -4 9 78.36 5.76
-3 -4 8 793.31 27.66
-3 4 8 875.03 31.67
3 -4 -8 844.29 27.97
3 4 -8 839.71 28.04
-3 -4 7 1569.5 50.29
-3 4 7 1586.83 50.41
3 -4 -7 1657.3 47.75
3 4 -7 1597.94 47.65
-3 -4 6 518.34 20.96
-3 4 6 559.04 21.24
-3 -4 6 584.7 21.2
3 -4 -6 578.17 19.61
3 4 -6 602.75 19.78
-3 -4 5 2774.45 85.22
3 -4 -5 2891.53 82.86
3 4 -5 2910.79 82.93
-3 -4 5 2910.34 84.09
-3 4 5 2952.12 84.13
-3 -4 4 1082.18 37.43
-3 -4 4 1126.17 35.07
-3 4 4 1176 35.25
3 4 -4 1173.31 35.07
3 -4 -4 1159.71 34.97
-3 4 3 1669.39 46.76
-3 -4 3 1582.2 46.61
3 4 -3 1583.3 47.51
3 -4 -3 1539.12 47.32
-3 -4 2 2946.92 83.9
-3 4 2 2977.87 83.89
3 -4 -2 3042.63 85.63
3 4 -2 2931.93 85.55
3 -4 -1 316.87 13.13
-3 -4 1 325.37 11.5
-3 4 1 302.48 11.4
3 4 -1 332.29 13.16
-3 4 0 2176.19 65.08
-3 -4 0 2242.12 65.04
3 4 0 2299.99 67.3
3 -4 0 2280.43 67.21
3 4 1 3287.91 95.92
3 -4 1 3305.61 96.14
-3 4 -1 3195.35 93.85
-3 -4 -1 3235.29 93.86
3 4 2 2591.11 79.52
3 -4 2 2615.28 79.66
-3 4 -2 2699.05 78.28
-3 -4 -2 2577.11 78
3 -4 3 788.32 29.69
3 4 3 740.64 29.09
-3 4 -3 778.95 28.23
-3 -4 -3 763.78 28.15
3 -4 4 234.56 13.83
3 4 4 226.72 13.76
-3 -4 -4 238.08 13.29
-3 4 -4 237.84 13.31
3 4 5 1802.17 61.32
3 -4 5 1825.27 61.17
-3 4 -5 1896.73 60.36
-3 -4 -5 1795.03 59.81
-3 -4 -5 1819.74 57.58
3 4 6 1020.89 40.01
3 -4 6 1045.09 40.44
-3 -4 -6 1085.28 36.45
3 4 7 65.28 8.73
3 -4 7 72.04 8.83
-3 -4 -7 65.89 6.47
-3 4 -7 63.84 7.99
-3 -4 -8 1889.31 55.18
-3 -4 -8 1926.04 59.25
3 4 8 1819.98 65.32
3 -4 8 1809.92 65.34
-3 -4 -9 18.13 4.6
3 4 9 12.55 5.92
3 -4 9 16.84 5.79
3 4 10 236.46 17.45
3 -4 10 251.24 17.88
-3 4 -11 322.47 22.22
-3 -4 -11 318.05 22.31
-3 -4 -12 129.99 15.08
-3 4 -12 116.66 13.92
-3 4 -13 44.84 9.86
-3 -4 -13 19.49 9.02
3 5 -15 18.49 5.39
3 -5 -15 18.34 5.44
-3 -5 15 14.14 7.57
3 -5 -14 13.59 4.49
3 5 -14 10.13 4.46
-3 -5 14 7.38 6.85
3 -5 -13 22.47 4.69
3 5 -13 13.28 4.32
-3 5 13 17.63 4.94
-3 -5 13 15.29 6.75
-3 -5 12 438.53 24.03
3 -5 -12 431.42 17.83
3 5 -12 479.31 18.62
-3 5 11 83.52 5.66
3 -5 -11 94.31 7.09
3 5 -11 86.08 6.93
-3 -5 11 95.01 10.85
-3 5 10 571.83 20.45
-3 -5 10 505.53 19.95
3 5 -10 623.28 22.28
3 -5 -10 576.23 21.76
-3 -5 10 663.39 29.32
-3 -5 9 243.73 11.2
-3 5 9 237.52 11.27
3 -5 -9 227.73 11.21
3 5 -9 230.45 11.37
3 5 -8 11.48 2.66
-3 -5 8 6.27 2.75
-3 -5 7 100.36 6.99
-3 -5 7 115.15 8.13
-3 5 7 98.62 7.66
3 -5 -7 92.6 5.99
3 5 -7 99.11 6.04
-3 -5 6 135.98 8.28
3 -5 -6 135.2 6.91
3 5 -6 131.69 6.94
-3 -5 6 140.05 8.4
-3 5 6 134.15 8.3
-3 -5 5 2.53 2.42
-3 -5 5 5.08 2.26
-3 5 5 2.22 1.89
3 -5 -5 4.05 1.68
3 5 -5 9.46 1.95
3 5 -4 1288.19 38.59
3 -5 -4 1239.55 38.39
-3 5 4 1243.32 38.59
-3 -5 4 1254.58 38.65
3 5 -3 1117.37 35.05
3 -5 -3 1147.03 35.15
-3 -5 3 1151.44 38.06
-3 5 3 1148.22 34.26
-3 -5 3 1147.19 34.29
3 5 -2 1074.8 33.49
3 -5 -2 1066.79 33.52
-3 -5 2 1064.88 31.85
-3 5 2 1066.34 31.83
-3 -5 1 104.83 5.07
-3 5 1 97.08 4.95
3 5 -1 87.6 5.9
3 -5 -1 93.82 6.13
-3 -5 1 103.49 7.38
-3 -5 0 1733.85 54.06
-3 -5 0 1721.34 50.6
-3 5 0 1713.68 50.69
3 -5 0 1679.19 52.8
3 5 0 1728.69 52.85
-3 -5 -1 1659.91 53.13
-3 5 -1 1607.81 50.58
-3 -5 -1 1692.78 50.76
3 -5 1 1781.33 53.33
3 5 1 1675.02 52.76
-3 -5 -2 643.35 24.52
3 5 2 671.15 25.14
3 -5 2 618.18 24.68
-3 -5 -2 646.34 23.41
-3 5 -2 660 23.59
-3 -5 -3 -0.47 2.45
3 5 3 0.59 2.43
3 -5 3 -0.6 2.59
-3 5 -3 0.96 2.76
-3 -5 -3 -0.48 2.65
-3 -5 -4 60.36 6.04
3 5 4 60.07 6.79
3 -5 4 64.21 7.13
-3 5 -4 63.56 6.74
-3 -5 -4 78.37 7.24
-3 -5 -5 281.43 14.34
3 5 5 275.09 16.24
3 -5 5 322.13 17.17
-3 5 -5 326.01 16.48
-3 -5 -5 307.81 16.24
-3 5 -6 850 33.35
-3 -5 -6 841.64 30.24
3 -5 6 781.46 33.3
3 5 6 822.2 33.77
-3 -5 -7 676.3 21.61
-3 -5 -7 700.31 26.05
3 -5 7 675.86 30.42
3 5 7 696.62 30.61
-3 -5 -8 1917.32 60.38
3 5 8 1984.42 67.3
3 -5 8 1863.28 66.39
3 5 9 403.7 22.6
3 -5 9 351.67 21.57
3 5 10 502.54 27.01
3 -5 10 485.33 26.78
-3 5 -10 555 28.94
-3 -5 -10 507.11 28.12
-3 5 -11 53.99 10.18
-3 -5 -11 46.5 9.43
-3 5 -12 12.95 7.32
-3 -5 -12 9.33 8.04
-3 5 -13 49.22 10.39
-3 -5 -13 37.09 9.65
3 -6 -15 109.75 9.35
3 6 -15 102.02 9.06
-3 -6 15 111.67 13.98
3 -6 -14 739.13 28.55
3 6 -14 742.27 28.68
-3 -6 14 743.15 36.69
3 -6 -13 327.07 15.84
3 6 -13 314.64 15.61
-3 -6 13 315.92 21.63
-3 6 12 458.1 16.58
3 -6 -12 442.55 19.11
3 6 -12 444.98 19.3
3 -6 -11 5.94 2.79
3 6 -11 2.32 2.9
-3 6 11 7.51 2.91
-3 -6 11 -1.11 5.12
-3 6 10 151.29 8.96
-3 -6 10 152.91 8.92
-3 -6 10 175.31 14.52
3 -6 -10 170.32 9.51
3 6 -10 190.78 10.03
-3 6 9 7.41 2.95
-3 -6 9 10.66 3.31
3 -6 -9 17.39 3.26
3 6 -9 11.64 2.97
-3 -6 9 15.84 5.67
3 -6 -8 109.39 6.79
3 6 -8 112.67 7
-3 6 8 116.52 8
-3 -6 8 113.48 7.73
-3 -6 7 59.3 5.78
3 -6 -7 58.53 4.52
3 6 -7 47.5 4.18
-3 -6 7 48.28 5.84
-3 6 7 56.98 6.07
-3 -6 6 1822.92 53.89
-3 -6 6 1584.8 52.47
-3 6 6 1688.78 52.72
3 -6 -6 1705.87 50.55
3 6 -6 1701.81 50.66
3 -6 -5 95.31 5.37
3 6 -5 95.87 5.47
-3 -6 5 88.64 6.02
-3 6 5 89.04 6.05
-3 -6 5 81.05 6.92
-3 -6 4 1640.06 50.97
3 6 -4 1651.74 47.56
3 -6 -4 1554.41 47.18
-3 6 4 1607.63 47.61
-3 -6 4 1554.42 47.47
-3 -6 3 216.83 11.39
3 6 -3 205.38 9.01
3 -6 -3 204.37 9.02
-3 6 3 205.84 8.36
-3 -6 3 204.29 8.33
-3 -6 2 2381.87 67.22
-3 6 2 2349.06 67.18
3 6 -2 2384.38 69.03
3 -6 -2 2325.39 69.06
-3 -6 1 45.84 3.11
-3 6 1 47.68 3.27
3 6 -1 41.36 4.08
3 -6 -1 35.19 3.77
-3 -6 1 39.2 5.02
-3 -6 0 1529.46 48.98
3 -6 0 1465.95 47.38
3 6 0 1497.15 47.31
-3 6 0 1506.68 44.99
-3 -6 0 1550.81 44.96
-3 -6 -1 2556.76 77.33
-3 -6 -1 2532.59 74.03
-3 6 -1 2523.57 74.12
3 6 1 2559.38 76.5
3 -6 1 2515.51 76.62
-3 -6 -2 676.52 25.66
-3 6 -2 673.36 24.16
-3 -6 -2 667.67 24.03
3 6 2 694.5 26.04
3 -6 2 683.98 26.08
-3 6 -3 98.74 7.54
-3 -6 -3 97.44 7.46
-3 -6 -3 94.63 7.6
3 6 3 105.38 8.39
3 -6 3 90.97 8.01
-3 -6 -4 1992.16 63.15
3 6 4 2010.5 64.64
3 -6 4 2021.34 64.86
-3 6 -4 2013.4 63.31
-3 -6 -4 1924.11 62.32
3 6 5 563.42 25.15
3 -6 5 528.23 24.73
-3 6 -5 583.06 24.42
-3 -6 -5 575.04 24.28
-3 -6 -5 576.21 22.88
3 6 6 162.98 12.49
3 -6 6 179.05 12.86
-3 -6 -6 151.62 10.24
3 6 7 300.95 18.27
3 -6 7 294.28 18.24
-3 -6 -7 332.55 15.79
3 6 8 502.06 25.54
3 -6 8 462.71 24.64
-3 -6 -8 514.61 21.32
3 6 9 303.55 19.39
3 -6 9 289.33 19.28
-3 -6 -10 413.8 24.21
-3 6 -10 340.9 22.5
3 -6 10 359.88 22.08
-3 6 -11 -1.23 6.73
-3 -6 -11 -10.15 7.64
-3 6 -12 259.52 20.09
-3 -6 -12 240.77 19.58
-3 -7 14 5.5 8.08
3 -7 -14 6.97 4.13
3 7 -14 12.96 5.08
3 -7 -13 245.6 13.23
3 7 -13 243.78 13.31
-3 -7 13 236.33 19.29
-3 7 12 600.83 22.65
-3 -7 12 668.87 33.07
3 7 -12 638.18 24.7
3 -7 -12 685.75 24.93
3 -7 -11 17.99 3.59
3 7 -11 16.46 3.7
-3 7 11 12.12 3.78
-3 -7 11 24.67 7.26
-3 -7 10 394.08 17.13
-3 7 10 431.19 17.76
3 -7 -10 395.98 16.76
3 7 -10 415.83 17.08
-3 -7 10 459.46 24.68
-3 -7 9 4.2 2.98
-3 7 9 3.5 2.78
3 -7 -9 4.38 2.5
3 7 -9 4.09 2.71
-3 -7 9 1.03 4.53
-3 -7 8 629.46 23.24
-3 7 8 589.61 23.41
3 -7 -8 574.05 20.93
3 7 -8 575.43 21.1
-3 7 7 36.47 5.09
-3 -7 7 49.74 5.69
-3 -7 7 41.17 5.48
-3 7 7 39.77 5.22
3 -7 -7 39.97 3.89
3 7 -7 38.99 3.94
-3 -7 6 64.15 6.45
3 -7 -6 58.4 4.45
3 7 -6 58.29 4.42
-3 -7 6 64.39 5.79
-3 7 6 74.07 6.04
-3 -7 5 142.41 9.29
3 -7 -5 150.49 7.12
3 7 -5 142.47 7.05
-3 -7 5 144.03 8.05
-3 7 5 148.59 8.07
-3 -7 4 604.69 24.51
-3 7 4 654.45 21.58
-3 -7 4 668.58 21.62
3 -7 -4 618.06 21.05
3 7 -4 657.05 21.33
3 7 -3 3.38 1.59
3 -7 -3 3.93 1.75
-3 7 3 3.54 1.5
-3 -7 3 3.97 1.47
-3 -7 3 7.69 3.17
3 7 -2 4800.62 135.37
3 -7 -2 4692.05 135.41
-3 7 2 4771.11 133.33
-3 -7 2 4842.81 133.36
-3 7 1 124.83 5.66
-3 -7 1 133.86 5.78
3 -7 -1 123.38 7.31
3 7 -1 116.13 7.04
-3 -7 1 121.58 8.7
3 -7 0 5074.56 144.22
3 7 0 5141.29 144.03
-3 7 0 5015.99 141.09
-3 -7 0 5027.25 140.99
-3 -7 0 4958.4 145.85
-3 -7 -1 92.08 5.66
-3 7 -1 85.9 5.54
-3 -7 -1 97.81 7.76
3 -7 1 93.33 7.16
3 7 1 84.64 6.65
-3 -7 -2 162.75 8.82
-3 7 -2 168.78 9.05
-3 -7 -2 177.73 10.74
3 7 2 137.91 9.49
3 -7 2 155.87 10
-3 -7 -3 93.98 7.93
3 -7 3 105.25 8.57
3 7 3 109.5 8.66
-3 7 -3 116.48 8.06
-3 -7 -3 110.64 7.8
3 -7 4 4.06 3.31
3 7 4 5.31 3.42
-3 -7 -4 5.37 3.2
-3 -7 -4 6.48 3.56
-3 7 -4 3.29 2.97
3 7 5 66.31 7.9
3 -7 5 73.55 7.99
-3 7 -5 68.7 7.55
-3 -7 -5 83.46 7.97
-3 -7 -5 82.71 7.49
-3 -7 -6 2251.92 69.07
3 7 6 2148.03 72.14
3 -7 6 2150.28 72.25
3 7 7 209.19 14.66
3 -7 7 206.48 14.64
-3 -7 -7 211.45 12.63
3 7 8 326 19.17
3 -7 8 274.32 18.01
-3 -7 -8 288.66 15.21
3 7 9 6.2 5.32
3 -7 9 3.13 4.91
-3 7 -10 321.78 21.02
-3 -7 -10 330.01 21.37
-3 7 -10 287.72 15.62
-3 -7 -11 -3.71 7.17
-3 7 -11 -2.38 7.44
-3 7 -12 418.58 25.48
-3 -7 -12 422.55 25.93
-3 -8 14 451.87 28.33
3 -8 -14 412.79 19.25
3 8 -14 457.5 20
3 -8 -13 23.65 4.87
3 8 -13 28.35 5.35
-3 -8 13 23.54 8.86
-3 -8 12 388.41 24.39
-3 8 12 365.7 16
3 -8 -12 332.03 15.76
3 8 -12 354.92 16.25
3 -8 -11 49.78 5.48
3 8 -11 63.28 5.91
-3 8 11 46.56 5.78
-3 -8 11 52.06 9.86
3 -8 -10 61.12 5.55
3 8 -10 53.77 5.38
-3 -8 10 30.22 7.6
-3 -8 10 44.03 5.67
-3 8 10 35.19 5.34
3 8 -9 50.57 4.87
-3 -8 9 40.63 5.63
-3 8 9 41.7 5.67
-3 -8 9 35.81 8.24
3 -8 -9 31.5 4.25
-3 8 8 1409.87 46.82
3 -8 -8 1305.1 42.67
3 8 -8 1381 43.04
-3 8 7 397.23 19
-3 -8 7 451.67 19.11
3 -8 -7 413.11 15.77
3 8 -7 443.44 16.18
-3 -8 7 439.81 18.91
-3 8 7 421.05 18.51
-3 -8 6 1421.55 45
-3 -8 6 1287.07 42.63
-3 8 6 1389.27 42.88
3 8 -6 1273 40.24
3 -8 -6 1309.25 40.26
3 8 -5 399.87 14.61
3 -8 -5 387.19 14.45
-3 -8 5 378.07 15.59
-3 8 5 388.22 15.6
3 8 -4 2100.1 63.37
3 -8 -4 2110.26 63.39
3 8 -4 2162.02 63.4
-3 -8 4 2253.46 63.88
-3 8 4 2176.94 63.69
3 8 -3 13.26 2.41
3 -8 -3 14.39 2.54
-3 8 3 17.68 2.31
-3 -8 3 19.77 2.38
-3 -8 3 10.98 3.68
3 8 -2 854.26 28.79
3 -8 -2 849.21 28.91
-3 8 2 906.43 26.96
-3 -8 2 917.34 27.07
3 8 -1 348.62 14.57
3 -8 -1 347.88 14.69
-3 -8 1 376.81 12.47
-3 8 1 365.66 12.38
-3 -8 1 372.56 17.17
-3 8 0 506.09 16.69
-3 -8 0 486.89 16.5
-3 -8 0 543.36 21.74
3 8 0 492.9 19.21
3 -8 0 471.84 19.18
3 8 1 36.17 4.65
-3 -8 -1 31.44 4.99
3 -8 1 42.6 4.97
-3 8 -1 45.18 3.89
-3 -8 -1 39.18 3.66
3 8 2 727.28 26.43
3 -8 2 655.72 25.96
-3 -8 -2 673.1 23.77
-3 8 -2 700.31 24.05
-3 -8 -2 639.88 26.26
3 -8 3 573.55 23.85
3 8 3 636.78 24.37
-3 -8 -3 547.92 23.46
-3 -8 -3 583.74 21.97
-3 8 -3 544.64 21.87
-3 8 -4 981.69 34.19
-3 -8 -4 973.26 33.99
-3 -8 -4 932.46 34.52
3 8 4 917.48 35.23
3 -8 4 943.41 35.53
-3 -8 -5 18.26 4.73
3 8 5 24.66 5.31
3 -8 5 20.01 4.86
-3 -8 -5 17.32 4.58
-3 8 -5 20.19 4.92
-3 -8 -6 200.27 7.22
3 -8 6 241.21 14.95
3 8 6 245.97 14.83
3 -8 7 550.99 26.17
3 8 7 556.3 26.23
3 -8 8 215.6 15.57
3 8 8 208.59 15.18
3 8 9 25.47 6.8
3 -8 9 19.73 6.57
-3 -8 -9 9.92 6.16
-3 8 -9 23.5 7.12
-3 8 -10 300.46 20.25
-3 -8 -10 335.19 21.32
-3 8 -10 294.03 16.18
-3 8 -11 9.36 6.13
-3 -8 -11 3.62 6.72
-3 8 -12 355.98 23.11
-3 -8 -12 348.13 23.18
-3 -9 14 165.55 17.75
3 -9 -14 148.82 10.62
3 -9 -13 36.43 5.47
3 9 -13 28.8 5.36
-3 -9 13 39.18 9.5
-3 9 12 471.13 20.29
-3 -9 12 443.11 27.56
3 -9 -12 483.37 19.62
3 9 -12 473.9 19.62
-3 9 11 377.77 17.7
-3 -9 11 345.61 23.21
3 -9 -11 364.81 15.96
3 9 -11 381.44 16.23
-3 -9 10 619.58 25.94
-3 9 10 662.93 26.44
3 -9 -10 681.41 23.99
3 9 -10 656.56 23.92
-3 -9 10 732 34.36
-3 9 9 20.91 4.73
-3 -9 9 17.21 4.45
3 -9 -9 21.91 3.42
3 9 -9 22.06 3.54
-3 -9 9 19.48 6.4
3 -9 -8 425.54 16.3
3 9 -8 420.4 16.41
-3 9 8 437.12 20.19
-3 -9 8 478.45 20.17
-3 9 7 590.5 25.9
-3 -9 7 642.89 25.08
-3 9 7 662.8 25.08
-3 -9 7 666.9 30.58
3 -9 -7 630.28 21.8
3 9 -7 614.63 21.78
-3 -9 6 25.99 5.52
-3 9 6 27.11 5.14
-3 -9 6 25.63 4.32
-3 9 6 30.84 4.47
3 -9 -6 26.17 2.98
3 9 -6 20.32 2.96
-3 -9 6 32.58 6.71
3 9 -5 103.53 5.84
3 -9 -5 102.15 5.68
-3 -9 5 103.14 8.54
-3 -9 5 87.77 6.46
-3 9 5 99.91 6.61
-3 -9 5 106.49 10.31
-3 -9 4 995.17 30.76
-3 9 4 939.61 30.38
-3 -9 4 1041.46 35.87
3 9 -4 995.9 30.41
3 -9 -4 890.62 30.09
-3 9 3 311.98 11.35
-3 -9 3 298.02 11.28
-3 -9 3 289.28 15.27
3 -9 -3 312.58 12.43
3 9 -3 292.21 12.1
3 9 -2 1649.54 48.69
3 -9 -2 1592.05 48.79
-3 9 2 1569.22 46.24
-3 -9 2 1602.94 46.4
3 -9 -1 1339.5 42.25
3 9 -1 1377.32 42.04
-3 9 1 1334.92 38.9
-3 -9 1 1338.96 38.97
-3 -9 1 1234.14 44.73
-3 -9 0 893.71 31.57
-3 9 0 788.05 25.4
-3 -9 0 834.65 25.45
3 -9 0 822.78 28.78
3 9 0 855.99 28.75
3 9 1 13.97 3.33
3 -9 1 15.44 3.54
-3 9 -1 18.23 2.78
-3 -9 -2 39.08 4.05
-3 9 -2 33.91 4.04
3 9 2 44.05 5.37
3 -9 2 32.92 4.9
3 9 3 870.54 31.72
3 -9 3 850.35 31.76
-3 9 -3 829.32 29.45
-3 -9 -3 861.23 29.57
3 9 4 380.68 18.35
3 -9 4 362.23 18.23
-3 9 -4 394.68 17.41
-3 -9 -4 354.36 16.64
-3 -9 -4 375.02 14.83
3 9 5 14.24 4.36
3 -9 5 15.44 4.61
-3 -9 -5 13.19 4.5
-3 9 -5 13.46 4.52
-3 -9 -5 18.27 2.82
3 -9 6 1521.81 53.67
3 9 6 1547.35 53.68
3 9 7 123.28 11.16
3 -9 7 134.35 11.8
3 9 8 640.62 29.29
3 -9 8 623.06 29.24
-3 9 -9 124.59 10.77
-3 9 -9 126.8 12.75
-3 -9 -9 105.02 12.41
-3 9 -10 316.64 20.22
-3 -9 -10 286.67 19.58
-3 9 -10 273.83 16.13
-3 9 -11 19.32 7.59
-3 -9 -11 31.69 8.72
-3 -9 -12 28.94 9.4
-3 9 -12 38.5 9.8
3 -10 -13 127.12 8.83
3 10 -13 110.29 8.62
-3 -10 13 129.57 15.92
-3 10 12 118.2 9.92
-3 -10 12 125.81 15.65
3 -10 -12 133.22 8.77
3 10 -12 120.88 8.63
3 -10 -11 15.37 4
3 10 -11 20.04 4.04
-3 10 11 20.86 5.33
-3 -10 11 17.82 8.07
3 10 -10 43.78 4.87
-3 10 10 50.18 6.73
3 -10 -10 41.94 4.89
-3 -10 10 36.14 8.75
-3 10 9 242.81 14.42
3 -10 -9 229.39 10.91
3 10 -9 237.1 10.98
-3 10 8 127.26 10.34
3 -10 -8 127.31 7.31
3 10 -8 132.57 7.42
-3 10 7 104.55 9.37
-3 -10 7 88.61 11.11
-3 -10 7 103.58 8.22
-3 10 7 90.13 7.97
3 -10 -7 96.21 6
3 10 -7 102.99 6.2
-3 10 6 283.09 16.15
-3 -10 6 323.8 19.31
3 -10 -6 292.34 11.79
3 10 -6 304.99 12.05
-3 -10 6 312.44 14.31
-3 10 6 298.72 13.93
-3 10 5 10.16 4.49
3 -10 -5 14.8 2.73
3 10 -5 13.74 2.57
-3 -10 5 11.96 3.07
-3 10 5 12.73 3.16
-3 -10 5 9.94 4.67
-3 -10 4 1126.08 33.63
-3 10 4 1026.15 33.05
-3 -10 4 943.28 39.79
-3 10 4 988.92 38.94
3 10 -4 1109.17 33.22
3 -10 -4 1036.85 33.08
-3 -10 3 15.72 5.03
-3 10 3 15.11 2.41
-3 -10 3 14.23 2.38
3 10 -3 12.44 2.52
3 -10 -3 13.08 2.79
3 -10 -2 3.31 1.99
3 10 -2 2.2 2.05
-3 -10 2 7.24 3.73
-3 10 2 4 1.58
-3 -10 2 1.37 1.43
-3 10 1 289.1 10.02
-3 -10 1 284.71 15.66
3 -10 -1 300.42 12.85
3 10 -1 273.46 12.27
-3 -10 1 275.03 10
3 -10 0 4.97 2.64
3 10 0 0.39 2.21
-3 -10 0 8.5 3.52
-3 10 0 3.21 1.59
-3 -10 0 7.99 1.88
-3 -10 -1 707.07 27.12
3 10 1 702.2 25.69
3 -10 1 673.87 25.77
-3 -10 -1 707.1 22.6
-3 10 -1 713.11 22.78
3 10 2 1780.93 55.46
3 -10 2 1733.83 55.64
-3 -10 -2 1657.69 54.72
-3 -10 -2 1759.21 52.23
-3 10 -2 1734.3 52.34
-3 -10 -3 296.82 13.93
3 10 3 312.26 15.57
3 -10 3 323.1 15.87
-3 10 -3 298.97 13.66
-3 -10 -3 315.93 13.78
-3 -10 -4 471.91 18.44
3 10 4 485.32 21.59
3 -10 4 511.56 22.32
-3 -10 -4 476.53 20.06
-3 10 -4 511.08 20.45
-3 -10 -5 10.44 2.86
-3 -10 -5 6.41 4.04
-3 10 -5 9.56 4.21
3 10 5 6.91 4.07
3 -10 5 6.45 3.82
3 -10 6 381.44 20.12
3 10 6 414.27 20.47
3 10 7 36.84 7.14
3 -10 7 50.94 7.96
-3 10 -7 39.46 7.06
-3 10 -8 4.7 5.08
-3 -10 -8 8.7 6.62
3 -10 8 5.63 5.44
-3 10 -8 2.35 4.43
-3 10 -9 -0.99 5.77
-3 -10 -9 -3.08 6.48
-3 10 -9 4.62 5.07
-3 10 -10 293.61 19.43
-3 -10 -10 308.09 20.07
-3 -10 -11 176.48 15.58
-3 10 -11 166.69 15.31
3 -11 -13 11.99 4.07
3 11 -13 9.86 4.24
-3 11 12 118.38 10.78
-3 -11 12 113.88 15.09
3 -11 -12 145.1 9.09
3 11 -12 140.88 9.15
-3 11 11 389.35 19.84
3 -11 -11 412.66 16.81
3 11 -11 386.3 16.64
-3 -11 11 425.07 26.75
-3 11 10 416.2 20.2
3 -11 -10 378.56 15.55
3 11 -10 365.49 15.48
-3 -11 10 368.86 24.36
-3 11 9 583.27 25.48
3 -11 -9 566.88 20.35
3 11 -9 541.35 20.29
-3 11 8 379.25 19.56
3 -11 -8 365.07 14.24
3 11 -8 348.47 14.18
-3 -11 8 359.7 22.69
-3 -11 7 213.38 16.71
-3 11 7 234.92 14.74
-3 -11 7 230.25 12.81
-3 11 7 209.89 12.3
3 -11 -7 215.2 9.67
3 11 -7 222.81 9.89
3 -11 -6 18.86 3.04
3 11 -6 20.71 3.15
-3 -11 6 20.54 4.11
-3 11 6 19.42 3.89
-3 11 6 26.04 5.63
-3 -11 6 20.72 6.19
-3 -11 5 195.1 15.16
-3 -11 5 218.57 10.54
-3 11 5 206.44 10.14
-3 11 5 179.49 13.15
3 11 -5 195.18 8.92
3 -11 -5 200.57 9.04
-3 11 4 117.52 10.62
-3 -11 4 120.66 11.51
-3 -11 4 153.74 7.68
-3 11 4 131.27 7.21
3 -11 -4 129.27 7.2
3 11 -4 142.57 7.3
3 11 -3 177.93 8.71
3 -11 -3 190.48 9.09
-3 -11 3 190.87 8.27
-3 11 3 173.5 7.95
-3 11 3 172.51 12.64
-3 -11 3 183.37 13.36
-3 -11 2 291.51 17.16
3 11 -2 295.67 12.75
3 -11 -2 325.4 13.43
-3 11 2 312.29 11.1
-3 -11 2 337.25 11.39
-3 -11 1 2869.69 91.07
-3 11 1 2867.4 82.25
-3 -11 1 2982.58 82.47
3 -11 -1 3005.84 86.2
3 11 -1 2930.15 85.79
-3 -11 0 729.82 28.94
-3 11 0 713.83 22.21
-3 -11 0 755.72 22.42
3 11 0 716.31 25.48
3 -11 0 708.86 25.89
-3 -11 -1 24.44 4.83
-3 -11 -1 19.13 2.56
-3 11 -1 23.64 2.69
3 -11 1 16.27 3.77
3 11 1 20.37 3.89
3 -11 2 271.67 13.84
3 11 2 274.45 13.56
-3 -11 -2 275.77 14.24
-3 -11 -2 281.94 11.33
-3 11 -2 263.33 11.28
3 -11 3 12.37 4.02
3 11 3 11.22 3.58
-3 -11 -3 16.48 3.84
-3 11 -3 15.71 3.29
-3 -11 -3 20.45 3.4
3 -11 4 248.54 14.38
3 11 4 290.58 14.94
-3 -11 -4 271.67 12.72
-3 11 -4 248.45 12.89
-3 -11 -4 263.99 13.06
-3 -11 -5 380.19 17.61
-3 11 -5 381.23 17.82
3 -11 5 365.72 18.72
3 11 5 387.21 18.9
-3 11 -5 380.54 20.26
3 11 6 1493.59 51.98
3 -11 6 1486.7 52.3
-3 11 -6 1520.06 53.44
3 11 7 566.7 25.67
3 -11 7 578.19 26.2
-3 11 -7 523.53 25.44
-3 11 -7 548.2 25.85
-3 -11 -8 1047.84 41.26
-3 11 -8 1043.1 40.87
-3 11 -8 1001.26 39.53
-3 11 -9 71.52 9.21
-3 11 -9 56.75 9.34
-3 11 -10 199.99 15.54
-3 -11 -10 167.45 15.01
-3 11 -11 32.11 8.69
-3 -11 -11 56.18 9.22
3 -12 -12 8.62 3.54
3 12 -12 8.44 3.6
-3 12 12 7.82 5.05
-3 -12 12 1.6 7.51
-3 12 11 243.95 15.74
3 -12 -11 242.26 11.89
3 12 -11 263.44 12.44
-3 -12 11 225.68 20.45
3 -12 -10 69.55 5.8
3 12 -10 65.33 5.77
-3 12 10 78.44 9.45
3 -12 -9 8.22 2.88
3 12 -9 5.76 2.89
-3 12 9 4.98 4.69
-3 -12 8 902.16 41.69
3 -12 -8 909.09 30.43
3 12 -8 1009.55 31
-3 12 8 942 37.51
-3 -12 7 527.36 22
-3 12 7 564.44 22.29
-3 -12 7 481.68 27.42
3 12 -7 513.28 18.47
3 -12 -7 529.04 18.48
-3 12 7 508.11 24.7
-3 -12 6 560.33 21.87
-3 12 6 562.58 21.73
-3 12 6 554.76 26.02
3 -12 -6 558.62 19.23
3 12 -6 558.1 19.37
-3 -12 6 580.77 28.87
-3 -12 5 698.86 23.86
-3 12 5 663.31 23.34
3 12 -5 631.43 21.94
3 -12 -5 636.82 22.11
-3 -12 5 697.35 31.74
-3 12 5 670.05 29.41
-3 -12 4 1111.93 43.61
-3 12 4 1085.72 42.21
-3 12 4 1129.79 34.75
-3 -12 4 1128.75 34.98
3 12 -4 980.56 41.79
3 12 -4 1095.22 34.55
3 -12 -4 1104.84 34.81
3 12 -3 772.33 32.54
-3 12 3 743.64 31.67
3 12 -3 737.25 24.9
3 -12 -3 716.05 24.99
-3 -12 3 729.95 31.91
-3 -12 3 787.6 24.11
-3 12 3 723.24 23.71
3 12 -2 221.96 16.39
-3 12 2 259.09 9.6
-3 -12 2 260.4 9.78
3 -12 -2 266.71 11.63
3 12 -2 263.97 11.4
-3 -12 2 253.4 15.97
-3 12 1 253.3 9.15
-3 -12 1 270.07 9.37
-3 12 1 273.24 16.61
-3 -12 1 246.85 15.51
3 -12 -1 261.67 11.99
3 12 -1 262.97 11.56
3 -12 0 66.39 5.75
3 12 0 59.59 5.34
-3 12 0 67.75 8.84
-3 -12 0 56.89 7.15
-3 -12 0 73.83 3.77
-3 12 0 64.84 3.58
-3 12 -1 9.08 1.95
-3 -12 -1 7.6 1.82
-3 -12 -1 3.28 3.27
-3 12 -1 14.69 5.21
3 12 1 3.93 2.7
3 -12 1 7.68 3.04
-3 -12 -2 122.1 6.29
-3 12 -2 122.34 6.51
-3 -12 -2 113.14 9.2
3 12 2 128.95 8.34
3 -12 2 110.69 8.33
-3 12 -2 139.97 11.67
-3 12 -3 346.18 14.35
-3 -12 -3 339.81 13.99
3 12 3 345.29 16.09
3 -12 3 339.62 16.28
-3 -12 -3 366.6 16.74
-3 12 -3 370.9 19.96
-3 12 -4 130.13 8.93
-3 -12 -4 155.77 9.32
-3 12 -4 152.41 12.47
-3 -12 -4 169.16 9.87
3 12 4 168.4 10.72
3 -12 4 171.59 11.07
-3 12 -5 194.6 11.89
-3 -12 -5 197.8 11.66
3 12 5 218.97 13.06
3 -12 5 192.8 12.69
-3 12 -5 215.51 14.71
-3 12 -6 25.76 6.51
3 -12 6 26.06 5.86
3 12 6 24.24 5.49
-3 12 -7 40.41 7.1
-3 -12 -7 45.88 7.63
-3 12 -7 50.08 8.58
-3 -12 -8 142.41 12.25
-3 12 -8 145.71 12.2
-3 12 -8 144.27 12.64
-3 12 -9 -4.47 6.3
-3 -12 -9 4.56 5.69
-3 12 -9 4.45 5.55
-3 -12 -10 24.78 7.47
-3 12 -10 21.54 7.02
-3 -13 12 28.36 10.55
3 -13 -12 24.37 4.78
3 13 -12 26.03 4.95
-3 -13 11 656.11 36.4
3 -13 -11 672.36 24.15
3 13 -11 684.82 24.42
-3 13 11 667.92 29.93
-3 13 10 48.59 8.47
3 -13 -10 55.3 5.21
3 13 -10 56.31 5.47
3 13 -9 478.62 18.64
3 -13 -9 516.53 18.79
-3 -13 9 525.13 30.06
-3 13 8 620.44 28.76
-3 -13 8 668.29 33.43
3 13 -8 619 21.47
3 -13 -8 602.17 21.23
-3 13 7 20.39 6.44
-3 -13 7 14.87 7.12
3 -13 -7 25.12 5.06
3 -13 -7 23.26 3.32
3 13 -7 22.67 3.54
3 13 -6 3.81 2.25
3 -13 -6 1.4 2.26
-3 -13 6 -1.16 5.78
-3 13 6 0.92 4.43
-3 -13 6 0.46 3.44
-3 13 5 25.88 6.68
3 13 -5 30.59 7.31
3 13 -5 37.54 3.91
3 -13 -5 39.18 4.09
-3 -13 5 21.73 6.61
-3 -13 5 31.59 4.45
-3 -13 4 153.08 8.01
-3 13 4 149.79 7.78
3 13 -4 166.14 13.52
-3 -13 4 129.2 12.6
3 -13 -4 147.78 7.83
3 13 -4 140.19 7.53
-3 13 4 137.36 12.33
-3 -13 3 503.55 26.01
3 13 -3 519.19 18.96
3 -13 -3 532.15 19.27
3 13 -3 538.02 26.96
-3 13 3 566.63 26.85
-3 -13 3 560.34 18.42
-3 13 3 540.33 18.13
-3 -13 2 1.77 4.72
3 -13 -2 3.81 2.09
3 13 -2 4.07 2.54
3 13 -2 0.97 4.75
-3 -13 2 1.99 1.9
-3 13 2 1.17 1.59
3 13 -1 119.67 6.92
3 -13 -1 138.58 7.52
-3 13 1 142.08 12.26
-3 -13 1 133.07 11.11
3 13 -1 129.83 12.56
-3 13 1 124.7 5.35
-3 -13 1 129.06 5.55
-3 13 0 849.24 35.63
-3 -13 0 899.2 34.26
3 13 0 805.16 27.62
3 -13 0 806.25 28.24
-3 13 0 846.54 24.94
-3 -13 0 857.73 25.08
-3 13 -1 533.07 26.28
3 13 1 559.19 20.3
3 -13 1 539.65 20.6
-3 13 -1 537.49 17.21
-3 -13 -1 574.59 17.39
-3 -13 -1 522.03 23.97
3 -13 2 49.14 5.41
3 13 2 41.43 5.16
-3 13 -2 60.08 8.1
-3 -13 -2 61.74 7.03
-3 -13 -2 61.01 3.94
-3 13 -2 51.73 3.9
-3 13 -3 318.23 19.26
-3 -13 -3 342.63 16.84
3 -13 3 343.79 15.76
3 13 3 347.35 15.41
-3 -13 -3 330.68 13.13
-3 13 -4 131.67 12.22
-3 -13 -4 141.14 8.47
3 -13 4 144.77 10.02
3 13 4 145.75 9.79
-3 13 -5 68.63 9.52
3 13 5 84.25 8.11
3 -13 5 87.4 8.37
-3 -13 -5 73.26 6.96
-3 13 -6 338.42 20.14
-3 -13 -6 318.8 17.41
-3 13 -6 336.94 17.37
-3 13 -7 1449.02 51.98
-3 -13 -7 1368.27 48.52
-3 13 -7 1350.32 48.34
-3 13 -8 43.02 7.74
-3 -13 -8 61.78 8.21
-3 13 -8 47.81 8.74
-3 13 -9 429.78 22.28
-3 -13 -9 467.86 23.05
-3 13 -9 419.26 23.23
3 -14 -11 3.75 3.31
-3 14 11 13.56 7.12
-3 14 10 149.24 13.66
3 -14 -10 171.71 9.01
-3 -14 9 1.47 6.61
3 -14 -9 2.19 2.5
-3 14 9 2 5.65
-3 -14 8 58 10.75
-3 14 8 59.72 8.97
3 -14 -8 83.28 5.57
-3 14 7 415.09 20.15
-3 -14 7 504.22 28.01
3 -14 -7 424.52 16.37
3 14 -7 477.62 16.7
-3 14 7 479.08 24.35
3 -14 -6 109.55 8.26
-3 14 6 120.85 12.2
-3 -14 6 126.09 13.5
3 14 -6 130.77 7.1
3 -14 -6 122.14 6.91
-3 -14 5 109.52 7.72
-3 -14 5 112.41 12.53
3 14 -5 123.02 12.25
-3 14 5 130.88 12.29
3 14 -5 112.86 6.66
3 -14 -5 123.33 7.05
-3 14 4 89.18 10.3
3 14 -4 89.39 5.82
3 -14 -4 83.37 5.72
-3 -14 4 85.97 5.91
3 14 -4 69.43 9.59
-3 -14 4 78.45 10.37
-3 -14 3 80.65 10.46
3 -14 -3 86.39 5.65
3 14 -3 89.49 5.53
3 14 -3 76.27 10.46
-3 -14 3 75.09 4.97
-3 14 3 80.85 9.68
3 14 -2 47.93 8.33
-3 -14 2 36.59 3.2
-3 -14 2 35.94 7.58
3 14 -2 42.27 3.9
3 -14 -2 43.35 4.03
3 14 -1 41.38 8.45
-3 -14 1 46.26 7.6
3 -14 -1 47.97 4.32
3 14 -1 49.62 3.96
-3 -14 1 47.57 3.13
-3 14 1 52.15 8.83
3 14 0 14.33 2.79
3 -14 0 18.73 3.18
-3 14 0 15.73 6.08
-3 -14 0 26.59 5.97
-3 -14 0 18.75 1.99
3 14 1 924.22 30.27
3 -14 1 956.25 31.27
-3 -14 -1 1003.87 37.44
-3 -14 -1 962.42 28.08
-3 14 -1 956.64 39.72
-3 -14 -2 106.62 5.09
-3 14 -2 101.95 11.25
-3 -14 -2 115.08 9.74
3 14 2 97.97 6.75
3 -14 2 88.96 6.78
-3 14 -3 949.22 39.58
-3 -14 -3 971.71 29.8
3 -14 3 929.03 32.75
3 14 3 974.63 32.53
-3 14 -4 -1 5.51
-3 14 -4 1.92 3.68
-3 -14 -4 6.69 2.94
-3 14 -5 87.49 8.14
-3 -14 -5 84.67 8
-3 14 -5 79.84 10.19
-3 -14 -6 0.6 4.11
-3 14 -6 -3.05 5.96
-3 -14 -7 10.58 4.49
-3 14 -7 6.12 5.99
-3 -14 -8 44.78 7.16
-3 14 -8 50.73 8.94
-3 14 -9 140.46 13.79
-3 -14 -9 157.05 12.45
-3 -15 10 22.89 9.24
-3 15 10 15.55 6.91
3 -15 -10 17.58 3.84
-3 15 9 640.92 30.86
-3 -15 9 693.01 36.49
3 -15 -9 632.99 22.18
-3 -15 8 2.9 6.26
-3 15 8 7.46 6.26
3 -15 -8 5.41 2.7
-3 -15 7 36.82 9.1
-3 15 7 30.49 7.64
3 -15 -7 27.14 3.59
-3 -15 6 23.15 7.86
-3 15 6 19.97 6.2
3 -15 -6 21.68 3.37
3 15 -5 5.41 5.75
3 -15 -5 3.18 2.59
-3 -15 5 -2.42 6.44
-3 15 5 4.27 5.67
3 15 -4 33.86 8.25
-3 15 4 16.85 6.31
3 -15 -4 28.15 3.52
-3 -15 4 30.77 7.69
3 -15 -3 1319.25 41.24
-3 -15 3 1600.66 55.19
3 15 -3 1424.99 54.18
-3 15 3 1536.82 54.43
3 -15 -2 7.39 1.96
-3 -15 2 2.02 5.3
3 15 -2 3.34 5.84
-3 -15 2 3.25 1.9
3 -15 -1 689.57 20.82
3 15 -1 893.81 35.88
-3 15 1 845.96 34.51
-3 -15 1 853.5 33.22
-3 -15 1 626.75 19.79
-3 -15 0 382.06 12
3 -15 0 380.48 13.24
-3 15 0 414.71 23.2
-3 -15 -1 127.59 4.89
-3 15 -1 127.42 12.72
3 -15 1 117.7 6.44
-3 -15 -1 128.99 11.44
-3 15 -2 14.8 6.3
-3 15 -3 2.12 5.46
-3 -15 -3 -0.33 3
-3 15 -4 23.46 6.92
-3 -15 -4 28.19 4.6
-3 -15 -5 595.62 23.05
-3 15 -5 604.11 29.83
-3 15 -6 1.08 6.37
-3 -15 -6 3.12 3.82
-3 -15 -7 337.87 17.06
-3 15 -7 398.5 22.75
-3 -15 -8 12.05 4.93
-3 15 -8 4.32 6.59
-3 16 9 69.89 10.69
-3 -16 9 79.28 13.16
-3 16 8 13.87 6.8
-3 -16 8 6.1 6.43
-3 16 7 580.45 29.07
-3 -16 7 509.56 30.66
-3 16 6 104.41 12.27
-3 -16 6 85.62 12.4
-3 16 5 601.09 30.9
3 16 -5 688.39 32.78
-3 -16 5 705.43 34.28
-3 16 4 11.3 6.56
3 16 -4 4.66 5.59
-3 -16 4 13.33 6.55
-3 16 3 54.88 9.56
3 16 -3 64.63 10.55
-3 -16 3 59.56 9.65
3 16 -2 4.75 6.11
-3 -16 2 -1.08 5.4
-3 16 1 13.45 6.91
3 16 -1 1.21 6.72
-3 -16 1 -1.03 4.93
-3 16 0 1.12 5.88
-3 -16 0 -0.97 5
-3 16 -1 206.91 16.44
-3 16 -2 76.66 10.6
-3 16 -3 281.98 19.65
-3 16 -4 23.83 7.5
-3 16 -5 658.32 32.15
-3 16 -6 5.68 6.68
-3 16 -7 4.58 6.55
-3 17 8 35.13 9.16
-3 -17 8 30.22 9.62
-3 17 7 138.29 14.44
-3 -17 7 105.64 14.3
-3 17 6 1.2 6.18
-3 -17 6 4.29 6.16
-3 17 5 9.48 6.87
3 17 -5 7.4 7.06
-3 -17 5 -1.36 6.76
-3 17 4 5.92 5.79
3 17 -4 -3.74 6.52
-3 -17 4 -1.29 6.95
-3 17 3 342.95 22.19
3 17 -3 368.32 23.38
-3 -17 3 327.43 22.11
3 17 -2 96.49 13.17
-3 -17 2 92.25 11.91
3 17 -1 1156.03 48.77
-3 17 1 1170.77 48.05
-3 17 0 5.9 6.48
-3 17 -1 389.51 23.88
-3 17 -2 8.28 6.86
-3 17 -3 53.45 10.1
-3 17 -4 1.2 6.93
-3 17 -5 51.84 9.66
-3 17 -6 -1.2 6.79
-3 18 7 150.19 15.58
-3 18 6 58.14 10.92
3 18 -5 100.19 15.35
-3 18 5 142.96 14.95
-3 18 4 82.31 12.05
3 18 -4 102.88 13.82
-3 18 3 48.58 9.92
3 18 -3 66.55 11.64
3 18 -2 48.38 10.58
-3 18 1 11.19 7.03
3 18 -1 19.15 8.74
-3 18 0 12.5 7.72
-3 18 -1 507.39 28.33
-3 18 -2 346.72 23.24
-3 18 -3 144.34 15.08
-3 18 -4 319.06 21.82
-3 19 4 62.47 11.74
3 19 -4 39.3 10.73
-3 19 3 157.44 16.1
3 19 -3 172.84 18.67
3 19 -2 480.41 29.16
-3 19 0 22.13 9.1
-3 19 -1 14.35 7.58
-3 19 -2 -2.61 6.84
-4 0 15 -2.07 5.43
4 0 -15 4.31 3.75
-4 0 14 259.27 18.18
4 0 -14 261.29 14.08
4 0 -13 4.82 3.6
4 0 -12 645.49 24.75
-4 0 11 -2 2.69
4 0 -11 4.05 3.06
4 0 -10 494.91 19.61
4 0 -9 2.26 2.41
4 0 -8 3450.45 99.9
-4 0 7 1.37 2.88
4 0 -7 2.56 2.11
-4 0 6 862.52 28.63
4 0 -6 822.46 27.57
4 0 -5 2.08 1.56
-4 0 5 0.57 1.87
-4 0 4 266.28 10.77
4 0 -4 276.7 11.74
4 0 -3 0.36 1.49
-4 0 3 0.64 1.46
4 0 -2 206.98 10.47
-4 0 2 196.15 8.44
4 0 -1 -0.45 1.65
-4 0 1 2.33 1.46
-4 0 0 1135.81 36.24
4 0 0 1156.15 38.92
-4 0 -1 -0.39 2.03
4 0 1 1.15 2.35
-4 0 -2 990.89 34.69
4 0 2 1046.97 37.37
-4 0 -3 1.1 3.23
4 0 3 -0.72 2.88
4 0 4 31.44 6.73
-4 0 -4 19.03 5.73
4 0 5 0.88 3.9
4 0 6 23.07 6.23
4 0 7 2.05 4.83
4 0 8 1039.43 43.49
4 0 9 1.17 5.94
4 0 10 579.23 30.51
4 0 11 3.96 6.45
4 0 12 520.94 30.49
-4 0 -12 604.48 33.58
-4 -1 15 1.11 5.99
-4 1 15 6.78 5.32
4 1 -15 11.69 3.71
-4 -1 14 275.54 19.38
4 1 -14 320.64 15.73
4 1 -13 93.13 8.02
4 1 -12 797.47 29.14
4 1 -11 74.34 6.37
-4 -1 11 55.34 4.75
-4 -1 10 596.58 22.82
4 1 -10 774.3 25.23
4 1 -9 82.32 6.34
4 1 -8 338.52 14.1
-4 1 7 56.18 5.85
4 1 -7 46.84 4.37
-4 1 6 918.43 30.78
4 1 -6 930.56 30.01
-4 1 5 284.89 11.94
4 1 -5 295.38 12.07
-4 1 4 1888.14 55.11
4 1 -4 1970.67 56.51
4 -1 -4 1768.27 55.95
-4 1 3 24.45 2.68
4 -1 -3 21.4 3.14
4 1 -3 24.35 3.27
4 -1 -2 576.94 21.92
4 1 -2 611.59 22.2
-4 1 2 598.75 19.69
4 -1 -1 89.09 6.96
4 1 -1 110.97 7.58
-4 1 1 104.55 5.95
4 -1 0 165.2 10
4 1 0 166.08 10
-4 1 0 171.58 8.69
4 -1 1 5.74 2.96
4 1 1 2.29 2.41
-4 1 -1 3.15 2.34
4 -1 2 255.02 14.42
4 1 2 250.4 14.28
-4 1 -2 276.69 13.48
4 1 3 928.77 35.14
4 -1 3 864.87 34.56
-4 1 -3 921.86 32.99
4 1 4 3773.47 113.36
4 -1 4 3530.52 112.53
-4 1 -4 3695.25 110.39
4 1 5 172.24 13.16
4 -1 5 166.36 12.97
4 1 6 824.66 35.29
4 -1 6 802.88 34.93
4 1 7 156.93 13.84
4 -1 7 158.19 13.76
-4 1 -8 218.83 13.88
4 1 8 195.07 15.77
4 -1 8 233.08 16.98
4 1 9 85.5 11.23
4 -1 9 93.82 11.72
4 1 10 1.25 5.38
4 -1 10 11.22 7.04
4 1 11 156.81 15.58
4 -1 11 184.79 16.84
-4 1 -12 447.22 28.38
4 1 12 393.99 25.65
4 -1 12 403.02 26.02
-4 -2 15 21.07 8.2
-4 2 15 31.57 7.24
4 2 -15 28.25 5.71
4 2 -14 202.33 12.04
-4 -2 14 195.04 16.34
4 2 -13 3.74 3.34
-4 -2 12 327.62 12.54
-4 2 12 346.35 12.57
-4 -2 11 10.81 2.73
4 2 -11 22.02 4.07
4 2 -10 512.71 19.68
-4 -2 10 481.61 18.41
4 2 -9 797.45 26.59
-4 -2 9 712.38 26.14
4 2 -8 1695.32 51.94
4 2 -7 162.3 8.33
-4 2 7 154.15 9.5
4 2 -6 404.59 15.32
-4 2 6 397.23 16.06
4 2 -5 6.27 2.07
-4 2 5 7.77 2.32
-4 2 4 58.27 4.2
4 2 -4 56.38 4.59
-4 2 3 1162.26 34.75
4 2 -3 1113.78 36.73
-4 2 2 5.86 1.68
4 2 -2 8.47 2.41
4 2 -1 239.87 12.02
-4 2 1 237.18 10.11
4 2 0 3298.87 96.61
-4 2 0 3200.09 93.5
4 2 1 446.22 19.99
-4 2 -1 477.9 18.4
-4 2 -2 3115.55 92.83
4 2 2 3126.18 95.48
-4 2 -3 325.89 16.01
4 2 3 330.86 17.45
-4 2 -4 249.32 14.54
4 2 4 263.01 16.1
4 2 5 27.34 6.25
4 2 6 92.22 10.41
4 2 7 565.29 28.21
4 2 8 310.62 20.1
4 2 9 17.55 5.63
4 2 10 626.97 32.28
4 2 11 71.02 11.17
-4 2 -12 565.85 33.05
4 -3 -15 102.43 8.88
4 3 -15 90.71 8.44
4 -3 -14 94.1 8.09
4 3 -14 78.58 7.5
-4 -3 14 74.99 11.75
4 -3 -13 211.25 12.02
4 3 -13 233.33 12.55
-4 -3 13 199.97 16.75
4 -3 -12 516.48 17.68
4 3 -12 514.54 17.75
-4 -3 12 243.12 10.97
-4 3 12 301.61 11.35
4 -3 -11 491.33 19.43
4 3 -11 548.88 20.05
-4 -3 10 4.41 2.9
4 -3 -10 11.05 3.11
4 3 -10 7.4 2.88
-4 -3 9 330.79 14.82
4 -3 -9 355.9 14.81
4 3 -9 358.07 14.91
-4 -3 8 13.08 3.74
4 -3 -8 15.97 2.84
4 3 -8 18.16 3.41
-4 -3 7 148.57 9.44
-4 3 7 162.62 9.72
4 -3 -7 164.08 8.43
4 3 -7 160.02 8.37
4 -3 -6 1094.83 34
4 3 -6 1055.2 33.86
-4 3 6 1040.9 34.7
-4 -3 6 1068.78 34.82
4 3 -5 508.77 18.69
4 -3 -5 532.51 18.89
-4 3 5 528.6 18.77
-4 -3 5 538.67 18.88
4 -3 -4 852.99 28.56
4 3 -4 846.16 28.58
-4 3 4 881.25 27.47
-4 -3 4 881.94 27.53
-4 -3 3 1661.43 49.43
-4 3 3 1688.59 49.43
4 3 -3 1703.9 51.86
4 -3 -3 1681.61 51.7
-4 -3 2 4424.39 124.09
-4 3 2 4327.5 124.05
4 -3 -2 4383.06 127.15
4 3 -2 4597.68 127.37
4 -3 -1 199.48 10.81
4 3 -1 189.44 10.51
-4 -3 1 186.85 8.65
-4 3 1 206.86 8.9
4 3 0 1586.1 51.4
4 -3 0 1611.09 51.49
-4 -3 0 1533.84 48.23
-4 3 0 1637.42 48.51
4 -3 1 6.46 2.93
4 3 1 11.04 3.33
-4 3 -1 5.8 2.48
-4 -3 -1 8.42 2.48
-4 -3 -2 590.28 22.99
-4 3 -2 613.05 23.41
4 3 2 624.39 25.51
4 -3 2 583.27 25.01
-4 3 -3 166.11 10.58
-4 -3 -3 166.36 10.58
4 3 3 172.95 12.02
4 -3 3 161.01 11.73
4 3 4 3054.13 93.79
4 -3 4 2949.01 93.29
-4 -3 -4 2911.29 90.59
-4 3 -4 2925.66 90.86
4 3 5 889.91 36.81
4 -3 5 921.88 36.9
4 3 6 2739.15 89.08
4 -3 6 2693.38 88.78
4 3 7 1445.99 53.75
4 -3 7 1386.24 53.02
4 -3 8 175.2 14.86
4 3 8 183.03 15.11
4 -3 9 131.34 13.11
4 3 9 115.67 12.65
4 3 10 63.56 10.78
4 -3 10 46.3 10.03
4 3 11 5.26 6.66
4 -3 11 3.95 6.56
-4 3 -12 385.17 26.93
-4 -3 -12 446.9 28.59
4 -4 -15 68.38 7.64
4 4 -15 78.54 7.96
-4 -4 15 83.92 12.44
4 -4 -14 110.53 8.95
4 4 -14 133.45 9.53
-4 -4 14 125.91 13.91
-4 -4 13 104.77 13.01
4 -4 -13 108.18 8.32
4 4 -13 93.78 7.95
-4 4 12 1.59 2.26
-4 -4 12 0.26 2.52
4 -4 -12 1.93 3.23
4 4 -12 2.91 3.16
4 -4 -11 246.71 11.98
4 4 -11 256.4 12.2
-4 4 11 182.34 9.91
-4 -4 11 204.21 10.07
4 -4 -10 553.64 20.55
4 4 -10 584.25 20.92
4 -4 -9 200.29 10.07
4 4 -9 193.65 10.06
-4 -4 9 176.85 10.69
4 -4 -8 784.78 26.63
4 4 -8 786.27 26.74
-4 -4 8 764.79 27.94
-4 -4 7 1516.01 48.67
-4 4 7 1531.54 48.81
4 4 -7 1491.89 46.75
-4 -4 7 1525.48 49.04
4 -4 -7 1547.19 46.83
-4 4 6 158.52 8.8
-4 -4 6 163.48 8.93
-4 -4 6 181.8 10.71
4 4 -6 149.87 8.02
4 -4 -6 154.45 8.14
-4 4 5 1352.72 40.76
-4 -4 5 1319.06 40.65
4 -4 -5 1236.06 40.46
4 4 -5 1356.56 40.91
-4 4 4 703.29 22.73
-4 -4 4 695.81 22.77
4 4 -4 699.5 23.97
4 -4 -4 673.53 23.79
4 4 -3 6.7 2.41
4 -4 -3 7.09 2.46
-4 4 3 6.66 2.06
-4 -4 3 5.86 1.84
4 -4 -2 2782.87 82.05
4 4 -2 2801.18 82
-4 -4 2 2683.05 78.76
-4 4 2 2793.46 78.84
4 -4 -1 1178.16 38.15
4 4 -1 1075.32 37.47
-4 4 1 1129.18 34.79
-4 -4 1 1128.86 34.79
-4 4 0 174.45 8.66
-4 -4 0 171.64 8.61
4 -4 0 155.61 10.17
4 4 0 192.68 10.94
-4 -4 -1 63.34 5.48
-4 4 -1 61.28 5.39
4 4 1 60.78 6.39
4 -4 1 67.6 6.81
4 -4 2 904.26 34.86
4 4 2 906.41 34.71
-4 4 -2 986.17 32.89
-4 -4 -2 933.95 32.42
4 -4 3 101.17 8.96
4 4 3 106.23 9.48
-4 4 -3 102 8.25
-4 -4 -3 103.49 8.26
-4 -4 -4 45.53 6.29
-4 4 -4 45.36 6.54
4 4 4 48.32 7.03
4 -4 4 54.46 7.13
4 4 5 4.4 4.23
4 -4 5 0.89 3.92
4 4 6 1501.85 54.4
4 -4 6 1425.83 53.52
-4 -4 -7 159.07 11.16
4 4 7 163.21 13.85
4 -4 7 146.97 13.38
4 4 8 38.42 7.86
4 -4 8 32.05 7.64
-4 -4 -8 41.43 6.62
4 4 9 1217.46 49.23
4 -4 9 1223.68 49.25
4 4 10 475.37 27.17
4 -4 10 495.29 27.88
4 4 11 153.78 15.67
4 -4 11 182.02 16.62
-4 4 -12 161.91 17.59
-4 -4 -12 146.85 17.46
4 -5 -15 38.55 6.08
4 5 -15 31.73 5.96
-4 -5 15 31.72 9.13
-4 -5 14 216.9 18.74
4 5 -14 231.6 13.04
4 -5 -14 228.19 12.85
-4 -5 13 580.89 30.44
4 -5 -13 556.9 22.17
4 5 -13 517.09 21.91
-4 5 12 270.92 12.21
4 -5 -12 298.89 14.25
4 5 -12 302.53 14.43
-4 -5 11 422.26 16.36
4 -5 -11 410.86 16.9
4 5 -11 410.75 17.04
-4 -5 10 158.26 9.69
4 -5 -10 188.09 9.99
4 5 -10 176.82 9.78
-4 -5 9 112.46 8.18
4 -5 -9 126.16 7.65
4 5 -9 122.91 7.78
-4 -5 8 44.67 5.6
4 -5 -8 49.9 4.71
4 5 -8 51.1 4.87
4 5 -7 40.06 4.25
4 -5 -7 45.22 4.28
-4 -5 7 34.44 4.97
-4 -5 7 36.11 4.87
-4 5 7 33.93 4.98
-4 -5 6 311.75 15.29
4 5 -6 335.59 13.44
4 -5 -6 325.97 13.25
-4 5 6 327.29 14.2
-4 -5 6 338.37 14.35
-4 -5 5 87.65 7.64
4 -5 -5 104.23 6.32
4 5 -5 107.27 6.45
-4 5 5 106.96 6.41
-4 -5 5 99.47 6.25
-4 -5 4 909.9 32.67
-4 5 4 911.36 28.61
-4 -5 4 914.45 28.68
4 -5 -4 886.59 29.84
4 5 -4 903.94 29.97
-4 -5 3 2768.87 79.79
-4 5 3 2806.05 79.82
4 5 -3 2851.26 82.5
4 -5 -3 2747.64 82.29
-4 5 2 1489.93 43.96
-4 -5 2 1457.18 43.9
4 -5 -2 1475.78 47.11
4 5 -2 1523.94 47.14
-4 -5 1 2737.9 78.8
-4 5 1 2708.88 78.84
4 5 -1 2769.99 82.3
4 -5 -1 2767.82 82.43
-4 -5 0 1937.15 57.28
-4 5 0 1938 57.34
4 5 0 1912.07 60.63
4 -5 0 1853.76 60.54
4 5 1 41.41 5.36
4 -5 1 46.35 5.68
-4 5 -1 38.31 4.5
-4 -5 -1 35.48 4.21
4 -5 2 39.12 5.51
4 5 2 29.39 4.99
-4 -5 -2 35.24 4.56
-4 5 -2 27.15 4.3
4 -5 3 -2.23 4.19
4 5 3 5.13 3.45
-4 5 -3 1.6 2.79
-4 -5 -3 7.34 3.38
4 -5 4 11.45 4.24
4 5 4 12.92 4.58
-4 5 -4 24.31 5.03
-4 -5 -4 16 4.03
4 5 5 1853.54 64.08
4 -5 5 1878.7 64.15
-4 -5 -5 1850.71 60.16
4 5 6 110.11 11.51
4 -5 6 121.75 11.54
-4 -5 -6 116.55 9.47
4 5 7 189.54 14.76
4 -5 7 172.86 14.34
-4 -5 -7 199.48 12.44
4 -5 8 7.73 5.5
4 5 8 7.66 5.73
4 -5 9 31.59 8.03
4 5 9 13.92 6.29
4 5 10 376.77 24.07
4 -5 10 418.35 25.16
4 5 11 185.79 17
4 -5 11 216.65 18.19
-4 -5 -12 332.65 25.02
-4 5 -12 317.05 23.82
4 -6 -15 137.86 10.52
4 6 -15 147.22 10.4
-4 -6 15 125.97 15.22
4 -6 -14 84.02 7.85
4 6 -14 100.64 8.46
-4 -6 14 98.67 13.76
4 -6 -13 148.07 9.78
4 6 -13 112.46 8.86
-4 -6 13 133.88 15.12
-4 6 12 27.26 4.07
-4 -6 12 30.13 8.46
4 -6 -12 21.3 4.37
4 6 -12 19.18 4.42
-4 6 11 593.6 24.23
-4 -6 11 635.92 24.33
4 -6 -11 703.06 24.88
4 6 -11 700.88 25.05
-4 6 10 238.24 12.78
-4 -6 10 274.24 13.07
4 -6 -10 234.97 11.9
4 6 -10 256.33 12.19
-4 -6 9 1240.73 39.72
4 -6 -9 1141.06 37.6
4 6 -9 1132.01 37.68
-4 -6 8 47.69 5.96
4 -6 -8 36.92 4.18
4 6 -8 43.63 4.63
-4 -6 7 645.51 24.45
-4 6 7 623.35 24.36
4 -6 -7 610.38 22.3
4 6 -7 638.78 22.61
4 6 -6 395.47 15.37
4 -6 -6 365.95 14.97
-4 -6 6 403.72 17.91
-4 -6 6 411.24 16.39
-4 6 6 407.11 16.37
4 6 -5 126.55 7.37
4 -6 -5 127.98 7.36
-4 -6 5 155.07 9.92
-4 6 5 133.88 7.38
-4 -6 5 134.64 7.41
-4 -6 4 842.92 30.53
4 6 -4 812.41 27.66
4 -6 -4 838.15 27.83
-4 6 4 819.12 26.27
-4 -6 4 808.03 26.31
4 -6 -3 78.35 6.15
4 6 -3 88.06 6.43
-4 -6 3 81.97 7.51
-4 6 3 83.9 4.97
-4 -6 3 95.72 5.26
4 6 -2 1193.34 38.74
4 -6 -2 1206.92 38.94
-4 6 2 1181.4 35.49
-4 -6 2 1149.89 35.47
-4 6 1 4233.79 119.65
-4 -6 1 4205.08 119.58
4 6 -1 4326.89 123.56
4 -6 -1 4341.55 123.7
-4 -6 1 4103.71 124.91
-4 -6 0 1027.78 36.72
-4 6 0 1035.64 33.08
-4 -6 0 1015.97 32.83
4 -6 0 1068.05 36.73
4 6 0 1078.85 36.61
-4 -6 -1 964.05 35.78
4 -6 1 962.46 36.27
4 6 1 1018.48 36.46
-4 6 -1 1071.29 33.54
-4 -6 -1 1010.21 33.14
-4 6 -2 7.1 2.62
-4 -6 -2 13.95 3.34
-4 -6 -2 5.19 3.4
4 -6 2 12.63 3.81
4 6 2 7.83 3.2
-4 -6 -3 699 28.25
-4 -6 -3 725.72 27.38
-4 6 -3 756.67 27.81
4 -6 3 765.58 30.72
4 6 3 712.69 29.93
-4 -6 -4 429.42 19.99
-4 6 -4 462 20.39
-4 -6 -4 463.46 20.49
4 6 4 429.59 22.03
4 -6 4 456.41 22.51
4 6 5 -2.63 4.29
4 -6 5 5.35 4.36
4 6 6 15.19 5.45
4 -6 6 15.45 5.76
4 -6 7 15.52 5.94
4 6 7 18.42 6.96
4 6 8 42.36 8.17
4 -6 8 28.59 7.66
4 -6 9 469.42 25.78
4 6 9 412.4 24.46
4 6 10 265.82 19.63
4 -6 10 247.63 19.15
-4 6 -11 159 16.73
-4 -6 -11 161.32 17.39
4 6 11 165.11 15.71
4 -6 11 158.98 16.15
-4 6 -12 8.74 8.45
-4 -6 -12 9.17 8.75
4 -7 -14 -1.08 4.18
4 7 -14 3.85 4.54
-4 -7 14 1.46 7.13
-4 -7 13 433.48 27.83
4 -7 -13 489.63 20.19
4 7 -13 488.7 20.28
-4 -7 12 59.08 10.6
4 -7 -12 55.49 5.89
4 7 -12 74.94 6.78
-4 7 12 50.32 5.85
4 -7 -11 77.43 6.73
4 7 -11 85.22 6.95
-4 -7 11 98.04 12.62
-4 -7 11 103.84 8.1
-4 7 11 81.38 7.52
4 -7 -10 76.67 6.12
4 7 -10 79.07 6.35
-4 -7 10 72.75 7.2
-4 7 10 74.2 7.28
-4 -7 9 3.84 3.22
4 -7 -9 9.27 3.07
4 7 -9 5.27 2.95
4 -7 -8 2.1 2.33
4 7 -8 2.82 2.68
-4 -7 8 5.02 3.56
4 -7 -7 2.27 2.24
4 7 -7 2.96 2.48
-4 7 7 10.12 3.74
-4 -7 7 5.15 3.49
-4 -7 6 2.82 2.88
-4 7 6 5.24 2.71
4 -7 -6 3.43 2.27
4 7 -6 1.59 2.01
-4 -7 6 1.16 3.48
4 7 -5 1337.34 44.1
4 -7 -5 1393.9 44.34
4 7 -5 1431.74 44.4
-4 7 5 1510.92 44.54
-4 -7 5 1460.14 44.41
-4 -7 5 1541.19 48.48
-4 -7 4 71.86 7.35
-4 7 4 69.78 4.84
-4 -7 4 77.69 5.12
4 -7 -4 83.46 5.86
4 7 -4 73.19 5.63
-4 -7 3 2793.43 85.94
4 -7 -3 2791.87 83.02
4 7 -3 2733.79 82.76
-4 7 3 2838.26 80.19
-4 -7 3 2823.83 80.24
-4 7 2 846.07 26.71
-4 -7 2 878.41 26.91
4 7 -2 852.55 29.94
4 -7 -2 853.76 30.09
-4 -7 1 902.07 35.26
4 -7 -1 1026.54 34.85
4 7 -1 999.98 34.48
-4 7 1 1003.2 31.09
-4 -7 1 1009.54 31
-4 -7 1 1018.03 30.95
-4 -7 0 49.49 6.22
4 -7 0 54.14 5.87
4 7 0 50.99 5.8
-4 7 0 48.16 4.3
-4 -7 0 50.83 4.19
-4 -7 -1 9.52 3.76
4 -7 1 10.5 3.5
4 7 1 9.62 3.5
-4 7 -1 6.28 2.51
-4 -7 -1 10.19 2.78
4 7 2 44.92 5.96
-4 -7 -2 54.87 5.33
4 -7 2 43.94 6.32
-4 7 -2 54.39 5.39
-4 7 -3 971.45 34.38
-4 -7 -3 964.38 34.2
4 -7 3 1032.29 37.91
4 7 3 967.5 37.18
-4 -7 -4 484.08 21.52
4 -7 4 520.92 24.22
4 7 4 513.48 24.28
4 -7 5 306.83 18.2
4 7 5 316.03 18.46
4 7 6 410.21 22.1
4 -7 6 388.7 21.71
4 -7 7 2017.67 71.11
4 7 7 2083.21 71.38
4 7 8 7.55 5.27
4 -7 8 7.66 5.64
4 -7 9 3.5 5.71
4 7 9 -3.47 7.37
4 7 10 -1.22 6.81
4 -7 10 1.24 5.58
-4 7 -11 224.47 19.65
4 -7 11 201.23 18.05
-4 -8 14 19.81 9.86
4 -8 -14 30.6 5.27
4 8 -14 36.58 5.94
4 -8 -13 113.21 8.73
4 8 -13 124.3 9.02
-4 8 12 173.74 10.91
4 -8 -12 182.04 10.68
4 8 -12 198.48 11.02
-4 -8 12 172.25 16.9
-4 -8 11 326.86 16.32
-4 8 11 304.1 16.21
4 -8 -11 350.38 15.32
-4 -8 11 347.47 22.83
-4 8 10 20.63 5.44
-4 -8 10 34.81 5.68
-4 -8 10 33.53 8.13
4 -8 -10 25.57 4.03
4 8 -10 29.35 4.5
-4 8 9 239.93 13.94
-4 -8 9 224.91 13.78
4 -8 -9 249.45 11.61
4 8 -9 264.7 11.99
4 -8 -8 101.57 6.59
4 8 -8 97.77 6.56
-4 -8 7 874.54 34.14
4 -8 -7 979.85 31.16
4 8 -7 1004.22 31.47
-4 8 7 900.69 33.05
-4 -8 6 169.05 11.19
-4 -8 6 169.81 9.45
-4 8 6 161.74 9.21
4 8 -6 154.22 8.45
4 -8 -6 150.22 8.29
-4 8 5 804.62 26.41
-4 -8 5 747.27 26.15
4 8 -5 771.55 26.45
4 -8 -5 762.04 26.42
-4 8 4 5.75 2.13
-4 -8 4 4.26 2.17
4 -8 -4 5.58 2.69
4 8 -4 6.99 2.55
-4 -8 4 4.23 3.77
4 8 -3 20.86 3.61
4 -8 -3 15.23 3.28
-4 8 3 17.71 2.63
-4 -8 3 19.76 2.87
4 8 -2 151.47 9.17
4 -8 -2 134.41 8.7
-4 -8 2 146.64 6.87
-4 8 2 149.26 6.75
4 -8 -1 2229.4 69.33
4 8 -1 2271.01 69.26
-4 -8 1 2246.49 65.03
-4 8 1 2254.93 64.95
4 8 0 214.58 12.32
4 -8 0 211.27 12.47
-4 8 0 220.93 9.62
-4 -8 0 216.15 9.47
4 8 1 1067.06 36.87
4 -8 1 951.84 36.27
-4 8 -1 1015.26 32.69
-4 -8 -1 1003.84 32.59
-4 8 -2 46.37 4.87
-4 -8 -2 47.95 5.1
4 -8 2 45.66 6.51
4 8 2 51.15 6.74
-4 8 -3 564.21 21.86
-4 -8 -3 506.11 21.18
4 8 3 541.65 24.28
4 -8 3 525.2 24.23
-4 -8 -4 53.11 6.46
4 -8 4 60.64 7.96
4 8 4 73.61 8.21
4 8 5 268.86 17.03
4 -8 5 279.87 17.3
4 8 6 287.56 18.33
4 -8 6 343.52 19.83
4 -8 7 34.76 7.81
4 8 7 36.15 7.5
4 8 8 8.54 5.41
4 -8 8 1.09 5.32
4 8 9 1051.68 44.12
4 -8 9 1022.47 43.69
4 8 10 -1.21 6.05
4 -8 10 3.7 6.14
-4 8 -11 542.67 31.19
-4 -8 -11 558.8 31.82
4 -9 -14 101.13 8.55
4 9 -14 91.31 8.33
4 -9 -13 354 16.69
4 9 -13 390.66 17.39
-4 -9 13 419.66 27.21
-4 9 12 138.85 10.4
4 -9 -12 134.48 9.05
4 9 -12 139.91 9.3
-4 -9 12 160.41 16.97
-4 9 11 479.65 21.74
4 -9 -11 482.61 19.02
4 9 -11 450.91 18.87
-4 -9 11 488.11 28.32
-4 -9 10 369.75 23.67
4 -9 -10 383.67 15.63
4 9 -10 353.01 15.34
-4 9 10 335.49 17.84
-4 9 9 288.34 16.07
4 9 -9 274.05 12.77
4 -9 -9 292.91 12.95
4 -9 -8 0.35 2.06
4 9 -8 2.46 2.17
-4 9 8 -0.72 3.97
4 -9 -7 3.63 2.36
4 9 -7 2.01 2.28
-4 9 7 3.99 3.11
-4 -9 6 159.65 9.4
-4 9 6 164.23 9.4
4 9 -6 158.37 8.49
4 -9 -6 159.49 8.52
-4 9 5 730.96 24.98
-4 -9 5 745.61 25.17
4 9 -5 709.59 25.03
4 -9 -5 722.78 25.2
4 -9 -4 135.92 8.22
4 9 -4 145.66 8.28
-4 9 4 133.39 6.98
-4 -9 4 129.14 7.02
4 9 -3 3465.77 101.53
4 -9 -3 3423.69 101.59
-4 9 3 3481.08 98.39
-4 -9 3 3491.69 98.51
4 9 -2 1242.86 40.89
4 -9 -2 1260.4 41.31
-4 -9 2 1255.36 37.4
-4 9 2 1227.35 37.2
4 -9 -1 608.36 23.54
4 9 -1 593.69 23.02
-4 9 1 575.48 19.08
-4 -9 1 572.73 19.12
-4 9 0 253.56 10.52
-4 -9 0 254.94 10.46
4 -9 0 263.43 14.04
4 9 0 262.4 13.74
4 9 1 7.15 3.38
4 -9 1 11.14 3.65
-4 9 -1 10.74 2.69
-4 -9 -1 11.62 2.82
-4 9 -2 190.25 10.05
-4 -9 -2 201.61 10.18
4 9 2 186.82 12.17
4 -9 2 165.38 11.89
4 9 3 924.42 35.44
4 -9 3 920.91 35.56
-4 9 -3 888.65 31.93
-4 -9 -3 920.38 32.03
4 9 4 237.35 14.98
4 -9 4 249.91 15.48
-4 -9 -4 233.87 13.16
4 9 5 823.21 34.36
4 -9 5 827.1 34.45
4 -9 6 76.88 10.04
4 9 6 64.85 8.71
4 9 7 1089.7 44.12
4 -9 7 1168.27 45.34
4 9 8 7.41 5.55
4 -9 8 15.08 6.42
4 9 9 15.76 6.79
4 -9 9 5.76 6.14
-4 -9 -10 16.08 8.28
-4 9 -10 3.84 7.62
-4 9 -11 161.75 16.68
-4 -9 -11 150.78 16.75
4 -10 -13 37.74 5.45
4 10 -13 36.57 5.69
-4 -10 13 36.44 10.69
4 -10 -12 -0.91 3.16
4 10 -12 2.8 3.51
-4 10 12 7.57 4.71
-4 -10 12 9.05 7.37
-4 10 11 185.76 13.26
4 -10 -11 217.59 11.4
4 10 -11 223.39 11.67
-4 10 10 0.75 4.26
-4 -10 10 -1.34 5.64
4 -10 -10 3.18 2.9
4 10 -10 4.85 2.87
4 -10 -9 646.11 23.23
4 10 -9 649.78 23.36
-4 10 9 657.08 28.06
4 -10 -8 149.9 8.21
4 10 -8 147.58 8.25
-4 -10 8 118.66 13.07
-4 10 8 135.5 11.24
-4 10 7 1587.44 50.22
4 -10 -7 1497.11 47.29
4 10 -7 1532.43 47.46
-4 -10 7 1556.97 58.19
-4 10 7 1582.57 54.32
4 10 -6 190.68 9.66
4 -10 -6 192.13 9.66
-4 -10 6 197.23 10.75
-4 10 6 189.8 10.49
-4 -10 5 1.08 2.68
-4 10 5 0.35 2.6
4 -10 -5 1.1 2.54
4 10 -5 2.52 2.45
-4 10 4 10.59 2.64
-4 -10 4 8.79 2.68
4 10 -4 12.5 3.22
4 -10 -4 9.19 3.07
4 10 -3 290.26 13.42
4 -10 -3 279.85 13.41
-4 10 3 294.85 11.25
-4 -10 3 292.49 11.32
4 10 -2 78.18 6.59
4 -10 -2 71.38 6.44
-4 10 2 65.58 4.17
-4 -10 2 74.61 4.53
4 -10 -1 556.28 22.58
4 10 -1 543.32 22.11
-4 -10 1 574.63 18.54
-4 10 1 552.09 18.33
4 -10 0 477.16 20.71
4 10 0 472.6 20.38
-4 10 0 476.23 16.56
-4 -10 0 480.47 16.53
4 10 1 689.43 28.01
4 -10 1 745.15 28.83
-4 10 -1 732.64 24.42
-4 -10 -1 744.96 24.37
-4 -10 -2 398.23 15.82
-4 10 -2 390.16 15.88
4 10 2 391.12 19.02
4 -10 2 389.48 19.19
-4 10 -3 236.43 12.33
-4 -10 -3 252.88 12.43
4 10 3 237.71 14.57
4 -10 3 244.35 14.88
4 10 4 300.45 17.31
4 -10 4 321.16 17.97
-4 -10 -4 317.9 15.44
4 10 5 1.68 4.26
4 -10 5 0.86 4.53
-4 -10 -5 -0.35 2.58
4 10 6 349.09 20.01
4 -10 6 351.02 20.32
4 10 7 509.93 25.76
4 -10 7 516.49 26.29
4 10 8 61.35 9.42
4 -10 8 55.54 9.07
4 10 9 253.32 18.35
4 -10 9 217.36 17.8
-4 10 -9 231.87 16.13
-4 10 -10 49.69 10.69
-4 -10 -10 62.33 11.69
-4 -11 13 126.81 16.65
4 -11 -13 119.96 8.66
4 11 -13 119.14 9.03
-4 -11 12 -1.57 6.77
-4 11 12 9.1 5.2
4 -11 -12 6.29 3.59
4 11 -12 14.71 4.41
-4 -11 11 625.7 34.27
4 -11 -11 595.79 22.59
4 11 -11 588.52 22.69
-4 11 11 636.94 27.28
4 -11 -10 169.24 9.47
4 11 -10 162.52 9.43
-4 11 10 160.73 12.87
-4 11 9 29.22 6.5
4 -11 -9 22.06 3.86
4 11 -9 16.51 3.63
-4 11 8 20.22 5.85
4 -11 -8 20.2 3.73
4 11 -8 18.88 3.44
-4 -11 8 13.47 6.64
-4 11 7 5.92 5.03
-4 11 7 7.39 3.72
4 -11 -7 6.1 2.98
4 11 -7 5.52 2.72
-4 -11 7 8.03 6.74
-4 -11 6 42.34 8.49
-4 -11 6 43.8 5.16
-4 11 6 43.1 5.03
4 -11 -6 32.92 4.16
4 11 -6 38.81 4.25
-4 11 6 52.86 8.29
-4 -11 5 210.07 10.29
-4 11 5 196.69 9.97
-4 -11 5 216.71 15.95
4 11 -5 182.92 9.89
4 -11 -5 202.23 10.26
-4 11 4 537.58 18.61
-4 -11 4 531.7 18.76
4 11 -4 509.26 19.89
4 -11 -4 497.26 20.01
4 11 -3 10.32 3.35
4 -11 -3 12.64 3.57
-4 11 3 9.35 2.35
-4 -11 3 14.89 2.69
4 11 -2 23.9 4.28
4 -11 -2 19.44 4.21
-4 11 2 22.04 2.5
-4 -11 2 22.04 2.68
-4 11 1 224.94 8.98
-4 -11 1 232.8 9.16
4 -11 -1 231.22 12.6
4 11 -1 233.29 12.51
-4 11 0 58.18 4.18
-4 -11 0 60.6 4.26
4 11 0 59.28 6.33
4 -11 0 72.89 7.16
-4 11 -1 22.38 3.16
-4 -11 -1 17.9 2.91
4 11 1 18.28 4.51
4 -11 1 23.54 5.11
4 11 2 244.69 14.15
4 -11 2 248.31 14.58
-4 -11 -2 239.68 11.07
-4 11 -2 248.91 11.35
4 11 3 490.07 22.67
4 -11 3 525.35 23.47
-4 11 -3 514.54 19.99
-4 -11 -3 487.97 19.55
-4 -11 -3 500.37 20.91
-4 -11 -4 230.73 12.1
4 11 4 260.21 15.41
4 -11 4 230.57 15.11
-4 -11 -4 255.08 13.22
4 11 5 1206.46 45.2
4 -11 5 1243.19 45.75
4 -11 6 93.15 10.43
4 11 6 70.35 9.14
4 -11 7 43.97 8.2
4 11 7 42.73 8.03
4 -11 8 343.39 21.13
4 11 8 363.09 21.35
-4 11 -8 324.39 19.9
-4 11 -9 1.85 5.78
-4 11 -9 -2.28 7.89
-4 -11 -9 -11.91 8.96
4 -11 9 2.24 6.31
-4 11 -10 -2.36 8.6
-4 -11 -10 -1.23 7.25
-4 12 12 -0.82 5.53
-4 -12 12 3.25 8.52
4 -12 -12 3.14 3.82
4 12 -12 1.83 3.55
-4 -12 11 17.01 8.86
-4 12 11 10.21 5.5
4 -12 -11 13.68 3.88
4 12 -11 13.23 4.15
-4 12 10 83.45 10.29
4 12 -10 97.34 7.08
4 -12 -10 99.16 7.21
-4 12 9 584.53 26.84
4 -12 -9 525.92 20.21
4 12 -9 551.48 20.5
-4 -12 9 559.99 31.09
-4 12 8 684.57 29.43
4 -12 -8 624.02 22.21
4 12 -8 598.88 22.18
-4 -12 8 613.58 32.29
-4 12 7 260.53 16.59
-4 -12 7 279.24 19.61
4 -12 -7 246.41 11.46
4 12 -7 231.94 11.1
-4 -12 6 235.15 12.13
-4 12 6 255.82 12.27
4 -12 -6 231.2 11.21
4 12 -6 213.09 10.81
-4 12 6 236.05 16.18
-4 -12 6 203.82 16.54
-4 -12 5 8.36 4.92
-4 -12 5 -0.38 3.04
-4 12 5 0.73 2.67
-4 12 5 6.38 4.77
4 -12 -5 3.6 2.82
4 12 -5 8.5 3.23
-4 12 4 -2.73 4.45
-4 -12 4 1.25 2.59
-4 12 4 -0.3 2.42
4 -12 -4 3.87 2.77
4 12 -4 1.22 2.81
-4 -12 4 -0.98 5.12
-4 12 3 721.37 23.67
-4 -12 3 763.86 24.03
4 -12 -3 707.19 26.53
4 12 -3 737.72 26.45
-4 -12 3 725.58 32.18
-4 12 2 1539.34 45.76
-4 -12 2 1609.81 46.05
-4 -12 2 1528.83 55.06
4 -12 -2 1522.22 50.02
4 12 -2 1560.36 49.89
-4 12 1 247.39 9.39
-4 -12 1 238.78 9.46
4 12 -1 250.34 12.81
4 -12 -1 246.99 13.07
-4 -12 1 248.01 15.47
4 12 0 70.61 7.06
4 -12 0 60.01 6.61
-4 -12 0 66.4 4.32
-4 12 0 67.65 4.3
-4 -12 0 68.91 8.06
4 -12 1 283.1 14.71
4 12 1 272.27 14.18
-4 -12 -1 257.08 10.37
-4 12 -1 247.34 10.43
-4 -12 -1 262.65 14.86
-4 -12 -2 1089.13 40.77
-4 -12 -2 1241.72 37.09
-4 12 -2 1183.58 37.14
4 12 2 1184.04 41.5
4 -12 2 1145.04 41.74
-4 -12 -3 22.63 4.99
-4 12 -3 28.7 4.35
-4 -12 -3 27.82 4.31
4 12 3 27.67 5.76
4 -12 3 29.16 5.84
4 -12 4 5.35 4.2
4 12 4 4.38 4.01
-4 -12 -4 12.07 4.15
-4 -12 -4 1.4 3.07
4 -12 5 -2.48 4.47
4 12 5 2.36 4.19
4 12 6 11.89 5.36
4 -12 6 8.87 5.41
-4 12 -7 -1.97 5.8
4 12 7 4.6 5.04
4 -12 7 0.95 5.08
-4 12 -8 245.88 17.4
-4 12 -8 247.15 17.89
4 12 8 246.25 17.42
4 -12 8 274.4 18.42
-4 -12 -9 80.3 12.09
-4 12 -9 97.65 12.01
-4 12 -9 66.9 10.02
4 -13 -11 44.19 5.4
4 13 -11 31.84 4.92
-4 13 11 37.4 8.03
4 -13 -10 621.61 22.37
4 13 -10 585.62 22.19
-4 13 10 605.42 28.82
-4 -13 9 139.12 15.36
-4 13 9 123.72 12.14
4 -13 -9 104.4 7.13
4 13 -9 97.09 7.1
4 -13 -8 21.9 3.82
-4 -13 8 20.19 7.82
4 13 -8 12.64 3.4
-4 13 8 20.56 6.13
-4 -13 7 37.88 9.24
-4 13 7 20.52 6.93
4 -13 -7 27.35 4
4 13 -7 36.72 4.39
-4 13 6 299 18.66
-4 -13 6 316.9 20.92
-4 -13 6 295.49 14.41
4 13 -6 303.84 13.36
4 -13 -6 302.89 13.46
4 -13 -5 73.77 6.41
4 13 -5 72.08 6.22
-4 13 5 85.03 10.06
-4 -13 5 76.29 10.51
-4 -13 5 84.17 6.42
-4 13 4 80.41 9.61
4 13 -4 76.39 6.39
4 -13 -4 88.89 6.85
-4 -13 4 84.94 6.03
-4 -13 4 84.52 10.33
-4 -13 3 879.77 26.6
4 -13 -3 783.95 28.87
4 13 -3 763.42 28.53
-4 13 3 776.02 34.79
-4 -13 3 841.71 35.48
-4 -13 2 401.77 14.14
-4 -13 2 396.04 21.65
4 -13 -2 385.92 17.29
4 13 -2 416.95 17.33
-4 -13 1 267.25 9.64
-4 -13 1 236.7 15.56
4 13 -1 227.82 12.26
4 -13 -1 212.89 12.35
-4 -13 0 354.42 19.2
4 -13 0 364.24 17.09
4 13 0 410.32 17.39
-4 -13 0 368.96 13.05
-4 -13 -1 506.91 23.27
-4 -13 -1 509.85 17.1
4 -13 1 482.75 21.57
4 13 1 517.27 21.4
-4 -13 -2 184.71 12.38
4 -13 2 192.58 12.25
4 13 2 187.83 11.85
-4 -13 -2 193 8.87
-4 -13 -3 493.66 21.48
-4 -13 -3 486.02 18.11
4 13 3 468.44 21.28
4 -13 3 462.16 21.7
-4 -13 -4 763.05 27.39
-4 13 -4 783.35 34.49
4 13 4 775.34 30.84
4 -13 4 767.91 31.2
-4 13 -5 260.4 17.93
4 13 5 254.76 15.34
4 -13 5 268.05 15.98
-4 13 -6 974.89 40.87
4 13 6 1006.37 38.63
4 -13 6 974.35 38.88
-4 13 -7 1106.49 45.58
4 13 7 1195.77 44.6
4 -13 7 1175.79 44.94
-4 13 -8 -0.98 6.64
-4 -13 -8 8.04 7.2
-4 13 -8 9.26 6.85
-4 14 11 44.72 9.25
4 -14 -11 44.07 5.54
-4 14 10 83.67 11.27
-4 -14 10 108.78 14.59
4 -14 -10 115.14 7.8
4 -14 -9 145.51 8.65
4 -14 -9 158.87 8.97
-4 14 9 154.01 13.93
-4 -14 9 161.3 17.14
4 -14 -8 633.18 23.07
-4 -14 8 635.64 33.9
-4 14 8 675.87 31.1
-4 14 7 35.61 7.76
4 -14 -7 35.02 4.52
-4 -14 7 35.68 9.35
-4 -14 6 881.88 40.84
-4 14 6 958.8 39.65
4 -14 -6 976.48 31.69
4 14 -6 879.91 30.97
4 14 -5 92.4 7.06
4 -14 -5 93.29 7.21
-4 -14 5 94.14 11.72
-4 -14 5 100.92 7.32
-4 14 5 118.16 11.84
-4 -14 4 13.1 6.25
-4 14 4 14.33 5.71
-4 -14 4 11.19 3.14
4 14 -4 14.21 3.54
4 -14 -4 9.08 3.54
-4 -14 3 53.19 8.66
4 14 -3 51.42 5.66
4 -14 -3 41.39 5.2
-4 -14 3 49.59 4.47
-4 14 3 54.28 8.98
-4 -14 2 28 3.08
4 -14 -2 14.77 3.94
4 14 -2 24.48 4.08
-4 -14 2 28.78 6.72
-4 -14 1 320.1 11.19
4 14 -1 304.46 14.04
4 -14 -1 282.12 14.15
-4 14 1 275.96 18.96
-4 -14 1 290.76 18.21
4 -14 0 336.35 16.28
4 14 0 369.86 16.27
-4 -14 0 374.72 12.76
-4 14 0 382.77 22.01
-4 -14 0 359.62 19.79
4 14 1 25.01 5
4 -14 1 27.3 5.21
-4 14 -1 27.1 6.97
-4 -14 -1 23.61 5.87
-4 -14 -1 27.33 2.95
4 -14 2 712.5 27.89
-4 14 -2 724.24 33.32
-4 -14 -2 672.21 29.15
-4 -14 -2 736.22 23.26
-4 14 -3 77.22 10.27
-4 -14 -3 55.37 7.17
4 -14 3 53.3 7.34
4 -14 4 155.72 11.74
-4 14 -4 149.27 13.84
-4 14 -5 45.13 9.61
4 -14 5 44.27 7.44
4 -14 6 629.28 27.3
-4 14 -6 546.95 28.77
-4 -14 -7 38.36 8
-4 14 -7 51.27 9.26
-4 -14 -8 283 18.16
-4 14 -8 267.69 19.08
-4 -15 10 379.28 27.06
-4 15 10 366.9 22.68
4 -15 -9 1.94 3.15
-4 15 9 -3.27 6.48
-4 -15 9 6.19 8.23
4 -15 -8 94.94 7.09
-4 -15 8 83.06 12.97
-4 15 8 103.99 12.28
-4 -15 7 -4.14 6.23
-4 15 7 5.52 5.88
4 -15 -7 1.6 2.89
4 -15 -6 477.8 18.89
-4 -15 6 447.34 27.09
-4 15 6 498.38 26.56
-4 15 5 1.1 5.68
-4 -15 5 3.66 5.26
4 -15 -5 3.75 3.04
4 -15 -4 282.6 13.56
-4 -15 4 323.44 20.9
-4 15 4 323.78 20.5
-4 15 3 38.28 8.17
4 -15 -3 37.57 5.02
-4 -15 3 44.32 8.81
-4 -15 2 541.4 27.18
4 -15 -2 527.54 20.32
-4 15 1 17.37 6.81
-4 -15 1 23.94 6.9
4 -15 -1 30.25 4.49
4 -15 0 168.46 9.95
-4 -15 0 174.02 13.9
-4 15 0 177.31 15.11
-4 -15 -1 92.84 9.74
-4 15 -1 84.26 10.92
4 -15 1 88.96 7.67
-4 -15 -2 5.5 5.43
4 -15 2 2.61 3.67
-4 15 -2 1.1 5.48
4 -15 3 17.12 4.66
-4 15 -3 8.87 5.82
-4 15 -4 463.46 26.39
4 -15 4 547.3 22.97
-4 15 -5 2.26 5.74
4 -15 5 15.33 5.13
-4 15 -6 239.52 18.4
-4 -15 -6 257.76 15.59
-4 15 -7 156.43 14.96
-4 -15 -7 135.2 12.31
-4 16 9 8.11 7.48
-4 -16 9 19.26 8.94
-4 16 8 370.06 23.06
-4 -16 8 357.64 25.41
-4 16 7 48.35 9.72
-4 -16 7 25.78 8.79
-4 16 6 251.21 18.46
-4 -16 6 219.32 18.78
-4 16 5 386.77 23.73
-4 -16 5 371 24.18
-4 16 4 52.42 10.06
-4 -16 4 40.87 9.34
-4 16 3 41.81 9.06
-4 -16 3 30.67 7.84
-4 -16 2 567.95 28.72
-4 16 1 3.48 7.15
-4 -16 1 3.04 5.65
-4 16 0 287.29 20.13
-4 -16 0 280.5 18.12
-4 16 -1 39.55 8.86
-4 -16 -1 61.38 8.64
-4 16 -2 558.98 29.28
-4 16 -3 76.67 11.13
-4 16 -4 37.98 9.33
-4 16 -5 9.57 6.76
-4 16 -6 12.03 7.34
-4 17 7 50.43 9.97
-4 -17 7 43.16 10.08
-4 17 6 63.43 10.81
-4 -17 6 70.49 11.85
-4 17 5 34.49 8.87
-4 -17 5 33.32 8.64
-4 17 4 285.07 20.65
-4 -17 4 285.03 20.82
-4 17 3 3.7 6.13
-4 -17 3 3.59 6.37
-4 -17 2 714.79 34
-4 17 1 4.89 6.99
-4 -17 1 6.47 6.09
-4 17 0 85.61 11.91
-4 -17 0 87.21 10.83
-4 17 -1 12.27 7.48
-4 -17 -1 7.78 6.61
-4 17 -2 35.74 9.4
-4 17 -3 23.55 8.83
-4 17 -4 79.94 12.24
-4 18 6 114.99 14.41
-4 -18 6 132.88 15.64
-4 18 5 2.6 7.02
-4 -18 5 7 8.23
-4 18 4 5.2 6.92
-4 -18 4 7.98 7.08
-4 18 3 11.57 7.66
-4 -18 3 18.96 8.08
-4 -18 2 334.09 22.3
-4 -18 1 5.75 7.02
-4 18 1 9.02 8.05
-4 18 0 279.5 20.99
-4 18 -1 116.73 14.78
-4 18 -2 205.64 18.45
-4 18 -3 131.77 15.16
5 0 -15 8.92 4.91
5 0 -14 -3.36 3.72
5 0 -13 422.79 18.67
5 0 -12 1.98 3.42
5 0 -11 44.79 5.53
5 0 -10 0.87 2.83
5 0 -9 807.12 28.41
5 0 -8 2.73 2.59
5 0 -7 99.38 7.01
5 0 -6 1.53 2.32
5 0 -5 673.46 25.03
-5 0 5 719.1 23.73
-5 0 4 2.11 2.1
5 0 -4 1.85 2.39
-5 0 3 624.07 20.87
5 0 -3 606.35 24.08
-5 0 2 5.56 1.78
5 0 -2 2.85 1.78
5 0 -1 2632.06 80.84
-5 0 1 2589.06 76.27
-5 0 0 2.64 2.3
5 0 0 6.06 3.59
-5 0 -1 3763 110.91
5 0 1 3838.84 115.36
5 0 2 -1.62 3.31
5 0 3 84.07 9.29
5 0 4 2.87 4.02
5 0 5 945.57 39.75
5 0 6 -1.1 5.39
5 0 7 901.91 39.99
5 0 8 -1.24 5.46
5 0 9 379.58 24.38
5 0 10 2.74 6.58
5 0 11 418.84 27.17
5 1 -15 530.17 22.58
-5 -1 15 525.3 29.55
5 1 -14 14.52 4.83
5 1 -13 417.82 18.53
5 1 -12 1109.31 37.94
-5 -1 11 931.47 34.31
5 1 -11 1156.5 36.03
5 1 -10 1.3 2.58
5 1 -9 4.55 3.09
5 1 -8 95.59 6.83
5 1 -7 1506.83 47.21
5 1 -6 1135.7 36.93
5 -1 -5 2537.43 79.45
5 1 -5 2673.28 79.76
-5 1 5 2785.38 77.96
-5 1 4 0.79 1.93
5 -1 -4 3.24 2.38
5 1 -4 2.32 2.31
5 -1 -3 696.31 27.06
-5 1 3 709.08 23.72
-5 1 2 20.82 2.81
-5 1 2 17.23 2.65
5 1 -2 27.29 4.11
5 -1 -2 20.51 3.94
5 -1 -1 727.49 28.46
5 1 -1 726.71 28.35
-5 1 1 721.28 24.66
5 -1 0 260.88 15.08
5 1 0 285.02 15.45
-5 1 0 280.18 12.57
-5 1 -1 3305.57 97.28
5 -1 1 3220.26 101.47
5 1 1 3360.6 101.96
5 -1 2 140.67 11.46
5 1 2 172.62 12.58
5 1 3 3004.04 94.74
5 -1 3 2928.23 94.45
5 1 4 373.23 20.59
5 -1 4 296.57 18.89
5 1 5 3045.96 98.55
5 -1 5 2972.82 97.96
5 1 6 49.55 8.71
5 -1 6 50.73 8.6
5 1 7 37.73 8.41
5 -1 7 21.23 6.51
5 1 8 -2.47 5.33
5 -1 8 -1.24 5.7
5 1 9 20.99 7.82
5 -1 9 18.4 6.9
5 1 10 46.6 10.08
5 -1 10 52.17 10.81
5 1 11 263.98 21.15
5 -1 11 280.28 22.03
-5 -2 15 33.99 9.71
5 2 -15 27.33 5.62
5 2 -14 -1.68 3.75
5 2 -13 112.61 8.63
5 2 -12 20.83 4.72
-5 -2 11 480.48 20.39
5 2 -11 588.58 21.67
-5 -2 10 575.45 23.43
5 2 -10 580.28 22.11
5 2 -9 1416.66 45.31
5 2 -8 14.08 3.06
5 2 -7 305.41 13.52
5 2 -6 19.97 3.58
5 2 -5 1830.19 57.07
-5 2 5 1866.19 55.33
-5 2 4 48.78 4.12
5 2 -4 47.04 5.03
-5 2 3 90.12 5.51
5 2 -3 87.78 7.37
-5 2 2 236.44 10.1
-5 2 2 230.05 10.05
5 2 -2 213.85 12.43
-5 2 1 116.28 6.81
5 2 -1 108.17 8.69
-5 2 0 174.78 9.46
5 2 0 180.98 12.07
-5 2 -1 94.85 7.45
5 2 1 107.22 9.34
5 2 2 -1.62 3.95
5 2 3 235.31 15.45
5 2 4 172.69 13.75
5 2 5 829.71 36.37
5 2 6 752.36 34.93
5 2 7 8.24 5.32
5 2 8 23.56 7.94
5 2 9 135.95 14.76
5 2 10 213.53 18.23
5 2 11 89.22 13.07
-5 -3 15 180.67 17.18
5 -3 -15 147.28 10.86
5 3 -15 159.34 10.94
5 -3 -14 38.22 5.94
5 3 -14 39.01 5.82
5 -3 -13 216.88 11.95
5 3 -13 175.52 11.13
5 -3 -12 329.96 15.37
5 3 -12 328.46 15.43
5 -3 -11 21.61 4.18
5 3 -11 23.11 4.31
-5 -3 11 30.28 4.89
-5 -3 10 47.1 6.26
5 -3 -10 52.01 5.4
5 3 -10 50.08 5.2
5 -3 -9 74.49 6.13
5 3 -9 76.06 6.35
-5 -3 9 69.86 7.15
5 -3 -8 29.38 4.02
5 3 -8 22.83 3.93
5 -3 -7 872.1 30.03
5 3 -7 902.84 30.26
5 -3 -6 18.85 3.36
5 3 -6 18.58 3.59
-5 3 5 1989.08 58.5
-5 -3 5 1965.89 58.47
5 3 -5 2004.04 60.6
5 -3 -5 1911.57 60.32
-5 3 4 617.05 20.88
-5 -3 4 601.18 20.79
5 -3 -4 617.51 23.55
5 3 -4 632.59 23.67
-5 -3 3 845.11 26.99
-5 3 3 852.7 26.97
5 -3 -3 812.61 30.44
5 3 -3 817.51 30.51
-5 3 2 17.68 2.66
5 3 -2 15.48 3.51
5 -3 -2 12.12 3.32
-5 3 2 7.21 2.39
-5 -3 2 8.83 2.32
5 -3 -1 339.69 16.9
5 3 -1 341.98 16.91
-5 3 1 327.09 13.5
-5 -3 1 337.64 13.56
5 -3 0 230.24 14.17
-5 3 0 245.01 11.43
-5 -3 0 215.31 10.98
-5 3 -1 398.19 16.35
-5 -3 -1 351.11 15.77
5 -3 1 338.1 18.56
5 3 1 370.88 19.03
5 -3 2 1053.32 41.64
5 3 2 1180.72 42.57
5 -3 3 1025.65 41.03
5 3 3 1102.48 41.63
5 3 4 619.31 28.94
5 -3 4 592.58 28.35
5 3 5 861.52 37.32
5 -3 5 837.48 36.74
5 3 6 214.33 16.53
5 -3 6 218.71 16.67
5 3 7 137.67 13.93
5 -3 7 148.9 14.12
5 3 8 160.04 15.12
5 -3 8 159.28 15.12
5 3 9 420.68 25.42
5 -3 9 357.84 23.89
5 3 10 157.1 15.95
5 -3 10 170.06 16.97
5 3 11 360.4 25.06
5 -3 11 410.82 26.7
5 -4 -15 2.34 4.2
5 4 -15 2.36 4.04
-5 -4 15 1.4 6.98
5 -4 -14 -0.55 4.01
5 4 -14 0.56 3.82
-5 -4 14 1.38 6.88
5 -4 -13 146.69 9.97
5 4 -13 156.23 10.21
5 -4 -12 231.7 12.7
5 4 -12 267.29 13.36
-5 -4 11 132.53 9.34
5 -4 -11 153.55 9.38
5 4 -11 128.64 8.8
-5 -4 10 251.65 13.29
5 -4 -10 263.09 12.84
5 4 -10 258.87 12.64
-5 -4 9 550.92 22.62
5 4 -9 539.18 20.98
5 -4 -9 559.72 21.13
-5 -4 8 10.25 3.99
5 -4 -8 10.99 3.16
5 4 -8 20.17 3.49
5 -4 -7 234.26 11.43
5 4 -7 244.07 11.64
5 -4 -6 2.01 2.21
5 -4 -6 -0.78 2.45
5 4 -6 -1.57 2.53
5 -4 -5 5.16 2.5
5 4 -5 4.3 2.56
-5 4 5 4.07 2.46
-5 -4 5 2.05 2.29
-5 4 4 254.04 10.61
-5 -4 4 261.64 10.69
5 4 -4 251.95 12.78
5 -4 -4 227.38 12.23
5 -4 -3 531.63 22.32
5 4 -3 536.22 22.22
-5 4 3 537.05 18.87
-5 -4 3 580.92 19.13
5 -4 -2 614.99 24.37
5 4 -2 590.3 24.01
-5 4 2 562.88 19.97
-5 -4 2 599.06 20.17
-5 -4 1 182.76 8.89
5 -4 -1 186.5 11.78
5 4 -1 189.93 11.64
-5 4 1 171.17 8.74
5 4 0 1313 46.04
5 -4 0 1272.74 45.7
-5 4 0 1331.7 41.66
-5 -4 0 1297.84 41.45
-5 4 -1 133.85 8.57
-5 -4 -1 137.76 8.62
5 -4 1 119.67 10.27
5 4 1 148.9 11.1
5 4 2 46.26 6.83
5 -4 2 52.5 7.36
5 4 3 95.87 10.01
5 -4 3 90.5 9.74
5 4 4 25.85 6.66
5 -4 4 30.92 6.91
5 4 5 136.85 13.2
5 -4 5 160.97 14.01
5 4 6 2.2 5.07
5 -4 6 2.22 4.66
5 4 7 264.23 18.81
5 -4 7 248.22 18.66
5 4 8 752.59 36
5 -4 8 737.62 35.64
5 -4 9 437.63 26.63
5 4 9 475.33 27.45
5 4 10 32.68 9.2
5 -4 10 35.63 10.03
5 4 11 78.89 13.03
5 -4 11 70.47 12.64
5 -5 -14 337.54 16.09
5 5 -14 288.09 15.35
-5 -5 14 336.29 23.73
5 -5 -13 135.65 9.59
5 5 -13 138.55 9.64
5 -5 -12 303.7 14.17
5 5 -12 293.76 14.09
-5 -5 11 124.86 9.06
5 -5 -11 143.47 8.98
5 5 -11 140.56 9.16
-5 -5 10 9.94 4.26
5 -5 -10 8.36 3.16
5 5 -10 7.09 3.07
5 -5 -9 91.29 7.01
5 5 -9 107.75 7.38
-5 -5 9 93.49 8.19
5 -5 -8 561.53 20.15
5 5 -8 537.51 20.05
-5 -5 7 10.78 4.23
5 -5 -7 13.28 2.93
5 5 -7 10.6 3.24
-5 -5 6 523.03 23.21
5 5 -6 544.47 20.52
5 -5 -6 527.62 20.29
5 -5 -5 2932.97 87.82
5 5 -5 2997.91 87.96
-5 5 5 2985.6 85.64
-5 -5 5 2919.76 85.56
5 -5 -4 4202.75 125.15
5 5 -4 4251.71 125.32
-5 5 4 4329.15 121.74
-5 -5 4 4349.23 121.83
5 -5 -3 1929.74 60.15
5 5 -3 1861.23 59.79
-5 5 3 1866.17 55.5
-5 -5 3 1891.5 55.66
-5 5 2 4.71 1.91
-5 -5 2 3.94 2.08
5 -5 -2 0.59 2.54
5 5 -2 3.5 2.64
-5 5 1 32.62 3.75
-5 -5 1 35.55 3.83
5 5 -1 41.84 5.56
5 -5 -1 30.5 4.98
5 -5 0 50.15 6.52
5 5 0 34.21 5.91
-5 5 0 44.42 4.77
-5 -5 0 40.89 4.47
-5 5 -1 143.65 8.79
-5 -5 -1 141.33 8.78
5 5 1 150.32 11.42
5 -5 1 141.2 11.14
5 5 2 1160.5 43.18
5 -5 2 1137.62 43.05
5 5 3 1074.15 42.14
5 -5 3 1106.72 42.43
5 5 4 1194.39 46.26
5 -5 4 1197.05 46.36
5 -5 5 183.78 14.84
5 5 5 177.55 14.66
5 5 6 94.78 11.04
5 -5 6 68.89 9.54
5 5 7 149.24 14.26
5 -5 7 131.17 13.23
5 -5 8 -1.25 6.1
5 5 8 4.95 5.59
5 -5 9 294.04 21.24
5 5 9 307.1 21.3
5 -5 10 274.89 21.31
5 5 10 336.66 22.98
5 -5 11 129.53 14.98
5 5 11 139.88 15.63
5 -6 -14 -2.76 3.95
5 6 -14 -0.56 3.53
-5 -6 14 -2.94 6.92
5 -6 -13 108.73 8.68
5 6 -13 102.75 8.3
-5 -6 13 115.09 14.74
5 -6 -12 382.27 16.38
5 6 -12 346.47 15.94
5 -6 -11 10.62 3.59
5 6 -11 4.66 3.4
-5 -6 11 7.17 4.16
-5 -6 10 1379.98 47.05
5 -6 -10 1448.97 45.58
5 6 -10 1407.04 45.5
-5 -6 9 20.89 5.1
5 -6 -9 28.09 4.29
5 6 -9 23.73 4.27
-5 -6 8 1128.73 40.3
5 -6 -8 1198.91 37.98
5 6 -8 1123.95 37.74
-5 -6 7 3.11 3.75
5 -6 -7 3.52 2.65
5 6 -7 0.79 2.61
-5 -6 6 235.02 13.64
5 6 -6 232.94 11.46
5 -6 -6 223.61 11.38
-5 6 5 54.08 4.63
-5 -6 5 48.74 4.43
5 6 -5 54.47 5.47
5 -6 -5 52.41 5.39
-5 6 4 1258.02 38.75
-5 -6 4 1298.54 38.91
5 -6 -4 1237.69 42.02
5 6 -4 1231.24 41.94
-5 6 3 453.42 16.12
-5 -6 3 457.76 16.25
5 -6 -3 430.14 19.44
5 6 -3 449.8 19.56
-5 6 2 1084.88 33.58
-5 -6 2 1087.34 33.62
5 -6 -2 1047.68 38.02
5 6 -2 1066.87 38.04
-5 6 1 12.78 2.78
-5 -6 1 19.61 2.99
5 6 -1 15.89 4.07
5 -6 -1 10.39 3.48
-5 6 0 952.29 31.6
-5 -6 0 954.43 31.6
5 -6 0 1000.15 36.69
5 6 0 941.5 36.03
-5 -6 -1 486.23 18.92
-5 6 -1 469.52 18.85
5 -6 1 469.98 22.63
5 6 1 475.05 22.49
5 6 2 52.61 7.55
5 -6 2 49.55 7.21
5 -6 3 26.07 6.08
5 6 3 24.86 6.23
5 6 4 18.18 5.56
5 -6 4 11.66 5.42
5 6 5 20.55 6.58
5 -6 5 22.92 6.46
5 6 6 1162.48 46.7
5 -6 6 1143.8 46.49
5 6 7 -5.79 6.44
5 -6 7 7.03 6.14
5 6 8 1106.83 46.53
5 -6 8 1080.85 46.36
5 6 9 42.52 9.07
5 -6 9 48.22 9.65
5 6 10 241.5 19.34
5 -6 10 195.55 18.29
5 -7 -14 510.76 21.57
5 7 -14 507.66 21.72
-5 -7 14 563.05 32.44
5 -7 -13 9.29 4.18
5 7 -13 3.66 3.97
-5 -7 13 8.82 7.32
-5 7 12 35.37 5.76
5 -7 -12 39.49 5.49
5 7 -12 37.04 5.32
5 7 -11 58.45 6.29
5 -7 -11 75.66 6.55
-5 -7 11 62.21 6.96
5 -7 -10 10.44 3.31
5 7 -10 8.35 3.19
5 -7 -9 251.57 12.36
5 7 -9 266.72 12.76
5 -7 -8 34.86 4.53
5 7 -8 30.44 4.59
5 -7 -7 58.24 5.45
5 7 -7 52.04 5.28
5 -7 -6 1353.54 44.73
5 7 -6 1450.99 45.08
5 -7 -5 517.07 20.78
5 7 -5 497.73 20.59
-5 7 5 526.25 19.04
-5 -7 5 563.82 19.37
5 -7 -4 1074.73 37.51
5 7 -4 1099.43 37.8
-5 7 4 1091.7 34.16
-5 -7 4 1113.81 34.42
-5 7 3 581.67 19.51
-5 -7 3 552.1 19.46
5 7 -3 562.99 23.15
5 -7 -3 595.3 23.68
-5 -7 2 1706.1 49.81
-5 7 2 1628.88 49.5
5 -7 -2 1638.51 54.69
5 7 -2 1699.37 54.85
5 7 -1 62.11 6.62
-5 7 1 52.08 4.42
-5 -7 1 57.84 4.46
-5 7 0 551.46 20.39
-5 -7 0 588.24 20.58
5 7 0 568.95 24.83
5 -7 0 540.33 24.45
5 7 1 4.57 3.92
5 -7 1 -0.78 3.88
-5 7 -1 3.22 2.65
-5 -7 -1 1.19 3.04
5 7 2 35.71 6.68
5 -7 2 33.18 6.31
5 7 3 85.87 9.68
5 -7 3 93.43 9.92
5 -7 4 643.31 29.67
5 7 4 621.78 29.32
5 7 5 54.38 8.6
5 -7 5 53.16 8.73
5 7 6 345.84 21.49
5 -7 6 360.09 21.95
5 -7 7 -1.17 5.82
5 7 7 -3.45 5.93
5 7 8 156.22 15.22
5 -7 8 145.29 14.93
5 7 9 25.6 7.93
5 -7 9 27.25 8.83
5 7 10 1210.09 51.04
5 -7 10 1157.91 50.43
5 -8 -14 87.07 7.95
5 8 -14 86.16 8.22
5 -8 -13 11.32 4.11
5 8 -13 1.05 4.23
-5 -8 13 1.52 7.97
-5 -8 12 474.18 28.81
-5 8 12 404 19.95
5 -8 -12 438.74 18.66
5 8 -12 436.45 18.68
5 -8 -11 11.49 3.7
5 8 -11 6.99 3.51
-5 8 11 10.38 5.42
5 -8 -10 297.56 14.08
5 8 -10 314.75 14.37
5 -8 -9 1.68 2.9
5 8 -9 -1.7 3.02
5 -8 -8 1121.5 36.25
5 8 -8 1057.28 36.02
5 -8 -7 21.11 3.87
5 8 -7 19.69 3.34
5 8 -7 19.32 3.79
5 -8 -6 56.11 5.47
5 8 -6 62.6 5.76
5 -8 -5 47.62 5.42
5 8 -5 49.08 5.36
-5 8 5 63.02 5.04
-5 -8 5 60.45 5.02
5 8 -4 289.75 14.28
5 -8 -4 276.17 14.17
-5 8 4 288.46 11.62
-5 -8 4 278.7 11.69
5 8 -3 442.4 20.47
5 -8 -3 480.48 21.08
-5 8 3 495.56 17.23
-5 -8 3 514.55 17.46
5 -8 -2 2338.91 74.07
5 8 -2 2360.07 73.78
-5 8 2 2332.07 68.37
-5 -8 2 2385.81 68.57
-5 8 1 44.27 3.96
-5 -8 1 37.97 3.78
-5 8 1 43.05 4.05
5 -8 -1 47.87 6.51
5 8 -1 41.12 5.94
5 -8 0 618.78 26.23
5 8 0 576.1 25.61
-5 -8 0 593.19 21.12
-5 8 0 606.86 21.29
5 -8 1 353.84 19.23
5 8 1 361.42 19.31
-5 8 -1 386.94 15.87
-5 -8 -1 392.88 15.8
5 8 2 91.66 9.53
5 -8 2 136.91 11.19
5 -8 3 34.72 6.95
5 8 3 39.25 6.94
5 8 4 13.49 5.22
5 -8 4 9.85 5.08
5 8 5 22.45 6.83
5 -8 5 38.51 7.87
5 8 6 169.9 14.78
5 -8 6 167.73 14.68
5 8 7 133.37 13.5
5 -8 7 138.23 13.78
5 -8 8 599.89 30.77
5 8 8 540.74 29.52
5 8 9 27.87 8.45
5 -8 9 21.94 8.26
5 8 10 274.14 21.17
5 -8 10 249.57 20.26
5 -9 -13 7.78 4.29
5 9 -13 14.68 4.74
-5 -9 13 -1.59 8.32
-5 9 12 36.29 6.83
5 -9 -12 47 5.86
5 9 -12 45.51 5.78
-5 -9 12 36.08 9.56
-5 9 11 5.98 5.14
5 -9 -11 22.96 4.35
5 9 -11 23.76 4.69
-5 -9 11 18.85 7.73
5 -9 -10 7.89 3.64
5 9 -10 1.33 3.12
-5 9 10 6.23 4.75
5 9 -9 155 9.2
5 -9 -9 150.31 9.11
5 -9 -8 422.95 17.38
5 9 -8 423.93 17.44
5 -9 -7 295.18 13.6
5 9 -7 278.91 13.2
5 -9 -6 564.79 22.11
5 9 -6 582.62 22.17
-5 9 5 77.07 5.76
-5 -9 5 88.56 6.22
5 -9 -5 103.45 7.77
5 9 -5 89.09 7.23
-5 9 4 449.9 16.41
-5 -9 4 438.3 16.47
5 -9 -4 470.56 19.79
5 9 -4 464.22 19.65
-5 9 3 399.4 14.42
-5 -9 3 419.38 14.77
5 9 -3 365.17 17.76
5 -9 -3 344.74 17.68
5 -9 -2 3.76 3.44
5 9 -2 3.03 3.18
-5 9 2 6.44 2.14
-5 -9 2 3.8 2.13
5 -9 -1 245.4 14.32
5 9 -1 225.03 13.76
-5 9 1 234.55 9.98
-5 -9 1 237.64 10.19
-5 -9 0 737.69 24.47
-5 9 0 723.1 24.47
5 -9 0 706.01 29.65
5 9 0 694.3 29.38
5 9 1 256.4 15.88
5 -9 1 268.51 16.37
-5 -9 -1 307.29 13.07
-5 9 -1 303.4 13.09
5 9 2 906.86 35.69
5 -9 2 854.59 35.42
5 9 3 25.68 6.36
5 -9 3 10.95 4.72
5 9 4 453.88 24.3
5 -9 4 524.79 25.72
5 9 5 46.73 8.14
5 -9 5 67.56 9.55
5 9 6 308.36 20
5 -9 6 329.51 20.86
5 9 7 1.14 6.05
5 -9 7 3.5 6.2
5 9 8 16.68 6.92
5 -9 8 6.1 6.29
5 9 9 15.09 8.29
5 -9 9 15.35 6.92
-5 -10 13 6.59 8.63
5 -10 -13 -1.02 3.83
5 10 -13 4.17 4.44
5 -10 -12 13.99 4.41
5 10 -12 6.38 3.79
-5 -10 12 20.32 8.95
-5 10 12 6.9 4.79
-5 -10 11 131.26 15.71
5 -10 -11 132.44 8.72
5 10 -11 102.8 8.09
-5 10 11 108.54 11.1
5 -10 -10 990.54 33.24
5 10 -10 975.25 33.24
-5 10 10 895.97 37.32
5 -10 -9 140.97 8.87
5 10 -9 149.48 9.1
-5 10 9 129.48 11.95
5 10 -8 79.61 6.61
5 -10 -8 86.29 6.71
5 -10 -8 80.63 6.54
5 -10 -7 300.85 14.03
5 10 -7 300.47 13.88
5 -10 -6 61.13 6
5 10 -6 56.95 5.77
5 -10 -5 255.45 13.3
5 10 -5 244.73 13.2
-5 10 5 274.75 11.88
5 -10 -4 2211.22 70.41
5 10 -4 2234.9 70.28
-5 10 4 2251.53 66.33
-5 -10 4 2318.53 66.64
5 10 -3 310.12 15.58
5 -10 -3 329.49 16.19
-5 10 3 286.99 11.7
-5 -10 3 304.63 12.04
5 -10 -2 68.99 7.63
5 10 -2 76.32 7.56
-5 10 2 80.82 5.08
-5 -10 2 69.48 5
5 10 -1 148.68 10.92
5 -10 -1 167.64 11.9
-5 10 1 161.81 7.86
-5 -10 1 178.95 8.17
-5 10 0 2413.19 70.21
-5 -10 0 2370.88 70.07
5 -10 0 2472.52 77.27
5 10 0 2346.58 76.43
5 10 1 263.42 15.79
5 -10 1 296.2 16.77
-5 10 -1 278.58 12.33
-5 -10 -1 275.42 12.2
5 10 2 233.71 15.07
5 -10 2 226.71 15.19
5 10 3 107.4 10.62
5 -10 3 99.23 10.48
5 10 4 -0.94 4.9
5 -10 4 3.87 4.82
5 -10 5 40.26 8.25
5 10 5 38.06 7.79
5 10 6 701.71 33.14
5 -10 6 754.53 34.03
5 10 7 158.53 14.65
5 -10 7 173.37 15.41
5 10 8 592.49 29.84
5 -10 8 517.08 28.91
5 10 9 54.42 10.82
5 -10 9 83.84 11.67
-5 11 12 167.06 13.58
5 -11 -12 163.87 10.24
5 11 -12 162.92 10.42
-5 -11 12 160.5 18.15
5 -11 -11 2.31 3.56
5 11 -11 0.47 3.69
-5 -11 11 7.66 7.76
-5 11 11 7 5.4
5 -11 -10 226.5 11.82
5 11 -10 219.97 11.9
-5 11 10 242.81 16.29
5 -11 -9 -1.3 3.35
5 11 -9 2.62 3.26
-5 -11 9 4.14 5.95
-5 11 9 4.52 4.96
5 -11 -8 177.93 9.92
5 11 -8 156.06 9.45
-5 11 8 151.86 13.4
-5 -11 8 178.62 16.46
5 11 -7 71.15 6.36
5 -11 -7 78.71 6.87
5 -11 -6 355.96 16.01
5 11 -6 334.54 15.56
-5 11 5 171.11 9.21
5 -11 -5 189.79 11.24
5 11 -5 172.08 10.58
-5 11 4 535.55 19.26
-5 -11 4 577.03 19.74
5 11 -4 536.47 22.43
5 -11 -4 536.68 22.64
-5 -11 3 30.94 3.46
5 -11 -3 38.91 5.86
5 11 -3 35.01 5.44
-5 11 3 39.36 3.74
5 11 -2 310.01 15.9
5 -11 -2 324.68 16.54
-5 11 2 296.77 11.6
-5 -11 2 286.48 11.6
-5 11 1 55.17 4.31
-5 -11 1 58.65 4.37
5 -11 -1 44.8 6.72
5 11 -1 47.87 6.55
5 -11 0 135.08 10.72
5 11 0 120.34 10.3
-5 11 0 121.21 6.79
-5 -11 0 122.05 6.92
-5 11 0 141.97 7.22
-5 11 -1 92.78 6.4
-5 -11 -1 97.8 6.51
5 11 1 99.44 9.57
5 -11 1 90.64 9.39
5 11 2 883.17 34.67
5 -11 2 805.15 34.2
5 -11 3 163.59 12.72
5 11 3 126.2 11.2
5 11 4 1559.63 55.89
5 -11 4 1540.4 56.12
5 11 5 59.16 9.29
5 -11 5 68.79 9.44
5 11 6 63.2 9.92
5 -11 6 74.06 10.89
5 11 7 -1.09 6.54
5 -11 7 4.51 6.45
5 11 8 9.2 6.77
5 -11 8 20.13 7.65
-5 -12 12 68.91 13.35
-5 12 12 66.51 9.61
5 -12 -12 67.85 7.02
5 12 -12 65.68 6.83
5 -12 -11 573.18 22.24
5 12 -11 570.49 22.34
-5 12 11 566.41 27.31
5 -12 -10 480.59 19.33
5 12 -10 478.98 19.41
-5 12 10 448.4 24.39
5 -12 -9 376.79 16.45
5 12 -9 381.26 16.44
-5 -12 9 383.58 25.23
-5 12 9 379.09 21.63
-5 12 8 80.49 10.03
5 -12 -8 100.38 7.57
5 12 -8 106.35 7.76
-5 -12 8 115.27 13.76
5 -12 -7 336.57 15.34
5 12 -7 342.01 15.31
-5 12 7 294.68 19.3
-5 -12 7 327.57 22.35
5 -12 -6 6.15 3.55
5 12 -6 11.94 3.81
-5 -12 6 18.82 7.18
5 -12 -5 14.79 4.24
5 12 -5 14.22 3.95
5 12 -4 128.18 9.43
5 -12 -4 127.96 9.55
-5 -12 4 140.2 7.71
5 -12 -3 479.26 21.44
5 12 -3 464.08 20.79
-5 12 3 460.13 16.85
-5 -12 3 514.05 17.4
-5 12 2 22.44 2.94
-5 -12 2 24.91 3.07
5 -12 -2 14.97 4.78
5 12 -2 12.97 4.65
-5 12 1 1210.4 36.69
-5 -12 1 1224.67 36.86
5 -12 -1 1217.14 43.31
5 12 -1 1140.05 42.23
-5 12 0 223.49 9.7
-5 -12 0 225.72 9.81
5 12 0 226.55 14.05
5 -12 0 228.19 14.26
-5 -12 -1 270.43 11.34
5 12 1 230.8 14.87
5 -12 1 271.88 16
5 12 2 71.71 8.62
5 -12 2 73.03 8.78
5 12 3 14.24 5.31
5 -12 3 26.4 6.49
5 12 4 17.91 6.2
5 -12 4 12.19 6
5 12 5 455.41 24.2
5 -12 5 487.97 25.06
5 -12 6 99.32 11.49
5 12 6 86.03 10.74
5 12 7 323.38 20.61
5 -12 7 321.17 20.91
5 12 8 118.6 13.44
5 -12 8 152.36 14.73
5 -13 -11 67.02 6.72
-5 13 11 85.88 10.97
5 13 -11 70.75 7.16
-5 13 10 -1.02 6.52
-5 -13 10 -1.56 8.15
5 13 -10 2.28 3.71
5 -13 -10 1.88 3.33
-5 13 9 19.54 7.74
5 -13 -9 40.92 5.31
5 13 -9 41.84 5.37
-5 -13 9 32.23 9.3
-5 13 8 1.02 5.36
-5 -13 8 -1.37 6.18
5 -13 -8 -0.48 3.14
5 13 -8 -1.85 2.85
-5 13 7 225.33 16.49
5 -13 -7 231.95 12.4
5 13 -7 222.93 12.1
-5 -13 7 210.79 17.96
-5 13 6 67.15 9.97
-5 -13 6 53.21 10
5 -13 -6 63.83 6.77
5 13 -6 66.25 6.73
-5 -13 5 253.33 18.62
5 13 -5 273.15 13.87
5 -13 -5 240.29 13.6
-5 -13 5 266.12 12.47
-5 -13 4 19.68 3.68
-5 -13 4 15.09 6.43
5 -13 -4 23.04 4.81
5 13 -4 13.37 4.02
-5 -13 3 4.7 2.58
5 13 -3 4.66 3.64
5 -13 -3 6.86 4.02
-5 -13 3 1.01 4.92
5 -13 -2 191.29 12.52
5 13 -2 189.6 12.05
-5 -13 2 196.59 8.6
-5 -13 1 4.4 4.55
5 -13 -1 15.11 5.26
5 13 -1 11.55 4.37
-5 -13 1 15.59 2.78
-5 -13 0 12.36 5.33
5 13 0 10.09 4.31
5 -13 0 14.34 5.02
-5 -13 0 14.51 2.91
5 -13 1 320.33 17.62
5 13 1 310.3 16.95
-5 -13 -1 275.46 16.76
-5 -13 -1 315.99 12.5
5 13 2 72.68 8.52
5 -13 2 89.64 9.49
-5 -13 -2 78.18 8.68
5 -13 3 1116.08 42.7
5 13 3 1154.58 42.49
-5 -13 -3 1094.16 39.94
5 13 4 146.06 12.59
5 -13 4 154.72 13.07
5 13 5 53.56 8.38
5 -13 5 43.26 7.99
5 13 6 3.83 5.84
5 -13 6 -2.02 7.04
5 -13 7 2.13 6.81
-5 13 -7 1.13 6
-5 -14 10 123.92 15.98
5 -14 -10 130.58 9.05
-5 14 10 131.26 13.55
-5 -14 9 348.08 24.79
5 -14 -9 333.26 15.5
-5 14 9 324.29 21.19
5 -14 -8 -0.49 3.34
-5 -14 8 -4.27 7.21
-5 14 8 8.74 6.5
-5 -14 7 57.68 10.66
5 -14 -7 74.16 7.44
-5 14 7 76.9 10.42
-5 -14 6 1.26 6.89
5 -14 -6 3.8 3.86
-5 14 6 5.42 5.95
-5 14 5 87.92 10.9
-5 -14 5 67.02 10.1
5 -14 -5 71.02 7.33
5 -14 -4 193.72 12.01
-5 -14 4 206.19 16.26
-5 14 4 165.22 14.97
5 -14 -3 182.46 11.91
-5 -14 3 193.76 15.39
5 -14 -2 3.19 3.88
-5 -14 2 -4.86 5.01
-5 -14 1 521.55 25.96
5 -14 -1 570.49 24.12
-5 -14 0 5.99 4.84
5 -14 0 10.4 4.89
5 -14 1 866.85 32.07
-5 -14 -1 674.16 30.78
5 -14 2 78.2 8.8
-5 -14 -2 70.47 8.53
5 -14 3 30.15 6.82
5 -14 4 118.36 11.37
-5 14 -5 6.94 6.53
5 -14 5 3.65 5.56
-5 14 -6 8.17 6.77
5 -14 6 -4.82 6.97
-5 -15 9 139.7 16.82
5 -15 -9 131.82 9.33
-5 15 9 120.45 13.9
-5 -15 8 13.32 8.12
5 -15 -8 6.63 3.69
-5 15 8 -1.16 6.25
-5 -15 7 201.05 17.88
-5 15 7 183.68 16.23
5 -15 -7 175.3 11.3
5 -15 -6 183.34 11.6
-5 15 6 204.04 16.62
-5 -15 6 162.57 16.05
5 -15 -5 367.87 17.39
-5 15 5 343.64 22.29
-5 -15 5 392.26 23.87
5 -15 -4 118.8 9.48
-5 15 4 109.5 12.67
-5 -15 4 137.84 13.83
5 -15 -3 108.64 9.34
-5 15 3 99.11 12.24
-5 -15 3 113.37 12.36
5 -15 -2 14.98 4.87
-5 -15 2 22.6 7.12
-5 15 1 27.54 8.16
-5 -15 1 16.43 6.51
5 -15 -1 12.34 5.27
-5 15 0 123.47 13.41
5 -15 0 129.41 10.44
-5 -15 0 135.16 12.39
-5 15 -1 325.36 21.4
-5 -15 -1 338.03 19.14
5 -15 1 307.58 16.8
-5 15 -2 3.52 6.24
5 -15 2 5.01 4.95
-5 15 -3 373.38 23.54
5 -15 3 406.83 20.46
-5 15 -4 27.46 8.12
5 -15 4 20.14 5.76
-5 15 -5 398.97 24.55
5 -15 5 400.79 21.5
-5 16 8 1.22 6.78
-5 -16 7 37.52 9.57
-5 16 7 42.66 9.72
-5 -16 6 6.82 7.38
-5 16 6 14.57 7.32
-5 -16 5 37.29 9.56
-5 16 5 24.15 8.07
-5 -16 4 20.64 7.24
-5 16 4 10.79 7.32
-5 -16 3 152.42 14.38
-5 16 3 131.07 14.13
-5 -16 2 22.75 7.85
-5 -16 1 1434.27 54.04
-5 16 1 1447.06 56.16
-5 -16 0 1.93 5.89
-5 16 0 -3.62 7.26
-5 -16 -1 41.95 8.33
-5 16 -1 31.52 8.44
-5 16 -2 37.9 9.61
-5 16 -3 2.46 6.86
-5 16 -4 8.68 7.01
-5 -17 6 131.35 15.24
-5 17 6 171.66 16.19
-5 -17 5 402.88 25.99
-5 17 5 465.94 26.92
-5 -17 4 6.32 7.62
-5 17 4 1.27 6.19
-5 -17 3 397.1 24.97
-5 17 3 481.12 27.18
-5 -17 2 -4.54 7
-5 -17 1 27.89 8.11
-5 17 1 31.42 9.49
-5 -17 0 5.09 6.35
-5 17 0 -5.02 7.28
-5 17 -1 37.86 9.55
-5 17 -2 48.31 10.3
-5 18 3 130.82 15.35
-5 -18 3 152.09 15.94
-5 -18 2 284.57 20.64
-5 -18 1 313.86 21
6 0 -14 109.59 8.99
6 0 -13 -0.56 3.35
6 0 -12 861.37 31.26
6 0 -11 1.51 3.31
6 0 -10 31.94 4.81
6 0 -9 2.35 3.19
6 0 -8 202.35 11.37
6 0 -7 1.47 2.48
6 0 -6 735.29 27.65
6 0 -5 0.57 2.94
6 0 -4 31.52 4.99
6 0 -3 0.71 3.88
6 0 -2 2430.13 78.02
6 0 -1 3.19 3.44
6 0 0 64.41 8.03
6 0 1 4.61 4.16
6 0 2 8.83 5.23
6 0 3 -1.03 4.45
6 0 4 1282.14 50.55
6 0 5 1.19 5.36
6 0 6 96.88 12.75
6 0 7 1.33 5.6
6 0 8 119.49 14.15
6 0 9 8.74 7.38
6 0 10 36.21 10.28
6 1 -14 375.13 17.9
6 1 -13 18.38 4.47
6 1 -12 129.32 9.2
6 1 -11 127.56 9.14
6 1 -10 87.34 7.43
6 1 -9 9.89 3.47
6 1 -8 1320.14 43.4
6 1 -7 9.79 3.27
6 1 -6 241.55 13.01
6 -1 -5 15.41 3.99
6 1 -5 7.43 3.45
6 -1 -4 795.94 31.63
6 1 -4 868.81 32.12
6 -1 -3 4.24 3.99
6 1 -3 2.12 3.64
6 -1 -2 32.43 5.93
6 1 -2 39.18 6.45
6 1 -1 36.66 6.13
6 -1 -1 63.13 7.66
6 -1 0 1703.74 60.09
6 1 0 1775.46 60.37
6 -1 1 608.1 28.38
6 1 1 595.55 28.07
6 -1 2 1396.11 52.9
6 1 2 1420.84 52.89
6 1 3 65.98 9.22
6 -1 3 65.08 9.39
6 1 4 806.2 36.07
6 -1 4 728.15 34.92
6 1 5 1219.54 49.98
6 -1 5 1256.61 50.39
6 1 6 71.61 11.34
6 -1 6 54.13 9.98
6 1 7 42.53 9.18
6 -1 7 42.61 9.28
6 -1 8 22.24 8.09
6 1 8 30.54 8.49
6 -1 9 26.24 8.48
6 1 9 24.73 8.68
6 1 10 586.08 33.23
6 -1 10 583.83 33.24
6 2 -14 841.18 31.59
6 2 -13 26.21 4.94
6 2 -12 255.43 13.55
6 2 -11 108.14 8.14
-6 -2 11 75 8.43
6 2 -10 512.57 20.89
6 2 -9 316.7 14.86
6 2 -8 16.88 4
6 2 -7 9.36 3.38
6 2 -6 797.42 29.48
6 2 -5 179.96 11.29
6 2 -4 2486.94 78.2
6 2 -3 666.51 27.81
6 2 -2 1093.31 40.69
6 2 -1 35.13 6.13
6 2 0 369.34 20.12
6 2 1 83.3 9.65
6 2 2 43.15 7.59
6 2 3 187.66 14.9
6 2 4 129.31 12.77
6 2 5 145.98 14.29
6 2 6 2901.92 98.13
6 2 7 51.78 9.93
6 2 8 46.97 10.31
6 2 9 59.68 11.49
6 2 10 45.12 10.57
6 -3 -14 16.39 5.3
6 3 -14 12.94 5.03
6 -3 -13 802.09 30.57
6 3 -13 858.22 30.92
6 -3 -12 48.8 6.09
6 3 -12 41.09 5.91
6 3 -11 235.28 12.33
6 -3 -11 257.94 12.81
6 -3 -10 11.68 4.05
6 3 -10 13.19 4.09
-6 -3 10 5.68 4.45
6 -3 -9 229.95 12.11
6 3 -9 217.47 11.8
6 -3 -8 545.4 21.52
6 3 -8 537.4 21.53
6 -3 -7 334.75 15.55
6 3 -7 345.36 15.81
6 3 -6 1186.63 40.62
6 -3 -6 1196.36 40.59
6 3 -5 364.45 17.55
6 -3 -5 382.21 17.75
6 3 -4 421.7 20.01
6 -3 -4 420.43 19.94
6 -3 -3 36.27 5.83
6 3 -3 47.52 6.5
6 3 -2 356.56 18.85
6 -3 -2 365.52 19.08
6 -3 -1 770.5 31.78
6 3 -1 749.68 31.58
6 -3 0 205.49 14.42
6 3 0 216.39 14.68
6 3 1 2167.21 72.89
6 -3 1 2143.49 72.96
6 3 2 1904.08 66.62
6 -3 2 1907.28 66.76
6 3 3 233.84 16.62
6 -3 3 210.43 16.02
6 -3 4 2.25 5.41
6 3 4 2.24 4.59
6 3 5 74.91 10.8
6 -3 5 72.74 10.54
6 3 6 240.99 18.5
6 -3 6 229.68 18.29
6 3 7 5.31 7.29
6 -3 7 -6.67 5.89
6 3 8 774.89 38.14
6 -3 8 760.79 37.83
6 3 9 191.93 18.32
6 -3 9 202.65 18.77
6 3 10 111.05 14.28
6 -3 10 105.5 14.27
6 -4 -14 93.26 8.81
6 4 -14 94.98 8.59
6 4 -13 934.37 33.6
6 -4 -13 927.8 33.54
6 -4 -12 992.48 35.24
6 4 -12 1011.7 35.34
6 -4 -11 606.74 22.74
6 4 -11 560.84 22.3
6 4 -10 43.22 5.42
6 -4 -10 44.95 5.45
6 -4 -9 6.7 2.96
6 4 -9 11.06 3.18
6 -4 -8 103.24 7.84
6 4 -8 112.01 8.14
6 -4 -7 11.6 3.51
6 4 -7 14.5 3.6
6 -4 -6 95.98 7.97
6 4 -6 113.85 8.42
6 -4 -5 138.47 10.01
6 4 -5 167.66 10.83
6 -4 -4 811.91 31.4
6 4 -4 795.81 31.27
6 -4 -3 338.77 18.05
6 4 -3 367.86 18.61
6 -4 -2 80.84 8.44
6 4 -2 88.75 8.87
6 4 -1 792.9 32.85
6 -4 -1 819.67 33.28
6 -4 0 90.85 9.52
6 4 0 86.32 9.45
6 4 1 9.24 5.36
6 -4 1 1.87 4.12
6 4 2 3.93 5.07
6 -4 2 12.9 5.2
6 4 3 609.19 30.17
6 -4 3 666.13 30.99
6 4 4 545.33 28.76
6 -4 4 565.71 28.77
6 4 5 295.51 20.54
6 -4 5 336.44 21.59
6 4 6 454.82 26.6
6 -4 6 476.64 27.02
6 4 7 374.12 24.37
6 -4 7 371.3 24.31
6 -4 8 85.88 12.8
6 4 8 121.15 14.28
6 4 9 146.34 16.22
6 -4 9 180.98 17.17
6 4 10 -1.5 5.8
6 -4 10 3.01 7.76
6 -5 -14 143.14 10.55
6 5 -14 154.8 10.89
6 -5 -13 93.48 8.24
6 5 -13 86.98 7.93
6 -5 -12 3.68 3.67
6 5 -12 6.36 3.86
6 -5 -11 3.55 2.82
6 5 -11 5.61 3.59
6 -5 -10 32.87 4.97
6 5 -10 35.52 5.13
6 -5 -9 264.45 13.38
6 5 -9 262.12 13.36
6 5 -8 188.86 10.77
6 -5 -8 194.75 10.95
6 -5 -8 186.55 10.85
6 5 -8 171.42 10.55
6 -5 -7 891.8 31.81
6 5 -7 884.07 31.71
6 5 -6 174.59 10.66
6 -5 -6 145.29 10.03
6 -5 -5 639.91 26.16
6 5 -5 677.81 26.6
6 -5 -4 340.97 17.66
6 5 -4 366.79 18.24
6 -5 -3 207.12 13.33
6 5 -3 198.95 13.07
6 -5 -2 4.62 3.32
6 5 -2 6.86 3.93
6 -5 -1 981.98 38.9
6 5 -1 1039.58 39.31
6 5 0 11.99 4.64
6 -5 0 9.57 4.64
6 -5 1 441.29 23.31
6 5 1 466.53 23.79
6 5 2 236.35 16.35
6 -5 2 195.72 15.04
6 5 3 204.66 15.67
6 -5 3 210.81 15.83
6 5 4 94.3 11.08
6 -5 4 79.5 10.35
6 5 5 17.98 6.39
6 -5 5 8.44 5.57
6 5 6 17.56 7.18
6 -5 6 7.6 6.2
6 5 7 87.49 12.43
6 -5 7 80.2 11.88
6 5 8 15.11 6.35
6 -5 8 19.39 8.15
6 5 9 536.59 30.94
6 -5 9 544.06 31.45
6 6 -14 73.92 7.8
6 -6 -14 80.55 8.08
6 -6 -13 211.94 12.43
6 6 -13 203.85 12.25
6 -6 -12 376.61 17.27
6 6 -12 375.24 17.37
6 -6 -11 172.36 10.65
6 6 -11 185.02 11.03
6 -6 -10 7.87 4.09
6 6 -10 4.96 3.3
6 -6 -9 191.31 10.88
6 6 -9 182.3 10.89
6 -6 -8 233.36 12.5
6 6 -8 242.91 12.71
6 -6 -7 8.42 3.54
6 6 -7 5.74 3.51
6 -6 -6 0.56 3.01
6 6 -6 1.11 2.99
6 6 -5 57.24 6.62
6 -6 -5 61.66 6.73
6 -6 -4 386.7 19.28
6 6 -4 409.03 19.64
6 -6 -3 706.85 28.85
6 6 -3 658.01 28.21
6 -6 -2 14.74 4.22
6 6 -2 17.67 4.53
6 6 -1 58.77 7.58
6 -6 -1 59.86 7.47
6 -6 0 39.78 6.76
6 6 0 47.67 7.48
6 6 1 24.19 6.43
6 -6 1 43.56 7.61
6 6 2 24.51 6.35
6 -6 2 22.91 6.11
6 6 3 11.55 6.02
6 -6 3 10.64 5.58
6 6 4 44.94 8.74
6 -6 4 44.47 8.33
6 6 5 287.94 19.9
6 -6 5 240.23 18.63
6 6 6 285.6 20.28
6 -6 6 294.98 20.7
6 6 7 1121.64 47.51
6 -6 7 1043.81 46.9
6 6 8 330.4 23.55
6 -6 8 387.99 25.11
6 6 9 12.91 7.88
6 -6 9 20.29 8.52
6 -7 -13 7.72 4.59
6 7 -13 5.01 4.75
6 -7 -12 11.66 4.36
6 7 -12 15.53 4.79
6 -7 -11 23.99 4.84
6 7 -11 19.06 4.58
6 -7 -10 6.5 3.37
6 7 -10 8.07 3.97
6 -7 -9 837.21 30.15
6 7 -9 840.42 30.25
6 -7 -8 5.66 3.21
6 7 -8 4.59 3
6 7 -7 681.22 26.19
6 -7 -7 690.61 26.44
6 -7 -6 2.86 3.05
6 7 -6 5.12 3.71
6 -7 -5 828.01 31.57
6 7 -5 816.05 31.38
6 -7 -4 5.52 3.73
6 7 -4 2.75 4.04
6 -7 -3 6.68 3.5
6 7 -3 6.61 3.97
6 7 -2 12.32 4.6
6 -7 -2 13.33 4.31
6 -7 -1 392.65 20.39
6 7 -1 352.5 19.59
6 7 0 114.17 10.94
6 -7 0 106.99 10.69
6 -7 1 1548.91 55.72
6 7 1 1503.99 55.1
6 7 2 11.73 5.83
6 -7 2 20.95 6.17
6 7 3 209.8 16.03
6 -7 3 208.54 16.02
6 7 4 8.96 6.24
6 -7 4 10.26 5.58
6 7 5 289.68 20.22
6 -7 5 323.91 21.18
6 7 6 50.06 9.94
6 -7 6 45.79 9.44
6 7 7 451.18 26.95
6 -7 7 432.17 26.47
6 7 8 106.92 13.94
6 -7 8 102.9 13.77
6 7 9 318.08 23.43
6 -7 9 314.5 23.45
-6 -8 13 347.5 26.1
6 -8 -13 311.24 16.21
6 8 -13 378.53 17.28
6 -8 -12 118.52 9.02
6 8 -12 112.03 9.03
6 -8 -11 864.49 31.26
6 8 -11 871.06 31.41
6 -8 -10 50.16 6.12
6 8 -10 42.58 5.72
6 8 -9 497.19 20.73
6 -8 -9 506.57 20.77
6 8 -9 536.3 21.21
6 -8 -9 478.46 20.55
6 8 -8 212.86 12
6 -8 -8 211.61 11.97
6 -8 -7 214.07 12.29
6 8 -7 220.9 12.3
6 -8 -6 1.78 3.01
6 8 -6 0.59 3.17
6 -8 -5 129.25 9.91
6 8 -5 121.37 9.72
6 8 -4 586.64 24.64
6 -8 -4 514.52 23.91
6 -8 -3 4201.68 127.09
6 8 -3 4218.29 126.68
6 -8 -2 119.71 10.56
6 8 -2 132.39 10.74
6 -8 -1 487.59 23.67
6 8 -1 462.82 22.99
6 8 0 -0.89 4.02
6 -8 0 -0.91 3.74
6 -8 1 99.36 10.78
6 8 1 100.54 10.59
6 8 2 11.81 5.33
6 -8 2 15.14 5.86
6 8 3 534.14 27.72
6 -8 3 585.29 28.99
6 8 4 1.12 4.94
6 -8 4 -2.29 4.69
6 8 5 650.17 32.51
6 -8 5 677.54 33.06
6 8 6 19.95 8.13
6 -8 6 8.9 6.34
6 8 7 476.69 27.78
6 -8 7 498.08 28.43
6 8 8 2.72 7.46
6 -8 8 -4.16 7.94
-6 -9 13 195.85 20.03
6 -9 -13 184.11 11.77
6 9 -13 192.7 12.04
-6 -9 12 11.21 8.39
-6 9 12 0.81 5.33
6 -9 -12 4.27 3.99
6 9 -12 2.16 4.49
6 -9 -11 32.91 5.39
6 9 -11 30.53 5.73
6 -9 -10 7.14 3.99
6 9 -10 8.74 4.05
6 -9 -9 340.65 16.24
6 9 -9 354.75 16.32
6 -9 -8 124.67 9.26
6 9 -8 116.29 8.74
6 -9 -7 903.35 33.34
6 9 -7 944.95 33.59
6 -9 -6 377.63 18.07
6 9 -6 373.52 17.95
6 -9 -5 26.76 5.52
6 9 -5 41 6.29
6 9 -4 137.9 10.82
6 -9 -4 139.95 10.71
6 9 -3 255.73 15.55
6 -9 -3 302.79 16.67
6 -9 -2 58.99 7.38
6 9 -2 42.28 6.69
6 9 -1 1160.25 43.89
6 -9 -1 1190 44.41
6 -9 0 199.42 14.72
6 9 0 176.85 13.62
6 9 1 535.41 26.77
6 -9 1 600.1 27.89
6 9 2 -4.96 5.19
6 -9 2 1.02 5.07
6 -9 3 440.76 24.32
6 9 3 413.41 23.72
6 9 4 118.83 12.54
6 -9 4 104.77 12.1
6 9 5 4.68 5.93
6 -9 5 14.42 6.69
6 9 6 244.54 19.06
6 -9 6 310.01 21.37
6 9 7 308.71 21.84
6 -9 7 317.84 22.33
6 9 8 441.93 27.21
6 -9 8 436.96 27.36
-6 -10 12 4.95 8.07
-6 10 12 4.32 5.87
6 -10 -12 11.87 4.52
6 10 -12 2.72 4.35
-6 -10 11 31.28 9.68
-6 10 11 20.69 6.82
6 -10 -11 28.82 5.39
6 10 -11 35.83 5.69
6 10 -10 339.11 15.97
6 -10 -10 319.46 15.75
6 10 -10 335.56 15.97
6 -10 -9 205.5 12.22
6 10 -9 231.85 12.46
6 -10 -8 268.08 14.27
6 10 -8 279.83 14.29
6 -10 -7 10.02 3.93
6 10 -7 16.12 4.38
6 -10 -6 64.94 7.18
6 10 -6 49.06 6.63
6 10 -5 20.92 5.35
6 -10 -5 27.42 5.84
6 -10 -4 1114.89 40.54
6 10 -4 1062.15 39.89
6 -10 -3 64 7.92
6 10 -3 58.86 7.24
6 -10 -2 4.13 4.33
6 10 -2 3.97 4.09
6 -10 -1 663.57 29.37
6 10 -1 647.92 28.81
6 -10 0 332.08 19.33
6 10 0 315 18.66
6 10 1 0.92 4.33
6 -10 1 6.69 4.67
6 10 2 24.67 6.79
6 -10 2 21.42 6.81
6 -10 3 83.19 11.04
6 10 3 99.09 11.08
6 10 4 236.94 17.58
6 -10 4 260.1 18.52
6 10 5 517.89 27.35
6 -10 5 455.15 26.35
6 10 6 75.96 11.2
6 -10 6 81.45 12.21
6 10 7 634.84 32.87
6 -10 7 620.2 32.76
6 10 8 53.87 11.49
6 -10 8 54.21 11.36
-6 11 11 4.73 5.7
6 -11 -11 9.94 4.56
6 -11 -11 11.67 4.87
6 11 -11 4.29 4.13
6 -11 -10 125.6 9.21
6 11 -10 124.05 9.09
-6 -11 10 108.13 14.91
6 11 -9 176.41 10.99
6 -11 -9 147.69 10.4
6 -11 -8 26.48 5.23
6 11 -8 33.18 5.4
6 -11 -7 298.62 15.55
6 11 -7 283.79 15.11
6 -11 -6 627.32 25.55
6 11 -6 573.93 24.71
6 -11 -5 333.36 17.8
6 11 -5 353.82 17.99
6 -11 -4 139.19 11.16
6 11 -4 133.67 10.59
6 -11 -3 29.12 6.28
6 11 -3 21.83 5.92
6 11 -2 64.32 8.34
6 -11 -2 78.81 9.01
6 -11 -1 633.22 28.59
6 11 -1 627.7 28.2
6 -11 0 35.06 7.18
6 11 0 44.06 7.58
6 11 1 678.14 31.16
6 -11 1 742.68 32.31
6 -11 2 965.13 40.12
6 11 2 940.51 39.28
6 11 3 296.28 19.21
6 -11 3 279.23 19.1
6 11 4 64.9 10.11
6 -11 4 81 11.47
6 11 5 10.27 6.79
6 -11 5 9.46 7.13
6 -11 6 1.22 5.99
6 11 6 8.27 6.29
6 11 7 -2.47 6.48
6 -11 7 2.58 6.41
6 -12 -11 102.49 8.65
6 12 -11 110.33 8.89
-6 12 11 98.84 12.08
6 -12 -10 96.2 8.56
6 12 -10 96.28 8.5
-6 12 10 95.09 11.49
-6 -12 10 120.22 15.84
6 -12 -9 4.02 3.86
6 12 -9 7.83 3.94
-6 12 9 5.19 6.11
-6 -12 9 10.36 7.37
6 -12 -8 4.18 4.13
6 12 -8 6.36 3.85
6 -12 -7 67.9 7.76
6 12 -7 63.42 7.34
6 -12 -6 95.97 8.94
6 12 -6 95.62 9.08
6 12 -5 192.11 12.8
6 -12 -5 193.27 13.03
6 -12 -4 142.98 11.37
6 12 -4 141.03 11.12
6 -12 -3 317.51 17.88
6 12 -3 306.14 17.22
6 12 -2 225.33 14.61
6 -12 -2 221.05 14.97
6 -12 -1 199.74 14.41
6 12 -1 173.5 13.32
6 12 0 445.91 23.01
6 -12 0 461.57 23.52
6 -12 1 75.45 9.73
6 12 1 75.25 9.49
6 12 2 12.45 5.98
6 -12 2 12.11 5.78
6 -12 3 117.84 12.66
6 12 3 100.89 11.73
6 12 4 279.49 19.06
6 -12 4 287.06 19.56
6 12 5 50.79 9.48
6 -12 5 68.45 10.76
6 -12 6 19.34 8.46
6 12 6 26.64 8.46
6 -13 -10 38.05 6.22
-6 13 10 29.11 8.35
-6 -13 10 25.34 9.47
6 -13 -9 42.49 6.34
6 13 -9 53.16 6.75
-6 13 9 30.46 8.94
-6 -13 9 31.55 9.44
-6 13 8 267.52 19.08
-6 -13 8 302.81 22.07
6 -13 -8 253.29 14.75
6 13 -8 270.12 14.69
-6 -13 7 172.33 17.17
6 -13 -7 192.42 12.62
6 13 -7 210.41 12.83
6 -13 -6 398.35 19.48
6 13 -6 380.11 18.99
6 -13 -5 185.69 13.02
6 13 -5 207.34 13.37
6 -13 -4 -0.76 4.16
6 13 -4 -0.72 3.98
6 -13 -3 11.13 5.35
6 13 -3 9.75 4.74
6 -13 -2 96.57 10.09
6 13 -2 96.47 10.06
6 -13 -1 1.74 5.03
6 13 -1 0.81 5.2
6 13 0 292.51 17.73
6 -13 0 312.94 18.58
6 13 1 932.64 38.86
6 -13 1 1037.16 40.5
6 13 2 585.09 28.14
6 -13 2 611.48 29.09
6 13 3 62.25 9.31
6 -13 3 81.43 10.66
6 13 4 136.31 13.37
6 -13 4 150.28 14.37
6 -13 5 17.88 7.88
6 -14 -9 7.96 5.19
-6 14 9 4.57 6.54
-6 -14 9 16.96 7.95
6 -14 -8 73.63 8.48
-6 -14 8 82.53 12.84
-6 14 8 107.7 12.77
-6 14 7 -3.44 5.61
6 -14 -7 -2.68 4.75
-6 -14 7 -1.37 6.57
6 -14 -6 216.85 13.95
-6 -14 6 207.35 18.05
6 -14 -5 -3.63 4.43
-6 -14 5 1.23 5.79
-6 -14 4 192.73 16.23
6 -14 -4 171.93 13.1
-6 -14 3 14.09 7.08
6 -14 -3 23.54 6.33
6 -14 -2 430.86 22.06
-6 -14 1 19.17 6.15
6 -14 -1 31.64 7.08
6 -14 0 260.68 16.89
-6 -14 0 250.31 16.86
6 -14 1 105.67 11.19
-6 -14 -1 99.63 10.33
6 -14 2 28.56 7.32
6 -14 3 20.87 6.89
6 -14 4 211.13 16.48
-6 15 8 541.52 29.85
-6 -15 8 541.8 31.9
-6 15 7 207.92 17.09
6 -15 -7 188.41 12.9
-6 -15 7 187.52 17.74
6 -15 -6 347.7 17.89
-6 -15 6 302 22.03
-6 15 6 311.24 21.55
-6 -15 5 31.23 9.44
6 -15 -5 25.95 6.41
-6 15 5 35.98 8.92
6 -15 -4 113.21 10.63
-6 -15 4 110.71 13.19
6 -15 -3 8.45 5.36
-6 -15 3 -3.33 6.26
6 -15 -2 137.29 11.6
-6 -15 2 108.83 12.52
6 -15 -1 18.47 6.07
-6 -15 1 21.73 6.91
6 -15 0 539.5 25.65
-6 -15 0 537.87 26.51
6 -15 1 2.62 5.39
6 -15 2 252.21 17.01
6 -15 3 1.88 6.14
-6 -16 6 6.86 6.83
-6 16 6 13.71 7.42
-6 -16 5 3.89 7.11
-6 16 5 -1.25 6.33
-6 -16 4 91.94 12.76
-6 16 4 107.2 13.69
-6 -16 3 76.47 11.25
-6 16 3 98.64 13.08
-6 -16 2 274.97 19.22
-6 -16 1 330.18 20.53
-6 16 1 300.48 21.52
-6 -16 0 19.59 7.22
-6 16 0 20.24 8.92
-6 16 -1 28.06 9.33
7 0 -14 1.87 4.14
7 0 -13 241.58 13.89
7 0 -12 -2.92 3.72
7 0 -11 170.75 11.05
7 0 -10 1.7 4.06
7 0 -9 203.42 12.1
7 0 -8 3.03 3.28
7 0 -7 627.7 25.83
7 0 -6 4.17 4.08
7 0 -5 1374.56 48.94
7 0 -4 -4.28 4.9
7 0 -3 688.93 30.83
7 0 -2 6.65 3.9
7 0 -1 386.88 22.14
7 0 0 -1.05 4.62
7 0 1 33.49 7.7
7 0 2 -3.51 5.93
7 0 3 331.45 21.96
7 0 4 -2.59 5.7
7 0 5 385.61 24.96
7 0 6 -1.43 6.01
7 0 7 345.73 24.57
7 0 8 1.55 7.59
7 1 -14 10.58 4.73
7 1 -13 133.47 10.02
7 1 -12 175.12 11.36
7 1 -11 148.41 10.34
7 1 -10 8.49 4.03
7 1 -9 1505.82 50.01
7 1 -8 16.98 4.55
7 1 -7 270.71 14.74
7 1 -6 29.87 5.83
7 1 -5 45.02 7.01
7 -1 -5 67.83 8.25
7 1 -4 1.71 4.33
7 -1 -4 -2.56 4.74
7 -1 -3 956 38.97
7 1 -3 996.18 39.44
7 -1 -2 578.68 27.7
7 1 -2 584.96 27.93
7 -1 -1 1999.1 71.14
7 1 -1 2142.55 71.9
7 -1 0 125.44 12.23
7 1 0 109.55 11.8
7 -1 1 437.81 24.81
7 1 1 428.85 24.69
7 1 2 3.51 5.16
7 -1 2 3.51 4.54
7 1 3 452.02 26.25
7 -1 3 479.45 26.6
7 1 4 219.83 18.08
7 -1 4 224.07 18.18
7 1 5 975.04 43.86
7 -1 5 946.75 43.48
7 1 6 12.84 7.83
7 -1 6 8.58 7.37
7 1 7 145.81 16.36
7 -1 7 155.05 16.86
7 1 8 303.85 23.32
7 -1 8 307.55 23.5
7 2 -14 79.29 8.26
7 2 -13 50.77 6.56
7 2 -12 101.6 8.55
7 2 -11 348.23 16.88
7 2 -10 2.85 3.82
7 2 -9 1.76 3.27
7 2 -8 8.52 4.41
7 2 -7 16.61 4.27
7 2 -6 236.95 14.26
7 2 -5 763.14 31.41
7 2 -4 77.88 9.07
7 2 -3 921.61 37.67
7 2 -2 204.9 14.94
7 2 -1 14.02 5.51
7 2 0 253.44 17.65
7 2 1 8.91 4.92
7 2 2 26.87 7.07
7 2 3 751.76 35.97
7 2 4 33.58 8.47
7 2 5 933.48 42.81
7 2 6 22.79 8.6
7 2 7 90.67 12.75
7 2 8 21.69 8.64
7 -3 -14 113.68 9.99
7 3 -14 126.79 9.96
7 -3 -13 -4.81 4.6
7 3 -13 3.02 4.21
7 -3 -12 276.34 14.6
7 3 -12 253.29 13.95
7 -3 -11 83.1 7.86
7 3 -11 81.74 7.8
7 -3 -10 146.76 10.13
7 -3 -10 115.87 9.1
7 3 -10 134.24 9.79
7 -3 -9 294.78 15.5
7 3 -9 329.84 16.09
7 -3 -8 222.78 13.13
7 3 -8 245.66 13.76
7 -3 -7 1273.22 45.09
7 3 -7 1340.65 45.39
7 -3 -6 49.34 7.11
7 3 -6 48.54 7.01
7 -3 -5 252.01 15.47
7 3 -5 236.36 15.1
7 -3 -4 11.15 4.43
7 3 -4 13.75 5.95
7 -3 -3 81.44 9.21
7 3 -3 92.21 10.07
7 -3 -2 32.46 6.48
7 3 -2 36.11 7.21
7 -3 -1 223.7 15.97
7 3 -1 202.1 15.65
7 -3 0 1171.5 47.97
7 3 0 1312.97 49.36
7 -3 1 149.59 13.88
7 3 1 151.76 14.02
7 3 2 178.81 15.28
7 -3 2 138.85 13.69
7 3 3 -2.44 5.62
7 -3 3 8.58 5.77
7 3 4 3.89 5.99
7 -3 4 14.36 6.73
7 3 5 175.2 16.72
7 -3 5 216.72 18.09
7 3 6 45.48 10
7 -3 6 47.18 9.87
7 3 7 270.5 21.51
7 -3 7 249.49 21.43
7 3 8 267.53 21.85
7 -3 8 260.93 22.08
7 -4 -13 258.15 14.38
7 4 -13 234.32 13.9
7 -4 -12 21.3 4.87
7 4 -12 9.46 3.75
7 -4 -11 243.97 13.46
7 4 -11 224.47 13.03
7 4 -10 117.47 9.23
7 -4 -10 111.5 9.17
7 4 -10 109.32 8.92
7 -4 -10 124.03 9.52
7 -4 -9 27.62 4.92
7 4 -9 27.33 5.21
7 4 -8 70.47 7.49
7 -4 -8 65.3 7.07
7 -4 -7 239.97 14.27
7 4 -7 269.06 14.71
7 -4 -6 355.26 18.57
7 4 -6 370.96 18.81
7 -4 -5 157.96 11.95
7 4 -5 170.76 12.44
7 4 -4 8.71 4.42
7 -4 -4 11.28 4.17
7 -4 -3 43.07 6.94
7 4 -3 43.96 7.46
7 -4 -2 806.05 34.9
7 4 -2 826.04 35.13
7 -4 -1 308.96 19.45
7 4 -1 325.27 19.95
7 -4 0 25.55 6.91
7 4 0 32.62 7.18
7 -4 1 49.59 8.23
7 4 1 36.81 7.44
7 -4 2 252.64 18.71
7 4 2 250.24 18.43
7 4 3 744.98 35.49
7 -4 3 714.19 35.1
7 -4 4 92.82 12.66
7 4 4 107.61 12.79
7 4 5 655.64 34.17
7 -4 5 674.52 34.51
7 4 6 361 24.42
7 -4 6 310.28 23.14
7 4 7 71.29 12.09
7 -4 7 67.31 12.41
7 4 8 9.21 7.79
7 -4 8 27.84 9.88
7 -5 -13 21.16 5.77
7 5 -13 20.09 5.37
7 -5 -12 5.36 4.41
7 5 -12 3.59 4.29
7 -5 -11 97.91 8.55
7 5 -11 91.27 8.51
7 -5 -10 1124.97 40.52
7 5 -10 1218.38 41.05
7 -5 -9 320.2 16.33
7 5 -9 336.28 16.5
7 -5 -8 285.43 15.27
7 5 -8 284.03 15.25
7 -5 -7 190.08 12.29
7 5 -7 187.96 12.23
7 -5 -6 669.87 27.83
7 5 -6 636.05 27.42
7 -5 -5 942.92 37.02
7 5 -5 948.07 36.95
7 -5 -4 451.18 23.02
7 5 -4 465.86 23.51
7 -5 -3 196.55 14.37
7 5 -3 201.92 14.64
7 5 -2 846.98 36.76
7 -5 -2 927.49 37.81
7 -5 -1 21.53 6.21
7 5 -1 24.31 6.7
7 -5 0 994.44 41.56
7 5 0 983.94 41.35
7 -5 1 508.83 26.89
7 5 1 474.9 26.17
7 5 2 121.01 13.01
7 -5 2 123.72 12.83
7 5 3 119.19 13.56
7 -5 3 130.45 13.75
7 5 4 58.46 10.68
7 -5 4 48.55 9.98
7 5 5 294.32 21.77
7 -5 5 311.17 22.53
7 5 6 117.71 14.19
7 -5 6 124.72 15.38
7 5 7 179.66 17.89
7 -5 7 160.34 17.71
7 5 8 464.95 29.48
7 -5 8 509.72 30.83
7 -6 -13 48.21 6.98
7 6 -13 63.29 7.44
7 -6 -12 337.96 17.18
7 6 -12 357.16 17.33
7 -6 -11 55.34 7.02
7 6 -11 57.21 6.88
7 -6 -10 223.92 13.31
7 6 -10 243.62 13.59
7 -6 -9 11.22 4.43
7 6 -9 3.07 3.79
7 -6 -8 197.68 12.54
7 6 -8 191.58 12.22
7 -6 -7 3.42 3.8
7 6 -7 4.73 3.82
7 -6 -6 118.13 10.24
7 6 -6 136.5 10.9
7 -6 -5 895.21 35.27
7 6 -5 855.27 34.94
7 -6 -4 1080.02 42.09
7 6 -4 1106.63 42.52
7 -6 -3 12.99 4.54
7 6 -3 5.53 4.99
7 -6 -2 115.04 11.22
7 6 -2 115.01 11.6
7 -6 -1 684.31 32.23
7 6 -1 743.68 32.98
7 -6 0 149.07 13.58
7 6 0 169.96 14.42
7 -6 1 91.39 11.26
7 6 1 81.93 10.5
7 6 2 568.36 29.43
7 -6 2 576.05 29.74
7 6 3 24.58 7.94
7 -6 3 16.17 7.14
7 6 4 658.65 33.8
7 -6 4 685.73 34.38
7 6 5 196.99 17.53
7 -6 5 153.85 16.08
7 6 6 222.27 19.43
7 -6 6 245.31 20.12
7 6 7 292.98 22.37
7 -6 7 233.77 20.98
7 -6 8 -4.61 8.91
7 6 8 1.52 7.42
7 -7 -12 10.84 4.75
7 7 -12 9.06 5.31
7 -7 -11 3.08 3.75
7 7 -11 -2.44 3.72
7 -7 -11 -4.16 4.88
7 7 -11 0.6 4.31
7 -7 -10 624.03 25.53
7 7 -10 624.88 25.45
7 -7 -9 15.86 4.64
7 7 -9 15.66 4.51
7 -7 -8 323.5 17.35
7 7 -8 408.41 18.63
7 -7 -7 44.27 6.24
7 7 -7 38.85 6.46
7 -7 -6 28.61 5.77
7 7 -6 32.9 6.15
7 -7 -5 17.27 5.81
7 7 -5 19.72 5.86
7 -7 -4 3.58 3.47
7 7 -4 4.45 4.36
7 -7 -3 1.87 3.94
7 7 -3 4.64 4.54
7 -7 -2 223.1 15.75
7 7 -2 207.63 15.36
7 7 -1 10.15 5.49
7 -7 -1 -1.03 4.45
7 -7 0 493.54 26.78
7 7 0 544.4 27.46
7 -7 1 70.08 10.15
7 7 1 50.64 9.31
7 7 2 175.22 15.28
7 -7 2 113.26 12.78
7 -7 3 3.77 6.36
7 7 3 -2.47 6.14
7 7 4 47.88 9.97
7 -7 4 46.12 9.77
7 7 5 5.44 7.01
7 -7 5 16.62 8.03
7 7 6 646.32 33.68
7 -7 6 551.39 31.95
7 7 7 82.48 13.46
7 -7 7 76.3 13.16
7 -8 -12 559.05 23.81
7 8 -12 554.3 23.63
7 -8 -11 14.4 4.38
7 8 -11 12.32 4.9
7 -8 -10 38.01 6.25
7 8 -10 39.25 6.07
7 -8 -9 7.12 4.09
7 8 -9 7.01 4.2
7 -8 -8 173.18 11.89
7 8 -8 187.61 12.38
7 -8 -7 3.61 3.96
7 8 -7 7.84 4.14
7 -8 -6 537.92 24.94
7 8 -6 554.84 24.95
7 -8 -5 191.45 14.08
7 8 -5 221.19 14.86
7 8 -4 40.25 7.01
7 -8 -4 33.42 6.55
7 -8 -3 124.4 11.89
7 8 -3 144.56 12.47
7 -8 -2 396.86 22.48
7 8 -2 409.52 22.6
7 -8 -1 -4.16 5.27
7 8 -1 7.08 4.95
7 -8 0 187.93 15.72
7 8 0 195.95 15.71
7 8 1 2.25 5.49
7 -8 1 1.15 5.19
7 8 2 66.34 10.32
7 -8 2 70.33 10.74
7 8 3 45.83 9.31
7 -8 3 31.52 8.45
7 8 4 1526.38 59.24
7 -8 4 1477.2 59.02
7 8 5 9.44 6.59
7 -8 5 1.38 6.98
7 8 6 217.98 19.36
7 -8 6 176.59 17.64
7 8 7 56.72 12.09
7 -8 7 49.18 11.39
7 -9 -12 9.54 4.68
7 9 -12 7.56 4.71
7 9 -12 5.56 5.33
7 -9 -11 10.15 4.75
7 9 -11 20.05 5.22
7 -9 -10 586.47 24.7
7 9 -10 573.25 24.46
7 -9 -9 31.19 5.92
7 9 -9 33.26 6.01
7 9 -8 378.26 18.56
7 -9 -8 350.43 18.23
7 -9 -7 64.73 7.73
7 9 -7 76.78 8.25
7 -9 -6 58.05 8.22
7 9 -6 48.09 7.66
7 -9 -5 451.95 23.33
7 9 -5 487.36 23.58
7 -9 -4 10.04 5.09
7 9 -4 10.75 4.63
7 -9 -3 55.41 8.26
7 9 -3 48.41 7.51
7 -9 -2 908.55 38.05
7 9 -2 862.69 37.25
7 -9 -1 -7.38 5.95
7 9 -1 4.09 4.71
7 -9 0 378.15 22.89
7 9 0 407.02 23.22
7 9 1 143.66 13.67
7 -9 1 136.52 13.76
7 9 2 623.34 31.64
7 -9 2 638.19 31.89
7 9 3 51.74 9.94
7 -9 3 56.98 10.62
7 9 4 1.29 5.81
7 -9 4 -1.32 6.23
7 9 5 25.42 9.19
7 -9 5 23.34 8.3
7 9 6 212.1 19.27
7 -9 6 211.69 19.47
7 -10 -11 4.58 4.31
7 10 -11 5.11 4.46
7 10 -10 10.37 4.65
7 -10 -10 6.61 4.49
7 -10 -9 25.16 5.57
7 10 -9 20 5.47
7 -10 -8 188.62 13.08
7 10 -8 173.81 12.36
7 -10 -7 53.99 8.04
7 10 -7 67.85 7.99
7 -10 -6 292.47 17.57
7 10 -6 305.43 17.67
7 10 -5 544.47 25.77
7 -10 -5 533.58 25.78
7 -10 -4 1539.96 55.43
7 10 -4 1517.88 54.84
7 -10 -3 156.8 13.16
7 10 -3 158.8 13.06
7 -10 -2 187.31 14.87
7 10 -2 181.07 14.55
7 -10 -1 11.83 6.16
7 10 -1 9.27 5.04
7 -10 0 18.94 7.2
7 10 0 12.88 6.4
7 10 1 138.55 13.66
7 -10 1 150.48 14.21
7 10 2 245.34 18.27
7 -10 2 243.11 18.59
7 10 3 92.62 12.13
7 -10 3 93.43 12.55
7 10 4 204.28 18.16
7 -10 4 215.71 18.8
7 10 5 47.57 10.46
7 -10 5 35.43 9.49
7 10 6 206.56 19.12
7 -10 6 204.49 19.25
7 11 -10 345.79 17.79
7 -11 -10 355.07 18.06
7 -11 -9 4.94 4.36
7 11 -9 10.96 4.95
7 -11 -8 262.89 15.89
7 11 -8 286.38 16.12
7 -11 -7 139.24 11.55
7 11 -7 99.76 10.07
7 11 -6 81.33 9.51
7 -11 -6 113.53 10.81
7 -11 -5 65.92 8.92
7 11 -5 62.58 8.64
7 -11 -4 259.83 16.76
7 11 -4 224.07 15.67
7 -11 -3 27.44 6.55
7 11 -3 21.61 5.96
7 -11 -2 752.79 33.32
7 11 -2 693.08 32.01
7 -11 -1 55.72 9.42
7 11 -1 56.34 9.27
7 -11 0 551.85 28.5
7 11 0 528.14 27.61
7 11 1 170.21 14.92
7 -11 1 163.76 15.61
7 11 2 30.1 7.89
7 -11 2 28.99 8.23
7 11 3 9.61 6.88
7 -11 3 1.25 6
7 -11 4 -1.3 6.81
7 11 4 -2.5 6.96
7 11 5 7.83 7.96
7 -11 5 1.35 6.61
7 -12 -9 24.74 6.21
7 12 -9 31.78 6.14
7 -12 -8 -4.56 5.72
7 12 -8 -2.21 5.13
7 -12 -7 506.06 24.02
7 12 -7 469.98 23.16
7 12 -6 151.62 12.7
7 -12 -6 163.27 13.32
7 12 -5 356.72 20.12
7 -12 -5 362.81 20.46
7 -12 -4 2.82 5.73
7 12 -4 -0.9 5.01
7 -12 -3 262.03 17.63
7 12 -3 212.85 15.69
7 -12 -2 208.64 16.18
7 12 -2 205.52 15.55
7 -12 -1 -3.2 6.27
7 12 -1 3.04 4.86
7 12 0 22.76 7.07
7 -12 0 41.38 8.49
7 12 1 47.73 9.01
7 -12 1 58.03 10.14
7 12 2 1.14 6.04
7 -12 2 5.96 7
7 12 3 498.69 27.77
7 -12 3 508.35 28.57
7 12 4 224.55 18.57
7 -12 4 225.32 19.19
7 -13 -8 439.56 22.08
7 13 -8 441.95 21.87
7 -13 -7 496.42 24.09
7 13 -7 489.77 23.86
7 -13 -6 36.58 7.2
7 13 -6 28.5 6.47
7 13 -5 12.03 6.21
7 -13 -5 6.31 5.44
7 -13 -4 8.5 5.9
7 13 -4 8.03 6.34
7 -13 -3 310.78 19.7
7 13 -3 341.29 19.85
7 -13 -2 16.34 6.6
7 13 -2 15.38 6.34
7 13 -1 573.75 28.73
7 -13 -1 616.97 29.79
7 13 0 180.42 15.2
7 -13 0 205.46 16.47
7 13 1 183.36 15.56
7 -13 1 190.12 16.19
7 -13 2 67.65 10.8
7 -13 3 75 12.06
7 -14 -7 84.31 9.74
-7 -14 7 65.53 11.72
7 -14 -6 49.07 8.71
7 -14 -5 391.99 21.55
7 -14 -4 -2.81 6.78
7 -14 -3 413.69 23.31
7 -14 -2 35.09 8.33
7 -14 -1 12.18 6.2
7 -14 0 7.39 6.66
7 -14 1 71.4 11.2
7 -14 2 4.57 6.45
7 -15 -5 271.92 17.79
-7 -15 5 245.23 19.92
-7 -15 4 173.22 16.27
7 -15 -4 187.96 15.04
-7 -15 3 165.71 15.69
7 -15 -3 201.85 15.61
7 -15 -2 -0.96 8.01
-7 -15 2 10.95 7.28
7 -15 -1 316.31 20.25
-7 -15 1 310.86 20.12
7 -15 0 67.39 10.73
8 0 -13 4.08 4.44
8 0 -12 9.7 4.48
8 0 -11 4.16 3.97
8 0 -10 14.95 4.94
8 0 -9 0.73 4.24
8 0 -8 165.06 12.34
8 0 -7 0.83 4.67
8 0 -6 342.68 19.64
8 0 -5 -0.98 5.47
8 0 -4 430.89 24.33
8 0 -3 2.28 4.9
8 0 -2 3.53 4.83
8 0 -1 1.22 5.87
8 0 0 2.55 6.57
8 0 1 -2.65 6.71
8 0 2 136.83 15.09
8 0 3 -5.68 7.44
8 0 4 1608.96 64.56
8 0 5 -4.63 7.25
8 0 6 4.82 8.28
8 0 7 -1.65 7.78
8 1 -13 65.48 8.16
8 1 -12 487.65 22.38
8 1 -11 1.39 3.58
8 1 -10 451 21.26
8 1 -9 -0.73 4.41
8 1 -8 166.01 12.42
8 1 -7 32.27 6.57
8 1 -6 46.51 7.2
8 1 -5 -4.9 5.91
8 -1 -4 2257.88 77.41
8 1 -4 2220.82 77.29
8 -1 -3 39.62 7.64
8 1 -3 20.38 5.98
8 -1 -2 951.94 41.95
8 1 -2 1022.38 42.94
8 -1 -1 185.96 16.11
8 1 -1 180.86 16.09
8 -1 0 29.32 8.09
8 1 0 35.61 8.92
8 -1 1 11.92 7.17
8 1 1 22.47 8.07
8 -1 2 51.98 9.74
8 1 2 55.98 9.64
8 1 3 38.24 9.1
8 -1 3 36.89 8.71
8 1 4 590.37 33.29
8 -1 4 610.66 33.8
8 1 5 330.85 24.23
8 -1 5 349.86 24.77
8 1 6 509.73 31.43
8 -1 6 488.05 31.18
8 1 7 85.89 13.89
8 -1 7 71.14 13.47
8 2 -13 -3.42 4.81
8 2 -12 39.54 6.48
8 2 -11 25.84 5.34
8 2 -10 28.52 5.9
8 2 -9 88.77 8.98
8 2 -8 427.26 21.34
8 2 -7 194.23 13.93
8 2 -6 64.64 8.5
8 2 -5 213.44 15.83
8 2 -4 526.37 27.28
8 2 -3 152.78 13.98
8 2 -2 148.44 14.11
8 2 -1 21.98 7.56
8 2 0 108.08 12.55
8 2 1 76.6 11.24
8 2 2 365.71 24.2
8 2 3 32.64 8.7
8 2 4 1.49 6.72
8 2 5 161.6 17.69
8 2 6 15.99 7.97
8 2 7 16.54 8.39
8 -3 -12 808.85 31.93
8 3 -12 815.61 32.04
8 -3 -11 62.96 7.84
8 3 -11 54.66 7.28
8 -3 -10 259.95 15.33
8 3 -10 270.12 15.46
8 3 -9 382.45 19.44
8 -3 -9 377.07 19.49
8 -3 -8 47.7 7.38
8 3 -8 55.25 7.31
8 -3 -7 26.01 6.03
8 3 -7 40.97 6.78
8 -3 -6 87.93 9.76
8 3 -6 101.41 10.54
8 -3 -5 88.01 10.23
8 3 -5 103.99 11.06
8 3 -4 1318.18 51.54
8 -3 -4 1321.98 51.19
8 -3 -3 605.24 30.49
8 3 -3 643.75 31.36
8 -3 -2 274.64 19.23
8 3 -2 287.71 19.85
8 -3 -1 368.87 23.39
8 3 -1 386.51 23.83
8 -3 0 578.42 30.46
8 3 0 526.17 29.66
8 -3 1 1.33 5.31
8 3 1 -2.64 5.83
8 3 2 65.35 11.25
8 -3 2 74.05 11.76
8 3 3 22.75 8.16
8 -3 3 27.21 9.16
8 3 4 16.35 7.66
8 -3 4 -1.5 6.6
8 3 5 175.54 18.35
8 -3 5 167.27 17.86
8 3 6 589.16 34.09
8 -3 6 576.35 34.13
8 -4 -12 80.58 8.75
8 4 -12 82.97 8.86
8 -4 -11 10.72 5.04
8 4 -11 5.66 4.37
8 4 -10 15.15 4.63
8 -4 -10 21.8 5.32
8 -4 -9 -3 4.47
8 4 -9 -2.23 3.77
8 -4 -8 49.97 7.14
8 4 -8 39.41 7.02
8 -4 -7 194.38 14.13
8 4 -7 196.78 13.96
8 -4 -6 182.33 14.36
8 4 -6 189.33 14.52
8 -4 -5 17.97 5.59
8 4 -5 28 7.13
8 -4 -4 69.61 9.89
8 4 -4 88.67 10.96
8 -4 -3 6.78 5.43
8 4 -3 14.64 6.54
8 -4 -2 56.57 9.31
8 4 -2 76.22 10.33
8 4 -1 67.04 10.31
8 -4 -1 74.94 10.89
8 -4 0 347.86 23.33
8 4 0 439.24 25.64
8 -4 1 346.17 23.23
8 4 1 338.76 23.03
8 4 2 509.74 29.21
8 -4 2 485.72 28.73
8 -4 3 99.04 13.47
8 4 3 139.48 15.13
8 4 4 534.05 31.25
8 -4 4 545.95 31.58
8 4 5 9.25 8.34
8 -4 5 12.43 7.74
8 4 6 1.59 6.86
8 -4 6 9.62 8.67
8 5 -12 49.55 7.28
8 -5 -12 81.94 8.9
8 -5 -11 229.84 14.73
8 5 -11 270.65 15.37
8 5 -10 65.66 8.11
8 -5 -10 74.4 8.33
8 -5 -9 348.91 19.1
8 5 -9 394.96 19.66
8 -5 -8 271.64 16.48
8 5 -8 282.53 16.65
8 -5 -7 67.63 8.96
8 5 -7 76.42 9.32
8 -5 -6 10.2 4.63
8 5 -6 19.41 6.74
8 -5 -5 92 10.46
8 5 -5 104.36 10.9
8 -5 -4 29.49 6.62
8 5 -4 21.89 6.47
8 -5 -3 177.86 15.25
8 5 -3 145.78 13.98
8 -5 -2 153.06 14.28
8 5 -2 127.15 13.28
8 -5 -1 695.14 34.15
8 5 -1 682.88 33.68
8 -5 0 5.18 6.46
8 5 0 23.04 8.26
8 -5 1 96.57 12.89
8 5 1 75.5 11.72
8 5 2 9.46 6.97
8 -5 2 10.96 6.82
8 5 3 28.36 8.46
8 -5 3 18.66 7.9
8 5 4 78.74 12.06
8 -5 4 48.07 10.89
8 5 5 314.61 23.95
8 -5 5 338.17 24.91
8 5 6 523.23 31.68
8 -5 6 484.77 30.97
8 -6 -12 70.8 8.44
8 6 -12 70.91 8.48
8 -6 -11 9.54 5.91
8 6 -11 7.99 4.84
8 -6 -10 9.74 5.13
8 6 -10 3.7 3.94
8 -6 -9 468.05 22.66
8 6 -9 468.21 22.44
8 -6 -8 60.9 8.41
8 6 -8 54.57 7.9
8 -6 -7 99.54 10.64
8 6 -7 106.51 10.62
8 -6 -6 12.24 5.94
8 6 -6 6.57 5.31
8 -6 -5 572.12 28.34
8 6 -5 555.95 27.87
8 -6 -4 119.73 12.48
8 6 -4 119.59 12.56
8 -6 -3 41.05 8.63
8 6 -3 68.95 10.3
8 -6 -2 76.7 11.13
8 6 -2 78.21 11.01
8 -6 -1 37.05 8.53
8 6 -1 42.65 8.26
8 -6 0 175.28 16.9
8 6 0 209.74 17.68
8 -6 1 1674.26 64.23
8 6 1 1632.86 63.61
8 6 2 24.32 8.26
8 -6 2 24.71 8.69
8 6 3 452.17 27.81
8 -6 3 437 27.6
8 6 4 8.9 6.4
8 -6 4 -7.53 8.96
8 6 5 99 14.32
8 -6 5 110.82 15.45
8 6 6 96.72 14.25
8 -6 6 134.98 16.36
8 -7 -11 554.64 24.84
8 7 -11 544.31 24.63
8 -7 -10 4.57 4.42
8 7 -10 5.26 5.43
8 -7 -9 79.47 9.21
8 7 -9 103.22 10.17
8 -7 -8 -0.84 4.61
8 7 -8 1.66 4.81
8 -7 -7 -2.68 5.76
8 7 -7 -1.77 5.12
8 7 -6 0.95 5.88
8 -7 -6 6.71 5.34
8 -7 -5 49.95 8.06
8 7 -5 47.88 8.64
8 7 -4 101.14 11.35
8 -7 -4 92.66 11.1
8 -7 -3 561.59 29.19
8 7 -3 546.22 28.79
8 -7 -2 209.64 17.09
8 7 -2 251.81 18.57
8 7 -1 417.46 25.17
8 -7 -1 396.2 24.71
8 -7 0 9.13 6.14
8 7 0 6.39 7.02
8 -7 1 202.48 18.17
8 7 1 210.33 18.27
8 7 2 184.88 17.23
8 -7 2 172.65 16.99
8 7 3 181.02 17.06
8 -7 3 143.7 16.29
8 7 4 2.95 7.22
8 -7 4 7.52 8.12
8 -7 5 206.76 19.51
8 7 5 146.07 17.46
8 -8 -11 5.3 5.52
8 8 -11 8.21 5.4
8 -8 -10 30.28 6.64
8 8 -10 40.54 7.43
8 -8 -9 661.54 28.77
8 8 -9 637.15 28.3
8 -8 -8 2.56 5.67
8 8 -8 0.84 4.95
8 -8 -7 281.9 17.91
8 8 -7 285.39 17.84
8 -8 -6 14.71 5.7
8 8 -6 16.56 5.74
8 8 -5 313.73 20.03
8 -8 -5 319.51 20.08
8 -8 -4 144.21 13.73
8 8 -4 165.37 14.75
8 -8 -3 11.55 6.62
8 8 -3 19.34 7.11
8 -8 -2 7.23 5.78
8 8 -2 -2.37 7.49
8 -8 -1 138.82 14.33
8 8 -1 119.45 13.62
8 -8 0 40.56 9.35
8 8 0 38.29 8.56
8 8 1 371.81 24.15
8 -8 1 358.28 23.83
8 8 2 9.54 6.91
8 -8 2 15.34 8.09
8 8 3 682.74 36.26
8 -8 3 769.96 38.36
8 8 4 101.33 13.97
8 -8 4 81.15 13.11
8 8 5 56.33 12.9
8 -8 5 56.03 12.43
8 -9 -10 7.18 5.09
8 9 -10 5.47 5.88
8 -9 -9 123.88 11.26
8 9 -9 118.24 11.39
8 -9 -8 -3.51 4.81
8 9 -8 -2.59 5.19
8 9 -6 63.58 9.25
8 -9 -6 71.24 9.52
8 -9 -5 99.48 11.47
8 9 -5 108.13 11.93
8 9 -4 17.58 6.22
8 -9 -4 15.62 5.67
8 -9 -3 764.08 36.25
8 9 -3 846.6 37.31
8 -9 -2 16.87 6.93
8 9 -2 37.7 7.71
8 9 -1 68.31 10.82
8 -9 -1 74.99 11.63
8 -9 0 7.88 6.54
8 9 0 3.82 6
8 9 1 40.28 9.42
8 -9 1 21.42 7.49
8 9 2 33.92 9.07
8 -9 2 34.87 9.23
8 9 3 145.83 16.27
8 -9 3 149.99 16.76
8 9 4 167.03 17.68
8 -9 4 161.14 17
8 -10 -9 99.59 10.63
8 10 -9 124.29 11.47
8 -10 -8 205.88 15.19
8 10 -8 202.17 15.04
8 -10 -7 284.24 18.2
8 10 -7 258.87 17.61
8 10 -6 192.95 15.57
8 -10 -6 209.62 15.94
8 10 -5 253.03 18.2
8 -10 -5 263.86 18.62
8 -10 -4 28.22 8.61
8 10 -4 44.04 9.31
8 -10 -3 82.7 11.72
8 10 -3 83.66 11.53
8 -10 -2 -3.65 7.42
8 10 -2 -7.06 7.43
8 -10 -1 64.9 10.94
8 10 -1 74.95 11.54
8 10 0 234.48 19
8 -10 0 219.02 19.04
8 10 1 463.97 27.49
8 -10 1 437.96 27.23
8 -10 2 103.42 13.59
8 10 2 66.2 11.72
8 10 3 215.56 19.29
8 -10 3 179.55 18.09
8 -11 -8 52.71 9.15
8 11 -8 50.45 8.34
8 11 -7 5.75 5.41
8 -11 -7 3.93 5.54
8 -11 -6 2.08 5.62
8 11 -6 3.06 6.06
8 -11 -5 2.17 6.05
8 11 -5 -2.12 5.82
8 -11 -4 31.73 8.08
8 11 -4 23 7.81
8 -11 -3 513.36 27.8
8 11 -3 490.84 27.19
8 -11 -2 4.92 6.65
8 11 -2 8.26 6.18
8 -11 -1 34.26 8.55
8 11 -1 18.25 7.88
8 11 0 333.36 22.82
8 -11 0 390.75 24.65
8 11 1 28.29 8.5
8 -11 1 22.79 8.67
8 11 2 9.38 7.68
8 -11 2 18.16 7.78
8 12 -7 128.53 12.68
8 -12 -7 103.25 11.74
8 -12 -6 905.82 38.9
8 12 -6 894.57 38.49
8 -12 -5 401.33 23.52
8 12 -5 347.36 21.9
8 -12 -4 150.14 15.14
8 12 -4 137.03 13.96
8 -12 -3 28.17 8.82
8 12 -3 42.42 9.26
8 -12 -2 -4.91 6.73
8 12 -2 3.5 6.41
8 -12 -1 10.11 6.84
8 12 -1 19.21 7.67
8 12 0 83.78 12.01
8 -12 0 95.76 12.94
8 -12 1 118.19 14.31
8 12 1 95.12 12.78
8 -13 -5 349.87 22.24
8 -13 -4 30.69 9.84
8 -13 -3 89.49 12.86
8 -13 -2 117.53 13.86
8 -13 -1 39.58 9.59
9 0 -11 266.34 16.54
9 0 -10 -2.62 4.72
9 0 -9 157.27 13.11
9 0 -8 -3.86 5.89
9 0 -7 882.43 38.11
9 0 -6 -1.12 5.06
9 0 -5 17.02 6.59
9 0 -4 -1.32 6.07
9 0 -3 384.27 25.47
9 0 -2 2.85 6.14
9 0 -1 7.26 7.36
9 0 0 10.58 7.79
9 0 1 473.59 29.77
9 0 2 3.15 7.25
9 0 3 31.09 9.89
9 0 4 1.7 8.44
9 1 -11 294.95 17.84
9 1 -10 6.99 5
9 1 -9 20.22 6.08
9 1 -8 13.51 6.03
9 1 -7 104 11.34
9 1 -6 11.2 5.88
9 1 -5 947.52 41.75
9 1 -4 5.26 5.1
9 -1 -3 327.17 23.18
9 1 -3 352.16 23.8
9 -1 -2 9.95 5.99
9 1 -2 15.62 6.69
9 -1 -1 8.7 7.09
9 1 -1 10.14 7.08
9 -1 0 1.51 7.38
9 1 0 10.55 7.23
9 -1 1 7.76 7.72
9 1 1 -3.1 7.43
9 1 2 1.57 6.76
9 -1 2 7.86 6.61
9 1 3 114.25 15.69
9 -1 3 150.5 17.3
9 1 4 -8.46 9.15
9 -1 4 -10.17 9.16
9 2 -11 46.58 7.75
9 2 -10 3.5 5.34
9 2 -9 239.64 16.38
9 2 -8 137.69 12.9
9 2 -7 382.6 22.56
9 2 -6 89.87 11.3
9 2 -5 91.3 11.66
9 2 -4 200.97 17.42
9 2 -3 59.06 10.78
9 2 -2 109.26 13.74
9 2 -1 289.21 22.05
9 2 0 -3.01 7.35
9 2 1 666.52 36.32
9 2 2 62.54 12.25
9 2 3 309.7 24.12
9 2 4 -3.38 8.86
9 -3 -11 28.27 7.21
9 3 -11 32.34 7.16
9 -3 -10 56.83 8.54
9 3 -10 58.24 8.28
9 -3 -9 0.93 5.83
9 3 -9 -1.85 5.51
9 -3 -8 7.83 5.97
9 3 -8 3.9 4.94
9 -3 -7 179.23 14.85
9 3 -7 174.77 14.67
9 -3 -6 447.66 24.82
9 3 -6 394.21 23.78
9 -3 -5 8.53 5
9 3 -5 3.66 5.26
9 -3 -4 266.14 20
9 3 -4 255.44 19.5
9 -3 -3 441.36 27.26
9 3 -3 455.56 27.4
9 -3 -2 49.75 9.59
9 3 -2 19.85 7.23
9 -3 -1 8.72 7.24
9 3 -1 -1.45 6.67
9 -3 0 13.6 7.52
9 3 0 4.51 6.48
9 -3 1 -6.22 7.31
9 3 1 3.09 6.16
9 3 2 223.09 19.88
9 -3 2 188.43 18.88
9 3 3 435.31 29.16
9 -3 3 456.22 29.85
9 3 4 28.73 10.09
9 -3 4 34.02 11
9 -4 -11 95.01 10.8
9 4 -11 109.83 10.8
9 -4 -10 113.37 11.8
9 4 -10 121.87 11.71
9 -4 -9 51.92 8.66
9 4 -9 62.76 9.29
9 -4 -8 364.14 21.34
9 4 -8 337.45 20.39
9 -4 -7 414.68 23.39
9 4 -7 380.9 22.55
9 -4 -6 399.62 23.66
9 4 -6 400 23.6
9 -4 -5 278.06 19.84
9 4 -5 272.61 19.82
9 -4 -4 -1.31 7.07
9 4 -4 1.32 5.94
9 -4 -3 88.77 12.35
9 4 -3 59.99 10.91
9 -4 -2 14.21 6.7
9 4 -2 19.81 7.54
9 -4 -1 829.15 40.59
9 4 -1 854.52 41.19
9 -4 0 490.59 29.99
9 4 0 507.77 30.27
9 -4 1 174.32 18.09
9 4 1 192.95 18.76
9 4 2 7.79 7.33
9 -4 2 3.14 7.1
9 4 3 35.75 10.18
9 -4 3 27.87 9.67
9 4 4 121.43 16.12
9 -4 4 147.9 17.39
9 -5 -10 29.24 7.62
9 5 -10 23.51 6.52
9 -5 -9 1.9 5.66
9 5 -9 2.84 4.8
9 -5 -8 199.35 15.65
9 5 -8 182.6 14.98
9 5 -7 40.45 8.45
9 -5 -7 38.57 8.79
9 -5 -6 55.35 9.67
9 5 -6 72.61 10.71
9 -5 -5 86.27 11.33
9 5 -5 73.01 10.89
9 -5 -4 175.04 16.55
9 5 -4 208.78 17.78
9 5 -3 120.06 13.84
9 -5 -3 98.62 12.97
9 -5 -2 390.7 25.72
9 5 -2 378.53 25.29
9 -5 -1 42.54 10.86
9 5 -1 56.75 11.12
9 -5 0 -6.05 7.67
9 5 0 -3 6.61
9 -5 1 34.22 10.05
9 5 1 18.46 8.71
9 5 2 106.34 14.6
9 -5 2 68.03 12.49
9 5 3 8.12 7.65
9 -5 3 34.52 10.27
9 -6 -10 152.38 13.42
9 6 -10 127.49 12.27
9 -6 -9 156.38 14.04
9 6 -9 143.72 13.06
9 -6 -8 193.66 15.63
9 6 -8 192.69 15.43
9 -6 -7 -4.35 5.88
9 6 -7 1.08 5.56
9 -6 -6 43.17 9.01
9 6 -6 50.07 9.38
9 -6 -5 8.7 6.2
9 6 -5 11.23 7.05
9 -6 -4 18.46 7.46
9 6 -4 17.2 6.83
9 -6 -3 42.69 9.22
9 6 -3 36.94 8.89
9 -6 -2 506.1 29.73
9 6 -2 468.4 28.74
9 -6 -1 112.18 14.56
9 6 -1 91.87 13.3
9 -6 0 527.42 31.83
9 6 0 581.71 32.64
9 6 1 194.52 19.04
9 -6 1 223.62 20.04
9 6 2 437.7 28.74
9 -6 2 438.2 29.19
9 6 3 34.18 10.07
9 -6 3 23.14 9.86
9 -7 -9 -1.97 6
9 7 -9 6.8 5.92
9 -7 -8 -1.04 6.93
9 7 -8 -1.03 7.06
9 -7 -7 1.11 5.21
9 7 -7 6.59 6.11
9 -7 -6 411.02 24.85
9 7 -6 461.84 25.91
9 -7 -5 7.54 7.57
9 7 -5 5.03 8.2
9 -7 -4 102.31 14.19
9 7 -4 100.65 13.41
9 -7 -3 1.39 8.76
9 7 -3 23.36 9.24
9 -7 -2 168.11 17.61
9 7 -2 193.02 18.18
9 -7 -1 25.21 8.97
9 7 -1 33.74 9.69
9 -7 0 15.21 8.11
9 7 0 17.95 8.8
9 7 1 1.52 7.43
9 -7 1 -1.55 7.43
9 7 2 291.55 23.78
9 -7 2 365.73 26.48
9 -8 -8 293.37 19.57
9 8 -8 298.38 19.87
9 8 -7 11.16 6.39
9 -8 -7 1.13 5.41
9 -8 -6 134.07 14.02
9 8 -6 127.5 13.83
9 -8 -5 15.21 7.93
9 8 -5 30.45 8.71
9 -8 -4 -8.02 7.65
9 8 -4 1.33 7.48
9 -8 -3 16.72 8.5
9 8 -3 4.12 7.53
9 -8 -2 235.24 20.62
9 8 -2 260.38 20.88
9 -8 -1 -10.38 8.93
9 8 -1 -4.36 8.86
9 -8 0 598.82 34.3
9 8 0 629.14 34.77
9 8 1 3.01 7.88
9 -8 1 -3.08 7.24
9 8 2 573.31 34.19
9 -8 2 614.15 34.99
9 9 -8 -1.06 7.21
9 -9 -8 -4.33 6.36
9 -9 -7 9.21 6.59
9 9 -7 11.36 7.48
9 -9 -6 237.8 18.95
9 9 -6 263.29 19.47
9 -9 -5 19.17 7.72
9 9 -5 24.11 8.79
9 -9 -4 383.5 24.96
9 9 -4 370.89 24.92
9 -9 -3 108.32 14.08
9 9 -3 107.88 14.21
9 -9 -2 140.72 16
9 9 -2 163.92 17.07
9 -9 -1 31.1 10.19
9 9 -1 39.01 10.66
9 9 0 -5.93 8.36
9 -9 0 16.72 8.46
9 9 1 50.87 11.69
9 -9 1 50.79 11.02
9 -10 -6 143.78 14.79
9 10 -6 172.15 16.01
9 -10 -5 36.25 9.73
9 10 -5 44.67 9.96
9 -10 -4 1.35 7.32
9 10 -4 -1.32 7.47
9 -10 -3 -2.76 7.12
9 10 -3 -6.74 7.62
9 -10 -2 21.79 9.29
9 10 -2 23.82 9.8
9 -10 -1 136.26 16.11
9 10 -1 129.09 15.86
9 10 0 120.77 15.41
9 -10 0 97.84 14.04
10 0 -8 97.54 12.14
10 0 -7 -1.27 5.62
10 0 -6 334.67 23.2
10 0 -5 2.9 6.82
10 0 -4 330.97 24.77
10 0 -3 -8.21 8.75
10 0 -2 230.36 21.05
10 0 -1 -1.72 7.92
10 0 0 289.96 24.27
10 0 1 14.22 9.61
10 1 -8 203.25 16.94
10 1 -7 184.34 16.69
10 1 -6 284.3 21.39
10 1 -5 34.74 9.58
10 1 -4 17.09 8.9
10 1 -3 11.47 9.25
10 1 -2 18.18 9.6
10 -1 -1 24 9.58
10 1 -1 41.11 10.84
10 -1 0 266.89 23.01
10 1 0 226.47 21.85
10 1 1 53.15 12.24
10 -1 1 67.4 13.95
10 2 -8 318.83 21.77
10 2 -7 81.6 11.72
10 2 -6 12.21 7.87
10 2 -5 1.44 7.91
10 2 -4 237.88 20.72
10 2 -3 -1.64 8.57
10 2 -2 366.49 26.83
10 2 -1 18.92 9.58
10 2 0 177.54 19.5
10 2 1 68.93 12.8
10 3 -8 23.92 8.36
10 -3 -8 14.42 8.25
10 -3 -7 34.66 8.94
10 3 -7 43.5 9.76
10 -3 -6 145.55 15.75
10 3 -6 144.08 15.58
10 -3 -5 -4.34 7.57
10 3 -5 1.45 7.21
10 -3 -4 32.49 9.9
10 3 -4 21.75 9.39
10 -3 -3 -4.89 9.7
10 3 -3 1.63 8.25
10 3 -2 1.64 8.04
10 -3 -2 -1.65 8.9
10 -3 -1 43.06 10.93
10 3 -1 42.93 11.02
10 -3 0 26.18 10.13
10 3 0 13.91 9.12
10 3 1 58.07 13.01
10 -3 1 47.76 12.08
10 -4 -8 19.43 7.93
10 4 -8 18.08 7.01
10 -4 -7 5.17 6.99
10 4 -7 3.86 5.68
10 -4 -6 76.61 12.2
10 4 -6 54.62 10.74
10 -4 -5 43.43 10.58
10 4 -5 76.89 12.53
10 -4 -4 217.77 20.26
10 4 -4 201.72 19.82
10 -4 -3 66.79 13.42
10 4 -3 79.67 13.48
10 -4 -2 418.22 29.08
10 4 -2 439.99 29.62
10 -4 -1 209.1 20.57
10 4 -1 148.49 18.01
10 -4 0 40.15 11.76
10 4 0 29.49 10.23
10 5 -7 219.36 18.32
10 -5 -7 184.94 17.06
10 -5 -6 1.38 7.9
10 5 -6 1.38 6.85
10 -5 -5 151.29 17.1
10 5 -5 151.82 16.6
10 -5 -4 170.61 18.83
10 5 -4 210.08 19.99
10 -5 -3 112.27 15.97
10 5 -3 107.09 15.92
10 -5 -2 -3.31 9.98
10 5 -2 -3.3 9.56
10 -5 -1 25.64 10.08
10 5 -1 42.47 10.88
10 -5 0 136.11 18.15
10 5 0 138.5 17.71
10 -6 -6 5.56 8.58
10 6 -6 24.91 8.84
10 -6 -5 41.02 11.09
10 6 -5 48.38 11.1
10 -6 -4 110.84 15.65
10 6 -4 146.96 17.06
10 -6 -3 260.64 22.65
10 6 -3 219.08 21.29
10 6 -2 181.23 19.28
10 -6 -2 139.39 17.84
10 -6 -1 384.84 27.98
10 6 -1 323.54 25.8
10 -7 -4 31.51 10.95
10 7 -4 55.14 12.8
loop_
_exptl_oxdiff_crystal_face_indexfrac_h
_exptl_oxdiff_crystal_face_indexfrac_k
_exptl_oxdiff_crystal_face_indexfrac_l
_exptl_oxdiff_crystal_face_x
_exptl_oxdiff_crystal_face_y
_exptl_oxdiff_crystal_face_z
-1.0000 -0.0000 1.0000 0.0666 -0.0615 -0.0044
-0.0000 -2.0000 1.0000 0.0126 -0.0277 0.0994
0.0000 1.0000 0.0000 -0.0138 -0.0119 -0.0393
-0.0000 0.0000 1.0000 -0.0149 -0.0514 0.0207
0.0000 -0.0000 -1.0000 0.0149 0.0514 -0.0207
1.0000 -1.0000 -1.0000 -0.0529 0.0734 0.0438
1.0000 2.0000 -2.0000 -0.0792 0.0892 -0.0949
1.0000 1.0000 -2.0000 -0.0655 0.1010 -0.0556
1.0000 0.0000 -2.0000 -0.0517 0.1129 -0.0163
1.0000 -1.0000 -2.0000 -0.0379 0.1248 0.0230
1.0000 -2.0000 -2.0000 -0.0242 0.1366 0.0624
-1.0000 2.0000 2.0000 0.0242 -0.1366 -0.0624
-1.0000 2.0000 1.0000 0.0391 -0.0852 -0.0831
-1.0000 -0.0000 2.0000 0.0517 -0.1129 0.0163
-2.0000 1.0000 2.0000 0.1195 -0.1348 -0.0482
1.0000 0.0000 -1.0000 -0.0666 0.0615 0.0044
1.0000 0.0000 2.0000 -0.1114 -0.0928 0.0666
1.0000 2.0000 2.0000 -0.1389 -0.1165 -0.0120
1.0000 -1.0000 2.0000 -0.0976 -0.0809 0.1060
-1.0000 1.0000 -2.0000 0.0976 0.0809 -0.1060
-0.0000 -1.0000 -0.0000 0.0138 0.0119 0.0393
-1.0000 -2.0000 1.0000 0.0941 -0.0378 0.0742
