#------------------------------------------------------------------------------
#$Date: 2022-03-02 01:36:43 +0200 (Wed, 02 Mar 2022) $
#$Revision: 273194 $
#$URL: file:///home/coder/svn-repositories/cod/cif/7/24/45/7244531.cif $
#------------------------------------------------------------------------------
#
# This file is available in the Crystallography Open Database (COD),
# http://www.crystallography.net/
#
# All data on this site have been placed in the public domain by the
# contributors.
#
data_7244531
loop_
_publ_author_name
'Zhou, Qian'
'Yao, Jinzhen'
'Sun, Jing'
'Li, Xiao'
'Bao, Siqi'
'Su, Zhong-Min'
_publ_section_title
;
 N-donor flexible ligands constructed polyoxometalate-based metal-organic
 frameworks as multifunctional electrocatalyts
;
_journal_name_full               CrystEngComm
_journal_paper_doi               10.1039/D2CE00077F
_journal_year                    2022
_chemical_formula_moiety         'C32 H54 N24 Ni2 O42 Si W12'
_chemical_formula_sum            'C32 H54 N24 Ni2 O42 Si W12'
_chemical_formula_weight         3798.70
_chemical_name_systematic        '[Ni2(btbu)4(H2O)2(SiW12O40)]'
_space_group_crystal_system      monoclinic
_space_group_IT_number           14
_space_group_name_Hall           '-P 2yn'
_space_group_name_H-M_alt        'P 1 21/n 1'
_atom_sites_solution_hydrogens   mixed
_atom_sites_solution_primary     dual
_audit_creation_date             2021-09-24
_audit_creation_method
;
Olex2 1.3-alpha
(compiled 2020.07.31 svn.rc2a77460 for OlexSys, GUI svn.r6145)
;
_audit_update_record
;
2022-01-05 deposited with the CCDC.	2022-02-28 downloaded from the CCDC.
;
_cell_angle_alpha                90
_cell_angle_beta                 102.122(3)
_cell_angle_gamma                90
_cell_formula_units_Z            2
_cell_length_a                   12.438(2)
_cell_length_b                   16.716(3)
_cell_length_c                   17.383(3)
_cell_measurement_reflns_used    4299
_cell_measurement_temperature    296.15
_cell_measurement_theta_max      25.127
_cell_measurement_theta_min      1.628
_cell_volume                     3533.6(10)
_computing_cell_refinement       'SAINT+ Ver. 2016.5-0 (Bruker-AXS, 2016)'
_computing_data_collection       'APEX3 Ver. 2016.5-0 (Bruker-AXS, 2016)'
_computing_data_reduction        'SAINT+ Ver. 2016.5-0 (Bruker-AXS, 2016)'
_computing_molecular_graphics    'Olex2 1.3-alpha (Dolomanov et al., 2009)'
_computing_publication_material  'Olex2 1.3-alpha (Dolomanov et al., 2009)'
_computing_structure_refinement  'SHELXL 2018/3 (Sheldrick, 2015)'
_computing_structure_solution    'SHELXT 2014/5 (Sheldrick, 2014)'
_diffrn_ambient_temperature      296.15
_diffrn_detector                 'charge-coupled device (CCD) area detector'
_diffrn_detector_area_resol_mean 7.9
_diffrn_detector_type            'Bruker APEX II'
_diffrn_measured_fraction_theta_full 0.998
_diffrn_measured_fraction_theta_max 0.998
_diffrn_measurement_device       'three-circle diffractometer'
_diffrn_measurement_device_type  'Bruker APEX II Quazar'
_diffrn_measurement_method       '0.5\% \w and 0.5\% \f scans'
_diffrn_radiation_collimation    'focusing mirrors'
_diffrn_radiation_detector       'Bruker APEX II'
_diffrn_radiation_monochromator  'mirror optics'
_diffrn_radiation_probe          x-ray
_diffrn_radiation_type           'Mo K\a'
_diffrn_radiation_wavelength     0.71073
_diffrn_radiation_xray_symbol    K-L~3~
_diffrn_reflns_av_R_equivalents  0.0438
_diffrn_reflns_av_unetI/netI     0.0459
_diffrn_reflns_Laue_measured_fraction_full 0.998
_diffrn_reflns_Laue_measured_fraction_max 0.998
_diffrn_reflns_limit_h_max       14
_diffrn_reflns_limit_h_min       -14
_diffrn_reflns_limit_k_max       19
_diffrn_reflns_limit_k_min       -16
_diffrn_reflns_limit_l_max       20
_diffrn_reflns_limit_l_min       -20
_diffrn_reflns_number            20127
_diffrn_reflns_point_group_measured_fraction_full 0.998
_diffrn_reflns_point_group_measured_fraction_max 0.998
_diffrn_reflns_theta_full        25.108
_diffrn_reflns_theta_max         25.108
_diffrn_reflns_theta_min         1.709
_diffrn_source                   'microfocus sealed X-ray tube'
_diffrn_source_current           30.0
_diffrn_source_power             1.35
_diffrn_source_type              'Incoatec I\ms'
_diffrn_source_voltage           45.0
_exptl_absorpt_coefficient_mu    20.086
_exptl_absorpt_correction_T_max  0.87
_exptl_absorpt_correction_T_min  0.86
_exptl_absorpt_correction_type   multi-scan
_exptl_absorpt_process_details
'SADABS-2016/2 (Krause et al., 2015) was used for absorption correction.'
_exptl_crystal_colour            green
_exptl_crystal_colour_primary    green
_exptl_crystal_density_diffrn    3.570
_exptl_crystal_density_method    'not measured'
_exptl_crystal_description       block
_exptl_crystal_F_000             3416
_exptl_crystal_size_max          0.24
_exptl_crystal_size_mid          0.22
_exptl_crystal_size_min          0.2
_refine_diff_density_max         1.473
_refine_diff_density_min         -1.594
_refine_diff_density_rms         0.284
_refine_ls_extinction_coef       0.000062(9)
_refine_ls_extinction_expression Fc^*^=kFc[1+0.001xFc^2^\l^3^/sin(2\q)]^-1/4^
_refine_ls_extinction_method     'SHELXL-2018/3 (Sheldrick 2018)'
_refine_ls_goodness_of_fit_ref   1.276
_refine_ls_hydrogen_treatment    constr
_refine_ls_matrix_type           full
_refine_ls_number_parameters     549
_refine_ls_number_reflns         6274
_refine_ls_number_restraints     225
_refine_ls_restrained_S_all      1.257
_refine_ls_R_factor_all          0.0675
_refine_ls_R_factor_gt           0.0563
_refine_ls_shift/su_max          0.005
_refine_ls_shift/su_mean         0.000
_refine_ls_structure_factor_coef Fsqd
_refine_ls_weighting_details
'w=1/[\s^2^(Fo^2^)+141.1489P] where P=(Fo^2^+2Fc^2^)/3'
_refine_ls_weighting_scheme      calc
_refine_ls_wR_factor_gt          0.1039
_refine_ls_wR_factor_ref         0.1072
_reflns_Friedel_coverage         0.000
_reflns_number_gt                5348
_reflns_number_total             6274
_reflns_threshold_expression     'I > 2\s(I)'
_cod_data_source_file            d2ce00077f2.cif
_cod_data_source_block           11
_cod_original_cell_volume        3533.7(12)
_cod_database_code               7244531
_shelx_shelxl_version_number     2018/3
_shelx_space_group_comment
;
The symmetry employed for this shelxl refinement is uniquely defined
by the following loop, which should always be used as a source of
symmetry information in preference to the above space-group names.
They are only intended as comments.
;
_shelx_estimated_absorpt_t_max   0.108
_shelx_estimated_absorpt_t_min   0.086
_olex2_refinement_description
;
1. Fixed Uiso
 At 1.2 times of:
  All C(H) groups, All C(H,H) groups, All C(H,H,H,H) groups, All N(H) groups
 At 1.5 times of:
  All O(H,H) groups
2. Uiso/Uaniso restraints and constraints
Uanis(O20) \\sim Ueq, Uanis(O21) \\sim Ueq, Uanis(O18) \\sim Ueq, Uanis(O17)
\\sim Ueq: with sigma of 0.005 and sigma for terminal atoms of 0.01
Uanis(O23) \\sim Ueq: with sigma of 0.01 and sigma for terminal atoms of 0.02
3. Rigid body (RIGU) restrains
 C1, C2, C3, C4, C5, C6, C7, C8, C9, C10, C11, C12, C13, C14, C15, C16, C17,
 C18, N1, N2, N3, N4, N5, N6, N7, N8, N9, N10, N11, N12
 with sigma for 1-2 distances of 0.001 and sigma for 1-3 distances of 0.001
4. Others
 Fixed Sof: O17(0.5) O18(0.5) H10A(0.5) H10B(0.5) H10C(0.5) H10D(0.5) O20(0.5)
 O21(0.5) C15(0.5) H15A(0.5) H15B(0.5) C16(0.5) H16A(0.5) H16B(0.5) C17(0.5)
 H17A(0.5) H17B(0.5) C18(0.5) H18A(0.5) H18B(0.5)
5.a Rotating group:
 O1(H1A,H1B)
5.b Secondary CH2 refined with riding coordinates:
 C8(H8A,H8B), C9(H9A,H9B), C10(H10A,H10B), C10(H10C,H10D), C12(H12A,H12B),
 C13(H13A,H13B), C14(H14A,H14B), C15(H15A,H15B), C16(H16A,H16B), C17(H17A,H17B),
  C18(H18A,H18B)
5.c Aromatic/amide H refined with riding coordinates:
 C1(H1), C2(H2), N11(H11), C3(H3), C4(H4), C5(H5), C6(H6), C7(H7), C11(H11A)
;
_shelx_res_file
;
TITL 11_a.res in P2(1)/n
    11.res
    created by SHELXL-2018/3 at 20:27:16 on 24-Sep-2021
REM Old TITL 11 in P2(1)/n
REM SHELXT solution in P2(1)/n
REM R1 0.218, Rweak 0.016, Alpha 0.034, Orientation as input
REM Formula found by SHELXT: C64 N9 O4 Si Ni2 W12
CELL 0.71073 12.438 16.716 17.3834 90 102.122 90
ZERR 2 0.0023 0.0033 0.0033 0 0.003 0
LATT 1
SYMM 0.5-X,0.5+Y,0.5-Z
SFAC C H N Ni O Si W
UNIT 64 108 48 4 84 2 24
RIGU 0.001 0.001 $c $n
ISOR 0.005 0.01 O20 O21 O18 O17
ISOR 0.01 0.02 O23

L.S. 8 0 0
PLAN  1
SIZE 0.2 0.22 0.24
TEMP 23
CONF
FREE O20 O21
list 4
MORE -1
BOND $H
fmap 2 53
acta
OMIT 2 0 0
OMIT 5 0 11
REM <olex2.extras>
REM <HklSrc "%.\\11.hkl">
REM </olex2.extras>

WGHT    0.000000  141.148895
EXTI    0.000062
FVAR       0.07345
W3    7    0.584582    0.665814    0.403520    11.00000    0.04206    0.01936 =
         0.02577    0.00689    0.00987   -0.00570
W1    7    0.696940    0.383720    0.628502    11.00000    0.02735    0.03628 =
         0.02305    0.01119    0.00481    0.00965
W4    7    0.635457    0.470837    0.344023    11.00000    0.02886    0.04631 =
         0.01827    0.00579    0.01141    0.01132
W5    7    0.356908    0.417466    0.320143    11.00000    0.03154    0.04280 =
         0.01764   -0.00265    0.00032   -0.01329
W6    7    0.561525    0.303850    0.445306    11.00000    0.03323    0.01741 =
         0.04281   -0.00116    0.01340    0.00054
W2    7    0.781798    0.544691    0.525638    11.00000    0.01789    0.03891 =
         0.03205   -0.00801    0.00458   -0.00571
NI1   4    0.838610    0.478115    0.210496    11.00000    0.02383    0.02463 =
         0.02025    0.00291    0.00462    0.00139
SI08  6    0.500000    0.500000    0.500000    10.50000    0.01464    0.01925 =
         0.01365    0.00304    0.00237    0.00173
N1    3    0.926296    0.391102    0.284896    11.00000    0.02500    0.03100 =
         0.03525   -0.00080    0.00248    0.00134
O1    5    0.766156    0.379428    0.141497    11.00000    0.03654    0.03116 =
         0.04040   -0.00368   -0.00157    0.01189
AFIX   7
H1A   2    0.815644    0.344900    0.138008    11.00000   -1.50000
H1B   2    0.742177    0.394775    0.094095    11.00000   -1.50000
AFIX   0
N2    3    0.879194    0.579881    0.278680    11.00000    0.03890    0.03705 =
         0.02678   -0.00215    0.00935   -0.00398
N3    3    0.970269    0.493418    0.153548    11.00000    0.03006    0.05009 =
         0.03795    0.01270    0.00875   -0.00285
O2    5    0.704930    0.457975    0.271503    11.00000    0.03838    0.04770 =
         0.03001    0.01052    0.02356    0.01419
N4    3    0.638558    0.574979    0.009843    11.00000    0.03819    0.04339 =
         0.02822    0.00521    0.00173    0.00508
N5    3    1.034120    0.287071    0.317576    11.00000    0.03736    0.03359 =
         0.02271   -0.00437    0.00805    0.00913
O3    5    0.536904    0.717747    0.485230    11.00000    0.04130    0.12401 =
         0.05969   -0.04134    0.02511   -0.04198
O4    5    0.916402    0.564855    0.539803    11.00000    0.02310    0.04679 =
         0.07141    0.00014    0.01318   -0.00755
O5    5    0.490356    0.450203    0.290248    11.00000    0.02450    0.08370 =
         0.14524    0.08678    0.02005    0.01005
N6    3    1.097086    0.475364    0.079474    11.00000    0.04702    0.08059 =
         0.06745   -0.00634    0.03108   -0.02155
O6    5    0.788858    0.330058    0.690031    11.00000    0.05651    0.09505 =
         0.03413    0.03972    0.02409    0.04505
O7    5    0.619935    0.742350    0.355073    11.00000    0.07675    0.05456 =
         0.04891    0.02551    0.01200   -0.03681
O8    5    0.674132    0.316723    0.536308    11.00000    0.04473    0.13750 =
         0.04494   -0.04642    0.02813   -0.04562
N7    3    1.110281    0.543505    0.118019    11.00000    0.06152    0.08346 =
         0.07609   -0.01103    0.03965   -0.03108
O9    5    0.609545    0.580014    0.335155    11.00000    0.08895    0.06169 =
         0.05209   -0.03782   -0.04291    0.03225
O10   5    0.756025    0.489853    0.429237    11.00000    0.08436    0.06127 =
         0.04560   -0.02471   -0.04480    0.05082
O11   5    0.750780    0.593320    0.616090    11.00000    0.11260    0.04894 =
         0.07265    0.00341    0.07295    0.00585
C1    1    1.037106    0.554779    0.162282    11.00000    0.04978    0.06394 =
         0.05234    0.00285    0.02240   -0.01962
AFIX  43
H1    2    1.033720    0.598917    0.194255    11.00000   -1.20000
AFIX   0
O12   5    0.787836    0.445309    0.578269    11.00000    0.12930    0.02844 =
         0.06951    0.00572    0.07509   -0.00288
O13   5    0.315536    0.527713    0.308118    11.00000    0.12439    0.03687 =
         0.09110   -0.01690    0.08062   -0.00079
O14   5    0.564814    0.343143    0.647628    11.00000    0.04000    0.13793 =
         0.04652   -0.04814    0.02470   -0.04540
O15   5    0.719398    0.638818    0.468745    11.00000    0.11382    0.06888 =
         0.04712   -0.03114   -0.04227    0.05103
N8    3    0.729528    0.542228    0.125869    11.00000    0.03641    0.02894 =
         0.02478   -0.00069    0.00383    0.01079
O16   5    0.284986    0.381005    0.235935    11.00000    0.06090    0.07135 =
         0.02657   -0.01206    0.00347   -0.02730
O17   5    0.595103    0.535043    0.458983    10.50000    0.01792    0.01966 =
         0.01876    0.00170    0.00396    0.00234
C2    1    1.012285    0.447121    0.101485    11.00000    0.04677    0.06737 =
         0.07058   -0.00664    0.03380   -0.01580
AFIX  43
H2    2    0.981195    0.398277    0.083281    11.00000   -1.20000
AFIX   0
N9    3    0.942320    0.663549    0.372350    11.00000    0.04051    0.04600 =
         0.02918   -0.00534    0.01206   -0.01257
N10   3    0.948506    0.275486    0.353657    11.00000    0.04879    0.04258 =
         0.05469    0.01487    0.02620    0.01931
N11   3    0.874414    0.707724    0.315710    11.00000    0.06948    0.04101 =
         0.03891   -0.01105    0.00031   -0.00299
AFIX  43
H11   2    0.860336    0.758081    0.315994    11.00000   -1.20000
AFIX   0
N12   3    0.560951    0.576413    0.053168    11.00000    0.03975    0.07957 =
         0.03706    0.02226    0.00615    0.01955
C3    1    1.021012    0.357662    0.279443    11.00000    0.02584    0.03564 =
         0.02993   -0.00088    0.00144    0.00376
AFIX  43
H3    2    1.071445    0.379877    0.252946    11.00000   -1.20000
AFIX   0
C4    1    0.735485    0.556923    0.053049    11.00000    0.03785    0.04222 =
         0.02468    0.00034    0.00347    0.00738
AFIX  43
H4    2    0.800083    0.554870    0.034186    11.00000   -1.20000
AFIX   0
C5    1    0.620579    0.554821    0.123850    11.00000    0.03874    0.05265 =
         0.03271    0.01340    0.00789    0.01892
AFIX  43
H5    2    0.589954    0.548924    0.167941    11.00000   -1.20000
AFIX   0
C6    1    0.941612    0.588879    0.348018    11.00000    0.03489    0.04400 =
         0.02425   -0.00020    0.01319   -0.01061
AFIX  43
H6    2    0.981012    0.547651    0.376975    11.00000   -1.20000
AFIX   0
C7    1    0.835939    0.654880    0.260885    11.00000    0.07611    0.03747 =
         0.03987   -0.00957   -0.00817    0.00424
AFIX  43
H7    2    0.784997    0.666929    0.215047    11.00000   -1.20000
AFIX   0
C8    1    1.120791    0.227754    0.322789    11.00000    0.04875    0.05031 =
         0.04026    0.00206    0.01244    0.02410
AFIX  23
H8A   2    1.089856    0.180798    0.293512    11.00000   -1.20000
H8B   2    1.176469    0.249146    0.296900    11.00000   -1.20000
AFIX   0
O18   5    0.511365    0.440623    0.425231    10.50000    0.02316    0.02437 =
         0.02633    0.00054    0.00458    0.00083
C9    1    0.996521    0.697393    0.443933    11.00000    0.07467    0.06708 =
         0.03747   -0.01417    0.00109   -0.02075
AFIX  23
H9A   2    1.033790    0.654375    0.476417    11.00000   -1.20000
H9B   2    0.940557    0.717885    0.470060    11.00000   -1.20000
AFIX   0
C10   1    1.174320    0.202576    0.401230    11.00000    0.10854    0.09073 =
         0.04015   -0.00379    0.00645    0.07496
PART 1
AFIX  23
H10A  2    1.124469    0.168900    0.422875    10.50000   -1.20000
H10B  2    1.190927    0.249293    0.434718    10.50000   -1.20000
AFIX  23
PART 2
H10C  2    1.121849    0.203935    0.435354    10.50000   -1.20000
H10D  2    1.233571    0.239318    0.422269    10.50000   -1.20000
AFIX   0
PART 0
C11   1    0.888349    0.339694    0.329547    11.00000    0.04258    0.03930 =
         0.06866    0.01662    0.02705    0.01472
AFIX  43
H11A  2    0.821263    0.348023    0.343871    11.00000   -1.20000
AFIX   0
O19   5    0.586236    0.209826    0.421216    11.00000    0.05523    0.03072 =
         0.08707   -0.03817   -0.00137    0.00346
C12   1    0.525600    0.659464   -0.093607    11.00000    0.07751    0.06717 =
         0.02732    0.00780    0.00306    0.03112
AFIX  23
H12A  2    0.460760    0.646146   -0.073480    11.00000   -1.20000
H12B  2    0.503994    0.665299   -0.150274    11.00000   -1.20000
AFIX   0
C13   1    1.076711    0.761267    0.443909    11.00000    0.04622    0.04095 =
         0.04746   -0.02814    0.00605    0.00430
AFIX  23
H13A  2    1.131312    0.743057    0.415397    11.00000   -1.20000
H13B  2    1.114206    0.771782    0.497745    11.00000   -1.20000
AFIX   0
C14   1    0.610135    0.594317   -0.073285    11.00000    0.05940    0.05428 =
         0.02828    0.00780    0.00268    0.01538
AFIX  23
H14A  2    0.582512    0.546456   -0.102379    11.00000   -1.20000
H14B  2    0.676300    0.610611   -0.090283    11.00000   -1.20000
AFIX   0
O20   5    0.615247    0.499100    0.562096    10.50000    0.00986    0.00981 =
         0.00861    0.00379    0.00234   -0.00491
O21   5    0.533874    0.412469    0.532506    10.50000    0.01919    0.01730 =
         0.01826    0.00110    0.00433    0.00235
PART 1
C15   1    1.232729    0.574810    0.125990    10.50000    0.05727    0.06780 =
         0.07705   -0.01402    0.04080   -0.02098
AFIX  23
H15A  2    1.273105    0.573432    0.180162    10.50000   -1.20000
H15B  2    1.272175    0.544156    0.093403    10.50000   -1.20000
AFIX   0
C16   1    1.213461    0.653897    0.098478    10.50000    0.05828    0.06970 =
         0.09613   -0.00823    0.05123   -0.01721
AFIX  23
H16A  2    1.171559    0.681853    0.131321    10.50000   -1.20000
H16B  2    1.169557    0.652743    0.045307    10.50000   -1.20000
AFIX   0
PART 0
O22   5    0.431352    0.327720    0.367796    11.00000    0.03385    0.09848 =
         0.09609    0.07638    0.00817   -0.00210
O23   5    0.639032    0.364069    0.383485    11.00000    0.05644    0.06777 =
         0.08644    0.04322    0.00491   -0.01427
PART 2
C17   1    1.281114    0.620855    0.100009    10.50000    0.08156    0.09178 =
         0.15084   -0.04845    0.07135   -0.05088
AFIX  23
H17A  2    1.283364    0.592795    0.051529    10.50000   -1.20000
H17B  2    1.322642    0.590542    0.143932    10.50000   -1.20000
AFIX   0
C18   1    1.169971    0.632122    0.108278    10.50000    0.08185    0.08628 =
         0.09475   -0.01237    0.06124   -0.03660
AFIX  23
H18A  2    1.128770    0.659787    0.062398    10.50000   -1.20000
H18B  2    1.169097    0.664975    0.154139    10.50000   -1.20000
AFIX   0
HKLF 4




REM  11_a.res in P2(1)/n
REM wR2 = 0.1072, GooF = S = 1.276, Restrained GooF = 1.257 for all data
REM R1 = 0.0563 for 5348 Fo > 4sig(Fo) and 0.0675 for all 6274 data
REM 549 parameters refined using 225 restraints

END

WGHT      0.0000    141.0303

REM Highest difference peak  1.473,  deepest hole -1.594,  1-sigma level  0.284
Q1    1   0.6479  0.3429  0.3583  11.00000  0.05    1.47
;
_shelx_res_checksum              5312
_shelx_hkl_file
;
   1   0   0    0.10    0.20
   2   0   0    2.00    0.70
   3   0   0    1.90    0.90
   4   0   0  451.25   13.40
  -5   0   0    1.40    1.40
   5   0   0    0.80    1.10
   6   0   0   89.69    5.70
  -6   0   0   90.39    6.50
  -6   0   0   84.89    4.80
  -7   0   0    0.50    1.40
   7   0   0    2.20    2.00
  -7   0   0    0.70    2.10
   8   0   0   75.79    7.10
  -8   0   0   76.79    8.50
  -8   0   0   73.59    5.30
  -9   0   0    3.70    3.00
  -9   0   0    2.60    2.10
   9   0   0    0.50    1.70
 -10   0   0   15.30    3.80
 -10   0   0   10.10    4.00
  11   0   0    1.20    2.10
 -11   0   0   -1.90    3.00
 -12   0   0  121.19   12.90
 -13   0   0   -0.50    4.10
  13   0   0   -1.20    3.40
 -14   0   0  468.95   25.50
   0   1   0   -2.10    0.30
  -1  -1   0 1513.45   33.80
   1   1   0 1447.46   34.30
  -2  -1   0    2.10    0.90
  -2  -1   0    3.00    0.60
   2   1   0    1.50    1.00
  -3  -1   0  783.52   18.40
  -3  -1   0  795.62   20.80
   3   1   0  776.92   20.50
  -4  -1   0   63.29    3.10
  -4  -1   0   73.09    4.70
   4   1   0   59.19    4.10
  -5  -1   0  344.07   10.20
  -5  -1   0  351.56   12.80
   5   1   0  346.17   12.10
  -6  -1   0  570.64   15.90
  -6  -1   0  571.74   19.10
   6   1   0  576.14   18.20
  -7  -1   0  393.86   13.00
  -7  -1   0  448.86   16.80
  -7   1   0  425.16   16.40
   7   1   0  429.66   15.40
  -8  -1   0    9.20    3.50
  -8  -1   0   13.30    2.80
  -8   1   0   17.50    4.30
  -8   1   0   18.20    3.50
   8   1   0   24.00    4.20
  -9  -1   0   72.49    6.30
  -9  -1   0   74.39    8.50
  -9   1   0   80.69    7.30
  -9   1   0   65.99    8.40
   9   1   0   73.29    7.60
  10  -1   0    0.00    1.80
 -10  -1   0    7.00    3.60
 -10   1   0   -0.20    2.70
  10   1   0    4.10    2.90
 -10   1   0    2.70    2.60
 -11  -1   0   -0.60    3.00
  11  -1   0   -0.20    2.10
 -11   1   0    8.60    4.70
  11   1   0    4.70    3.00
 -12  -1   0    8.60    5.00
  12  -1   0   13.70    4.50
 -12   1   0    1.50    4.30
  12   1   0    7.20    3.60
 -13  -1   0    6.90    5.60
  13  -1   0    6.60    4.70
 -13   1   0    8.40    5.40
  13   1   0   -0.70    2.90
 -14  -1   0  107.69   14.30
 -14   1   0  104.09   13.70
   0   2   0 1538.55   35.50
  -1  -2   0   23.80    2.50
   1   2   0   14.40    2.10
  -1   2   0   17.10    2.00
  -2  -2   0 2106.69   47.80
   2   2   0 1982.60   48.60
  -3  -2   0  361.06   11.50
   3   2   0  334.77   11.70
  -4  -2   0   25.50    3.60
  -4  -2   0   25.80    1.80
   4   2   0   21.70    3.40
  -5  -2   0   11.90    2.80
  -5  -2   0    8.40    1.50
   5   2   0    7.50    2.50
  -6  -2   0  603.64   20.10
  -6  -2   0  608.94   16.20
   6   2   0  607.74   19.50
  -7  -2   0  462.15   13.70
  -7  -2   0  463.35   17.70
   7   2   0  457.65   16.80
  -8  -2   0  691.83   24.30
  -8  -2   0  673.93   19.50
   8   2   0  724.03   23.50
  -9  -2   0  116.89   10.80
  -9  -2   0  106.59    6.20
  -9   2   0  120.69    9.30
   9   2   0  126.89    8.90
  -9   2   0  100.19    7.50
 -10  -2   0    6.00    3.80
  10  -2   0    1.90    2.60
 -10   2   0   -0.10    2.70
 -10   2   0    2.70    3.20
  10   2   0    3.30    2.70
 -11  -2   0   32.80    7.20
  11  -2   0   27.60    5.70
 -11   2   0   24.40    6.40
  11   2   0   31.10    6.00
 -11   2   0   22.90    5.40
 -12  -2   0  121.29   13.40
  12  -2   0  112.49   11.20
 -12   2   0  127.69   13.50
  12   2   0  122.99   11.60
  13  -2   0   17.20    5.50
 -13  -2   0   23.50    7.60
  13   2   0   12.70    5.40
 -13   2   0   14.10    6.00
 -14  -2   0  133.39   16.10
 -14   2   0  111.49   14.30
   0   3   0    6.70    1.60
  -1  -3   0  844.02   23.80
   1   3   0  923.81   23.70
  -1   3   0  933.51   23.30
  -2  -3   0   94.69    5.20
  -2   3   0   86.79    4.80
   2   3   0   82.09    5.60
  -3  -3   0   13.30    2.60
   3  -3   0    0.50    0.90
   3   3   0    6.00    2.20
  -4  -3   0  425.46   14.50
   4   3   0  421.76   15.10
  -5  -3   0   19.40    3.70
   5   3   0   20.60    4.10
  -6  -3   0  423.36   16.20
   6   3   0  434.06   16.20
  -7  -3   0 1908.41   50.29
  -7  -3   0 1827.52   42.60
   7   3   0 1882.91   49.50
  -8  -3   0  391.36   16.80
   8  -3   0  307.07   13.90
  -8  -3   0  397.46   10.80
   8   3   0  385.06   16.10
  -9  -3   0   61.79    8.40
   9  -3   0   58.69    6.70
  -9   3   0   61.29    7.10
   9   3   0   70.39    8.10
  10  -3   0  110.19    9.90
 -10  -3   0  102.19   11.20
 -10   3   0  102.99    9.40
  10   3   0   93.09    9.80
  11  -3   0   65.89    8.40
 -11  -3   0   66.29    9.70
 -11   3   0   58.29    7.70
 -11   3   0   82.79   10.10
  11   3   0   60.09    8.40
  12  -3   0   86.99    9.80
 -12  -3   0   83.99   11.80
 -12   3   0   77.79   10.70
  12   3   0   65.29    9.20
  13  -3   0   14.90    5.60
 -13  -3   0   21.40    7.40
 -13   3   0   20.20    6.80
  13   3   0   17.40    5.80
 -14  -3   0   15.60    7.40
 -14   3   0   12.80    6.80
  14   3   0   23.40    6.50
   0   4   0   41.20    4.00
  -1  -4   0  315.17   12.10
  -1   4   0  322.87   11.10
   1   4   0  326.77   11.40
  -2  -4   0   88.89    5.70
   2   4   0   81.29    5.70
  -2   4   0   90.09    5.40
  -3  -4   0   68.79    5.10
  -3   4   0   76.59    5.10
   3   4   0   79.59    7.30
  -4  -4   0    7.60    2.40
   4  -4   0    1.30    1.20
   4   4   0   12.50    3.50
  -5  -4   0  114.59    7.30
   5   4   0  102.79    7.70
  -6  -4   0   24.40    4.60
   6   4   0   20.00    4.40
  -7  -4   0   31.50    5.40
   7   4   0   24.40    5.00
  -8  -4   0  200.88   12.00
   8  -4   0  183.68   10.10
   8   4   0  193.18   11.60
  -9  -4   0   35.10    6.70
   9  -4   0   32.40    5.30
   9   4   0   34.50    6.40
  10  -4   0  136.99    9.80
 -10  -4   0  136.19   12.90
  10   4   0  120.69   11.70
 -10   4   0  132.69    9.60
 -11  -4   0   19.50    5.80
  11  -4   0   17.50    4.70
 -11   4   0   17.00    4.80
  11   4   0   21.60    5.80
 -12  -4   0    7.70    5.50
  12  -4   0   11.60    4.90
 -12   4   0   10.90    5.40
  12   4   0   13.90    5.30
 -12   4   0   13.70    5.50
 -13  -4   0  158.38   16.40
 -13   4   0  158.78   15.90
  13   4   0  150.68   14.20
 -14  -4   0   16.30    7.80
 -14   4   0    5.10    6.50
  14   4   0   12.90    6.00
   0   5   0    2.10    1.60
  -1  -5   0  138.19    8.20
  -1   5   0  161.88    7.70
   1   5   0  143.69    7.50
  -2  -5   0  107.49    7.10
   2   5   0  104.29    7.10
  -2   5   0  109.09    6.60
  -3  -5   0  861.11   25.70
   3   5   0  880.51   26.90
  -3   5   0  850.51   25.00
  -4  -5   0   35.70    5.00
   4   5   0   37.50    5.80
  -4   5   0   32.10    4.60
  -5  -5   0  714.03   23.40
   5   5   0  721.93   24.90
  -6  -5   0   11.80    3.60
   6   5   0   15.60    4.40
  -7  -5   0  131.59    9.30
   7   5   0  128.19    9.80
   8  -5   0  540.25   20.40
  -8  -5   0  596.34   22.90
   8   5   0  590.04   23.00
   9  -5   0   60.59    7.30
  -9  -5   0   73.69    9.00
   9   5   0   74.29    9.10
 -10  -5   0  148.29   13.60
  10  -5   0  146.59   10.40
  10   5   0  139.99   13.60
 -10   5   0  124.39    9.50
 -11  -5   0    3.50    4.20
  11  -5   0   -0.40    2.80
 -11   5   0    0.60    3.10
  11   5   0    0.50    3.80
  12  -5   0   32.10    7.00
 -12  -5   0   27.20    7.50
  12   5   0   39.50    7.80
 -12   5   0   30.10    6.80
 -13  -5   0   49.00    9.80
  13   5   0   33.10    7.60
 -13   5   0   48.40    9.30
 -14  -5   0   13.50    7.30
 -14   5   0   11.60    6.80
  14   5   0   13.10    6.40
   0   6   0  134.69    7.50
  -1   6   0  119.69    7.30
   1   6   0  120.39    7.50
  -2  -6   0  346.67   15.00
  -2   6   0  370.06   14.10
   2   6   0  386.56   15.00
  -3  -6   0 1164.08   33.50
  -3   6   0 1112.79   31.90
   3   6   0 1141.09   33.80
  -4  -6   0   24.30    4.60
  -4   6   0   19.00    3.80
   4   6   0   32.80    6.10
  -5  -6   0  103.69    8.00
  -5   6   0   97.19    7.20
   5   6   0  124.69   11.50
  -6  -6   0  225.58   12.30
  -6   6   0  216.78   11.30
   6   6   0  210.88   13.00
  -7  -6   0    3.80    2.90
   7  -6   0   -0.30    1.40
   7   6   0    8.30    4.00
  -8  -6   0   96.19   10.20
   8  -6   0   57.09    7.10
   8   6   0  118.69   11.90
   9  -6   0  232.38   13.20
  -9  -6   0  269.37   15.60
   9   6   0  273.47   16.10
  10  -6   0    4.00    3.40
 -10  -6   0    5.10    4.00
  10   6   0    6.60    4.40
  11  -6   0  219.38   14.20
 -11  -6   0  236.48   16.40
  11   6   0  216.68   15.30
 -11   6   0  259.37   15.00
 -12  -6   0   75.59   11.30
  12  -6   0   79.49   10.00
  12   6   0   98.49   12.50
 -12   6   0   90.39   10.90
 -13  -6   0    4.50    5.40
 -13   6   0    3.00    4.90
  13   6   0    8.30    6.00
 -13   6   0    6.90    5.80
   0   7   0   -0.90    1.80
  -1   7   0   40.30    5.10
   1   7   0   39.90    5.50
  -2  -7   0  209.28   11.60
   2   7   0  199.18   10.90
  -2   7   0  210.48   10.50
  -3  -7   0   -1.80    1.90
  -3   7   0    1.40    2.30
   3   7   0    1.80    2.70
  -4  -7   0    0.90    2.50
  -4   7   0    7.60    3.10
   4   7   0    4.80    2.90
  -5  -7   0   44.40    6.70
  -5   7   0   38.10    5.70
   5   7   0   40.10    6.70
  -6  -7   0   53.99    7.50
  -6   7   0   52.79    6.90
   6   7   0   57.69    8.70
  -7  -7   0  158.08   11.10
  -7   7   0  149.39   10.30
   7   7   0  167.48   15.10
  -8  -7   0   43.70    7.50
  -8   7   0   39.00    6.20
   8   7   0   30.20    6.60
  -9  -7   0  205.48   14.20
   9   7   0  196.28   14.70
  -9   7   0  241.08   14.10
 -10  -7   0  365.26   19.90
  10   7   0  325.57   19.70
  11  -7   0   52.19    8.40
 -11  -7   0   69.09   11.00
  11   7   0   68.89   10.50
 -11   7   0   83.19   10.70
 -11   7   0   81.59   10.40
  12  -7   0  304.87   18.40
 -12  -7   0  398.86   22.70
 -12   7   0  378.56   19.80
  12   7   0  349.57   20.80
 -13  -7   0    3.40    5.70
  13   7   0   16.70    7.70
 -13   7   0    5.40    5.30
   0   8   0  623.14   21.50
  -1   8   0    9.70    3.10
   1   8   0   23.70    4.40
  -2   8   0  324.07   14.30
   2   8   0  308.47   14.80
  -3  -8   0   81.69    9.50
   3   8   0   79.39    9.00
  -3   8   0   64.69    7.40
  -4  -8   0   17.20    4.90
  -4   8   0   19.40    4.40
   4   8   0   18.20    5.10
  -5  -8   0 1680.33   48.70
  -5   8   0 1595.94   46.60
   5   8   0 1787.52   51.29
  -6  -8   0  389.16   18.20
  -6   8   0  369.36   16.80
   6   8   0  402.06   20.20
  -7  -8   0    5.00    3.30
  -7   8   0   -0.90    2.50
   7   8   0    1.90    3.90
  -8  -8   0   12.30    4.80
   8   8   0   11.50    5.00
  -8   8   0   12.00    4.50
  -9  -8   0  928.01   34.30
   9   8   0  875.61   34.90
  -9   8   0  920.11   32.30
 -10  -8   0  121.09   13.40
  10   8   0  112.79   13.90
 -10   8   0  136.29   13.70
 -11  -8   0   32.30    8.00
 -11   8   0   26.50    6.80
  11   8   0   26.40    8.20
 -11   8   0   41.80    8.00
 -12  -8   0   14.90    7.00
  12   8   0    2.60    5.80
 -12   8   0    1.30    4.10
 -13  -8   0    6.10    6.80
 -13   8   0   10.60    6.30
  13   8   0   19.00    8.50
   0   9   0    9.50    3.40
   1   9   0   74.39    8.00
  -1   9   0   61.99    7.30
  -2   9   0  202.18   11.60
   2   9   0  203.88   12.10
  -3  -9   0  230.08   13.90
   3   9   0  218.08   13.40
  -3   9   0  240.68   12.80
  -4  -9   0  789.92   28.90
   4   9   0  801.32   29.40
  -4   9   0  739.43   26.50
  -5  -9   0  900.91   31.50
   5   9   0  854.81   32.30
  -5   9   0  836.12   29.10
  -6  -9   0  264.07   15.60
   6   9   0  265.07   17.00
  -6   9   0  283.27   14.70
  -7  -9   0   67.09    9.50
  -7   9   0   52.99    7.90
   7   9   0   46.50    8.60
  -8  -9   0   16.50    5.90
  -8   9   0   19.90    5.70
   8   9   0   23.00    7.00
  -9  -9   0  103.79   12.50
   9   9   0   79.99   11.80
  -9   9   0   90.19   10.90
 -10  -9   0  299.57   19.20
  10   9   0  277.57   19.60
 -10   9   0  294.17   17.30
 -11  -9   0   48.30   10.40
 -11   9   0   75.69   11.20
 -11   9   0   58.99    9.90
  11   9   0   44.40    9.90
 -12  -9   0   33.80    8.80
  12   9   0   35.20    9.30
 -12   9   0   17.20    6.60
   0  10   0    6.60    3.50
  -1  10   0 1134.99   35.00
   1  10   0 1070.19   34.80
   2  10   0  154.38   11.10
  -2  10   0  158.28   10.70
   3  10   0  306.57   16.90
  -3  10   0  334.37   16.10
  -4 -10   0    9.10    5.00
  -4  10   0   13.70    4.30
   4  10   0    9.80    5.00
  -5 -10   0  443.06   21.60
  -5  10   0  449.06   19.80
   5  10   0  453.95   22.30
  -6 -10   0   29.60    6.70
  -6  10   0   36.90    6.50
   6  10   0   43.40    8.40
  -7 -10   0    4.50    4.30
   7  10   0    8.60    5.70
  -7  10   0    8.90    4.50
  -8 -10   0  103.29   12.80
  -8  10   0  103.99   11.30
   8  10   0  108.49   13.40
  -9 -10   0    8.00    5.60
  -9  10   0   16.20    5.70
   9  10   0   20.60    6.90
 -10 -10   0   85.49   12.50
  10  10   0   91.39   14.00
 -10  10   0   74.19   10.30
 -11 -10   0   29.40    8.20
 -11  10   0   21.40    7.40
  11  10   0   13.20    8.00
 -11  10   0   20.60    6.70
 -12 -10   0   11.30    7.20
  12  10   0    2.80    6.90
 -12  10   0    5.40    5.50
   0  11   0    3.50    3.20
   1  11   0  269.77   15.40
  -1  11   0  290.07   15.50
  -2  11   0 1438.06   43.20
   2  11   0 1385.66   43.90
  -3  11   0   13.20    4.30
   3  11   0   23.20    5.80
  -4 -11   0   20.70    5.80
   4  11   0   19.30    6.40
  -4  11   0   22.00    5.90
  -5 -11   0    8.60    4.50
  -5  11   0   17.10    5.30
   5  11   0    4.60    4.30
  -6 -11   0   36.40    8.20
   6  11   0   32.30    8.40
  -6  11   0   19.90    5.60
  -7 -11   0  159.38   16.60
  -7  11   0  140.99   13.20
   7  11   0  158.18   16.20
  -8 -11   0   28.70    7.70
  -8  11   0   23.30    6.50
   8  11   0   33.50    8.30
  -9 -11   0    3.00    5.30
  -9  11   0   11.60    5.50
   9  11   0    7.60    6.90
 -10 -11   0   19.30    7.70
  10  11   0   29.80    9.70
 -10  11   0   17.50    6.60
 -11 -11   0   57.59   11.60
 -11  11   0   64.89   10.80
  11  11   0   55.29   13.20
 -12 -11   0   16.50    8.00
  12  11   0   14.50    9.60
 -12  11   0   21.40    7.90
   0  12   0   80.59   10.20
   1  12   0  534.15   23.40
  -1  12   0  517.85   22.80
  -2  12   0  256.97   15.20
   2  12   0  251.17   15.60
   3  12   0   43.30    7.90
  -3  12   0   60.69    8.90
   4  12   0  279.27   17.70
  -4  12   0  287.47   16.60
  -5 -12   0    6.20    4.30
   5  12   0    3.90    4.70
  -5  12   0    9.10    4.60
  -6 -12   0   19.10    6.60
   6  12   0   16.80    6.70
  -6  12   0   14.60    5.70
  -7 -12   0   48.60    9.90
  -7  12   0   47.30    8.70
   7  12   0   54.09   10.70
  -8 -12   0   84.09   12.60
  -8  12   0   64.19    9.80
   8  12   0   66.79   12.30
  -9 -12   0    3.00    5.00
   9  12   0    1.30    6.40
  -9  12   0    5.80    5.00
 -10 -12   0   38.70    9.90
  10  12   0   39.20   11.50
 -10  12   0   28.20    8.00
 -11 -12   0    7.20    6.50
  11  12   0   19.70    8.90
 -11  12   0   19.30    7.50
   0  13   0   -0.90    2.50
   1  13   0   14.90    5.50
  -1  13   0   20.30    5.80
  -2  13   0  244.78   15.40
   2  13   0  239.68   16.10
  -3  13   0    9.50    5.00
   3  13   0    8.50    5.50
  -4  13   0   58.19    9.00
   4  13   0   59.49   10.40
   5  13   0    2.50    5.10
  -5  13   0    8.40    5.30
  -6 -13   0   12.70    6.10
   6  13   0   25.70    7.90
  -6  13   0   43.10    8.50
  -7 -13   0   79.69   12.50
  -7  13   0   54.69    9.50
   7  13   0   63.59   12.40
  -8 -13   0   25.10    8.40
   8  13   0   39.10   10.50
  -8  13   0   33.00    7.80
  -9 -13   0   44.70   10.90
  -9  13   0   57.89   10.00
   9  13   0   83.39   14.10
 -10 -13   0   20.00    8.90
 -10  13   0   17.10    7.20
  10  13   0   37.90   11.30
 -11 -13   0   23.50    9.70
   0  14   0  262.87   17.30
   1  14   0   84.49   11.70
  -1  14   0   89.99   11.70
   2  14   0   90.49   12.00
  -2  14   0   74.89   10.80
  -3  14   0  433.96   22.20
   3  14   0  436.46   23.40
   4  14   0   -1.10    4.60
  -4  14   0    0.40    3.80
   5  14   0   71.09   12.30
  -5  14   0   51.29    9.30
   6  14   0   26.20    8.60
  -6  14   0   38.20    8.30
  -7 -14   0    2.90    5.10
  -7  14   0   17.60    6.30
   7  14   0    8.20    7.40
  -8 -14   0   19.50    8.20
  -8  14   0    9.70    6.00
   8  14   0   17.00    8.70
  -9 -14   0   91.09   15.40
   9  14   0  107.99   16.90
  -9  14   0  118.39   14.30
 -10 -14   0   50.09   12.60
  10  14   0   50.99   14.00
   0  15   0   10.90    5.70
  -1  15   0    9.10    6.20
   1  15   0    9.00    5.30
  -2  15   0  243.68   17.10
   2  15   0  224.58   17.00
   3  15   0   33.70    8.50
  -3  15   0   23.70    7.30
   4  15   0  126.19   15.90
  -4  15   0  132.99   14.80
  -5  15   0  117.49   13.90
   5  15   0  152.08   17.90
   6  15   0   50.59   11.50
  -6  15   0   65.09   11.00
  -7  15   0   24.20    8.00
   7  15   0   26.60   10.10
  -8 -15   0   26.50    9.70
  -8  15   0   22.80    7.80
   8  15   0   11.90    9.10
  -9 -15   0   76.59   14.20
  -9  15   0   60.39   11.40
   9  15   0   62.49   14.40
   0  16   0   37.30    8.90
   1  16   0   28.30    9.10
  -1  16   0   23.50    7.80
   2  16   0    1.10    5.60
  -2  16   0   -2.00    5.40
   3  16   0   86.99   14.10
  -3  16   0   80.89   12.50
   4  16   0  149.19   17.20
  -4  16   0  161.48   17.20
  -5  16   0  207.38   19.50
   5  16   0  160.38   18.80
  -6  16   0   12.90    6.40
   6  16   0   -7.80    6.10
  -7  16   0    6.20    7.00
   7  16   0    9.30    7.60
  -8  16   0   95.79   13.40
   8  16   0  100.39   16.80
   0  17   0   22.60    8.40
  -1  17   0    9.20    6.50
   1  17   0    6.40    6.50
  -2  17   0   35.80    9.70
   2  17   0   30.30    9.90
   3  17   0   22.10    8.90
  -3  17   0    8.10    6.70
   4  17   0  340.07   24.10
  -4  17   0  367.96   23.10
   5  17   0   45.60   12.20
  -5  17   0   60.39   11.50
  -6  17   0    6.70    6.80
   6  17   0   19.90   10.60
   7  17   0   47.90   12.20
  -7  17   0   45.10   10.80
   0  18   0   39.70   11.20
   1  18   0   92.19   15.00
  -1  18   0   63.69   12.90
   2  18   0   34.80   10.70
  -2  18   0   24.90    9.40
   3  18   0   51.09   12.60
  -3  18   0   61.39   12.40
   4  18   0   69.99   13.80
  -4  18   0   77.69   12.60
  -5  18   0    0.40    7.00
   5  18   0    1.30    6.80
  -6  18   0   33.50   10.30
   6  18   0   34.50   12.40
   0  19   0    4.50    8.80
  -1  19   0    1.70    7.70
   1  19   0   11.30    8.60
   2  19   0   95.19   16.60
  -2  19   0   64.29   13.00
   3  19   0   35.90   11.40
  -3  19   0   23.90    9.90
  -4  19   0  160.78   19.40
   4  19   0  155.38   21.40
 -14   0   1   -1.40    4.90
 -13   0   1   15.40    6.20
  13   0  -1   12.60    4.80
  12   0  -1    2.10    3.40
 -12   0   1    4.40    4.20
 -11   0   1  296.57   16.50
  11   0  -1  274.27   13.70
 -10   0   1    1.20    2.40
 -10   0   1    2.40    3.30
  10   0  -1    1.20    2.40
  -9   0   1  487.35   17.20
   9   0  -1  485.25   17.50
  -9   0   1  490.65   20.10
   8   0  -1    0.50    1.60
  -8   0   1    0.40    1.70
  -8   0   1   -3.60    1.80
   7   0  -1  301.87   11.50
  -7   0   1  280.77   12.90
  -7   0   1  295.27   11.20
   6   0  -1    1.20    1.30
  -6   0   1    1.10    1.70
  -6   0   1    0.30    1.30
  -5   0   1  618.74   17.40
  -5   0   1  645.14   19.50
   5   0  -1  607.04   17.40
  -4   0   1    2.00    1.20
   4   0  -1   -0.50    0.90
   3   0  -1 1908.41   44.00
  -3   0   1 1941.51   44.40
   2   0  -1    2.50    0.70
  -2   0   1    2.40    1.00
  -1   0   1 2840.92   63.09
   0   0   1   -0.70    0.20
   0   0   1   -0.60    0.20
   1   0   1 2366.16   51.99
   1   0   1 2256.57   51.49
  -1   0  -1 2349.26   51.29
   2   0   1   10.80    1.90
  -2   0  -1    9.80    1.70
   3   0   1  551.34   15.60
  -3   0  -1  574.54   15.60
  -4   0  -1    0.80    1.30
   4   0   1    2.40    1.50
  -5   0  -1  345.67   12.40
   5   0   1  327.37   11.90
  -6   0  -1    3.20    1.90
   6   0   1    2.10    1.70
  -7   0  -1   81.09    7.60
   7   0   1   75.49    6.90
  -8   0  -1    1.30    2.40
   8   0   1    1.30    2.00
   9   0   1  210.98   11.40
  -9   0  -1  213.28    9.60
  -9   0  -1  216.98   12.30
 -10   0  -1    4.80    3.30
  10   0   1   -2.20    2.50
 -10   0  -1    2.30    2.30
  11   0   1    8.70    3.60
 -11   0  -1    5.90    4.50
 -12   0  -1   -0.80    3.80
  12   0   1   -2.30    2.80
  13   0   1    2.00    4.00
 -13   0  -1    0.60    4.70
 -14   0  -1    5.20    6.50
  14   0   1   -1.20    4.10
 -14  -1   1  186.58   17.90
 -14   1   1  167.58   16.60
  13  -1  -1   15.20    8.10
 -13  -1   1   20.20    7.00
  13   1  -1   14.10    4.80
 -13   1   1   15.70    6.40
 -12  -1   1   75.59   10.40
  12  -1  -1   52.99    7.50
 -12   1   1   65.79   10.20
  12   1  -1   61.09    8.00
  11  -1  -1  131.99    9.60
 -11  -1   1  143.09   13.50
 -11   1   1  146.19   10.00
 -11   1   1  164.68   12.40
  11   1  -1  144.89   10.20
 -10  -1   1   11.50    4.30
 -10  -1   1    2.00    2.40
  10  -1  -1    3.70    2.70
 -10   1   1    3.00    3.20
 -10   1   1    6.10    2.90
  10   1  -1    4.50    2.60
  -9  -1   1   37.30    6.30
  -9  -1   1   57.39    6.00
   9  -1  -1   56.19    6.30
   9   1  -1   48.70    6.10
  -9   1   1   46.20    6.90
  -9   1   1   61.19    6.60
   8  -1  -1   47.40    5.20
  -8  -1   1   37.20    5.70
  -8  -1   1   45.80    4.90
   8   1  -1   36.70    4.80
  -8   1   1   49.90    6.70
  -8   1   1   44.30    5.10
  -7  -1   1  762.42   22.10
  -7  -1   1  813.82   25.60
   7  -1  -1  794.72   22.90
  -7   1   1  808.42   23.10
   6  -1  -1    4.10    1.60
  -6  -1   1    5.60    2.30
  -6  -1   1   13.00    2.50
  -6   1   1    8.00    2.30
   6   1  -1    2.40    1.50
   5  -1  -1    0.10    1.10
  -5  -1   1    2.40    1.80
  -5  -1   1    0.30    1.10
   5   1  -1    1.10    1.10
  -5   1   1    0.70    1.20
   4  -1  -1  386.86   11.30
  -4  -1   1  373.56   11.30
  -4  -1   1  415.36   13.30
  -4   1   1  405.16   12.00
  -3  -1   1    8.90    1.60
   3  -1  -1   12.40    1.60
  -3  -1   1    6.90    1.70
   3   1  -1    5.20    1.40
  -3   1   1    8.70    1.60
   2  -1  -1  141.29    4.40
  -2  -1   1  145.09    4.60
  -2  -1   1  153.28    5.60
  -2   1   1  145.79    5.20
  -1  -1   1    1.30    0.50
  -1  -1   1    1.20    0.60
   1   1  -1   -0.50    0.30
  -1   1   1    0.90    0.60
  -1   1   1    2.80    0.60
   0  -1   1 4261.17   89.79
   0  -1   1 3874.71   89.39
   0   1  -1 4112.59   90.09
   0   1   1 4073.99   89.79
   1  -1   1    3.90    1.10
  -1  -1  -1    0.90    0.80
   1  -1   1    3.10    0.90
   1   1   1    0.60    0.80
   1   1   1    2.20    0.50
  -2  -1  -1  572.54   15.20
   2  -1   1  591.54   15.30
   2   1   1  585.74   15.80
   2   1   1  604.34   13.70
   3  -1   1   18.00    2.40
  -3  -1  -1   23.40    2.80
   3   1   1   17.30    2.50
   4  -1   1  292.77   10.20
  -4  -1  -1  296.67   10.50
   4   1   1  285.37   10.50
   5  -1   1   82.49    5.30
  -5  -1  -1   83.39    5.60
   5   1   1   89.89    5.70
   6  -1   1  125.59    7.00
  -6  -1  -1  132.59    7.70
  -6   1  -1  123.79    7.40
   6   1   1  134.89    7.50
   7  -1   1   -0.40    1.60
  -7  -1  -1    4.60    2.40
  -7  -1  -1    2.30    1.50
  -7   1  -1    5.70    2.60
   7   1   1    4.90    2.50
  -8  -1  -1  161.38    7.40
   8  -1   1  161.78    9.30
  -8  -1  -1  186.18   10.70
   8   1   1  168.18    9.90
  -8   1  -1  155.28    9.80
  -9  -1  -1   11.10    2.80
   9  -1   1    7.90    3.30
  -9  -1  -1    9.60    3.70
  -9   1  -1    6.10    3.40
   9   1   1    7.60    3.00
  -9   1  -1   11.70    3.00
  10  -1   1   99.99    9.50
 -10  -1  -1  103.19   10.60
 -10   1  -1  110.69    7.70
  10   1   1  119.59   10.80
 -10   1  -1   96.99   10.60
 -11  -1  -1   84.39   10.40
  11  -1   1   65.29    8.30
  11   1   1   72.59    8.90
 -11   1  -1   63.59    8.80
  12  -1   1  134.39   12.30
 -12  -1  -1  132.09   13.40
  12   1   1   99.29   10.80
 -12   1  -1  130.09   13.30
 -13  -1  -1   67.99   10.90
  13  -1   1   57.49    9.10
  13   1   1   60.69    8.90
 -13   1  -1   71.59   11.20
 -14  -1  -1  161.88   17.10
  14   1   1  169.68   15.50
 -14   1  -1  137.79   15.60
 -14  -2   1   11.50    7.10
 -14   2   1    2.10    5.60
 -13  -2   1   26.40    7.60
 -13   2   1   23.70    7.20
  13   2  -1   35.60    7.10
  12  -2  -1   37.10    6.40
 -12  -2   1   49.10    8.60
 -12   2   1   38.30    8.20
  12   2  -1   40.00    6.80
  11  -2  -1    7.20    3.90
 -11  -2   1    5.90    4.10
 -11   2   1    6.20    4.10
 -11   2   1    5.60    3.50
  11   2  -1   -0.70    1.70
  10  -2  -1  165.58    9.90
 -10  -2   1  178.78   12.30
 -10   2   1  157.38   10.20
 -10   2   1  156.78   11.40
   9  -2  -1  105.39    7.50
  -9  -2   1  115.79    6.50
  -9  -2   1  112.09   10.60
  -9   2   1  112.79    7.90
  -8  -2   1  210.18   11.70
  -8  -2   1  206.08    8.50
   8  -2  -1  206.68    9.90
  -8   2   1  189.78    9.80
  -7  -2   1 1407.06   35.00
  -7  -2   1 1409.96   39.80
   7  -2  -1 1469.05   37.10
  -7   2   1 1384.06   37.20
   6  -2  -1 1229.28   32.00
  -6  -2   1 1237.48   30.40
  -6  -2   1 1229.58   34.60
  -6   2   1 1260.77   32.70
  -5  -2   1  133.89    7.30
   5  -2  -1  123.39    5.80
  -5  -2   1  131.19    5.00
   5   2  -1   90.49    5.90
   4  -2  -1  584.44   16.10
  -4  -2   1  623.74   18.10
  -4  -2   1  603.34   14.90
   4   2  -1  562.34   17.60
   3  -2  -1    6.40    1.40
  -3  -2   1    3.80    0.90
  -3  -2   1    3.20    1.40
   3   2  -1    4.00    1.80
  -2  -2   1  349.07   10.60
  -2  -2   1  335.27    8.70
   2   2  -1  351.76   11.10
  -2   2   1  341.07    9.80
  -1  -2   1   94.49    4.20
  -1  -2   1  119.39    3.80
   1   2  -1   88.79    4.20
  -1   2   1   90.09    3.60
   0  -2   1   14.70    1.70
   0   2   1   14.30    1.70
   0   2  -1   20.00    2.30
  -1  -2  -1   23.80    2.70
   1  -2   1   21.50    2.60
   1   2   1   20.50    2.80
   1   2   1   28.40    1.70
   2  -2   1   51.89    3.40
  -2  -2  -1   49.10    3.40
   2   2   1   49.90    3.80
  -3  -2  -1   73.79    4.50
   3  -2   1   77.59    4.30
   3   2   1   82.99    5.10
  -4  -2  -1   44.70    4.60
   4  -2   1   32.70    3.70
   4   2   1   35.30    4.30
   5  -2   1  253.17   10.20
  -5  -2  -1  268.47   10.90
   5   2   1  264.17   11.00
  -6  -2  -1  225.78   10.60
  -6  -2  -1  219.18    7.10
   6  -2   1  223.98    9.90
   6   2   1  210.28   10.30
  -7  -2  -1 1396.06   38.60
  -7  -2  -1 1326.87   32.90
   7  -2   1 1367.56   37.20
   7   2   1 1386.36   38.20
   8  -2   1  439.36   16.90
  -8  -2  -1  454.65   18.20
  -8  -2  -1  419.86   13.20
   8   2   1  453.45   17.70
  -8   2  -1  453.85   18.00
  -9  -2  -1   73.99    8.60
   9  -2   1   82.19    8.30
   9   2   1   99.29    9.30
  -9   2  -1   90.19    9.50
  10  -2   1  567.04   21.50
 -10  -2  -1  533.45   22.70
  10   2   1  517.75   21.40
 -10   2  -1  565.34   22.90
 -10   2  -1  566.14   20.00
  11  -2   1   15.40    4.80
 -11  -2  -1   12.50    5.10
 -11   2  -1   17.30    5.60
  11   2   1   19.70    5.10
 -11   2  -1   21.80    5.00
 -12  -2  -1    2.10    4.30
  12  -2   1    4.20    3.10
 -12   2  -1    3.00    4.30
  12   2   1    1.20    3.30
  13  -2   1    2.80    3.40
 -13  -2  -1   33.70    8.40
 -13   2  -1   25.00    7.20
  13   2   1   23.80    6.30
 -14  -2  -1  132.79   16.00
 -14   2  -1  152.98   16.30
  14   2   1  156.38   14.70
 -14  -3   1  125.59   15.70
 -14   3   1  149.59   16.20
 -13  -3   1  104.69   13.80
 -13   3   1  100.19   13.20
  12  -3  -1   76.29    8.80
 -12  -3   1   59.39    9.40
 -12   3   1   94.39   10.60
 -12   3   1   50.99    8.90
  11  -3  -1   42.80    6.60
 -11  -3   1   36.60    7.90
 -11   3   1   22.70    6.10
 -11   3   1   18.70    5.20
  11   3  -1   15.60    4.50
 -10  -3   1  124.39   12.10
  10  -3  -1  123.29    9.00
 -10   3   1  131.79    9.40
  10   3  -1  134.09   11.70
   9  -3  -1    6.70    3.10
  -9  -3   1   11.40    4.20
  -9   3   1    7.80    3.10
   9   3  -1   10.90    3.90
  -8  -3   1  611.84   22.80
  -8  -3   1  604.24   16.60
   8  -3  -1  652.93   20.70
  -8   3   1  615.74   20.80
   8   3  -1  632.64   21.70
  -7  -3   1 1028.10   30.90
   7  -3  -1  951.20   27.70
  -7  -3   1  978.00   24.40
   7   3  -1 1031.60   30.20
  -7   3   1 1016.90   28.70
  -6  -3   1  450.35   16.30
   6  -3  -1  405.06   13.90
  -6  -3   1  404.06   11.10
   6   3  -1  417.76   15.70
  -5  -3   1  763.02   22.80
  -5  -3   1  747.23   17.80
   5  -3  -1  704.23   20.50
   5   3  -1  742.53   23.00
  -4  -3   1  568.94   17.60
  -4  -3   1  563.04   13.40
   4  -3  -1  551.64   16.00
   4   3  -1  520.85   18.00
  -3  -3   1  164.88    7.30
  -3  -3   1  174.88    5.10
  -3   3   1  157.48    6.60
   3   3  -1  164.48    8.20
  -2  -3   1 1378.06   32.00
  -2  -3   1 1406.76   34.60
  -2   3   1 1380.86   33.70
   2   3  -1 1429.36   35.20
  -1  -3   1    6.00    1.80
  -1  -3   1    6.70    1.30
  -1   3   1    8.60    1.70
   1   3  -1    8.70    2.00
   0   3   1  648.04   17.40
   0   3  -1  647.44   17.80
   1   3   1  375.76   12.60
  -1   3  -1  389.36   12.40
   1   3   1  383.06   10.00
  -2  -3  -1  379.96   12.60
   2  -3   1  401.86   12.70
   2   3   1  385.16    9.80
   2   3   1  386.86   13.40
   3  -3   1   66.79    4.50
  -3  -3  -1   67.89    4.70
   3   3   1   58.69    5.50
   4  -3   1   71.79    4.80
  -4  -3  -1   63.99    4.90
   4   3   1   80.99    7.10
   5  -3   1    5.50    2.00
  -5  -3  -1    6.80    2.50
   5   3   1    7.70    2.80
   6  -3   1  113.39    7.00
  -6  -3  -1  115.19    7.70
   6   3   1  133.89    8.30
  -7  -3  -1  494.25   19.10
   7  -3   1  533.95   18.40
   7   3   1  527.15   19.50
  -8  -3  -1  526.35   14.00
   8  -3   1  529.55   19.30
  -8  -3  -1  518.15   20.50
   8   3   1  537.95   20.50
  -9  -3  -1    6.80    3.60
   9  -3   1   13.70    3.90
   9   3   1   15.00    4.60
  10  -3   1  128.19   11.30
 -10  -3  -1  164.38   12.00
  10   3   1  127.89   11.60
 -10   3  -1  142.99   11.10
 -11  -3  -1  299.47   17.50
  11  -3   1  320.57   16.20
 -11   3  -1  285.17   14.70
  11   3   1  305.37   16.30
 -11   3  -1  307.77   17.30
 -12  -3  -1   69.29   10.30
 -12   3  -1   60.69    9.50
  12   3   1   71.79    9.50
 -13  -3  -1    1.20    5.30
  13  -3   1   -1.40    2.70
  13   3   1   -2.60    4.30
 -13   3  -1    5.60    5.30
 -14  -3  -1   17.00    8.20
  14   3   1   17.50    6.80
 -14   3  -1   12.80    7.10
 -14  -4   1  180.18   18.70
 -14   4   1  159.38   17.00
 -13  -4   1   86.29   12.20
 -13   4   1   59.39   10.40
  13   4  -1   79.69   10.50
 -12  -4   1    4.90    5.10
  12  -4  -1    8.70    4.40
 -12   4   1   11.10    5.50
 -12   4   1    6.50    4.40
  12   4  -1    5.50    4.10
 -11  -4   1   36.20    7.60
  11  -4  -1   39.40    6.60
  11   4  -1   42.60    7.30
 -11   4   1   54.69    7.90
  10  -4  -1   31.60    5.60
 -10  -4   1   36.50    7.00
 -10   4   1   53.69    7.20
  10   4  -1   55.59    7.80
   9  -4  -1  167.98    9.90
  -9  -4   1  186.28   12.20
   9   4  -1  162.08   10.80
  -9   4   1  175.18   10.40
   8  -4  -1   90.09    6.80
  -8  -4   1   83.39    9.00
   8   4  -1   86.79    9.00
  -8   4   1   94.09    8.60
   7  -4  -1   80.99    6.10
  -7  -4   1   95.49    8.90
   7   4  -1  107.69    8.10
  -6  -4   1  172.88    9.80
   6  -4  -1  148.59    8.00
   6   4  -1  182.58   10.30
   5  -4  -1   18.30    3.10
  -5  -4   1   11.10    3.00
  -5  -4   1   14.80    1.40
   5   4  -1   16.90    4.10
  -4  -4   1 1392.26   36.00
  -4  -4   1 1353.86   30.70
  -4   4   1 1307.27   34.40
   4   4  -1 1320.57   37.40
  -3  -4   1  390.66    9.90
  -3  -4   1  349.47   12.90
   3   4  -1  370.36   14.10
  -3   4   1  349.77   12.20
  -2  -4   1   38.50    2.50
  -2  -4   1   38.50    4.20
  -2   4   1   40.30    3.80
   2   4  -1   41.40    4.70
  -1  -4   1  856.81   24.30
  -1   4   1  867.11   22.60
   1   4  -1  865.71   23.50
   0   4   1 1001.70   26.30
   0   4  -1 1017.50   26.80
  -1  -4  -1  744.13   22.50
   1   4   1  777.62   22.10
  -1   4  -1  773.72   21.90
  -2  -4  -1  492.25   16.40
   2   4   1  497.05   12.50
  -2   4  -1  510.25   16.20
   2   4   1  501.05   17.10
   3  -4   1  172.28    8.30
  -3  -4  -1  166.48    8.30
   3   4   1  170.58    9.20
  -4  -4  -1   90.29    6.30
   4  -4   1   97.69    6.20
   4   4   1   74.89    7.20
   5  -4   1  979.30   27.70
  -5  -4  -1  983.60   28.60
   5   4   1  950.40   29.50
  -6  -4  -1   31.50    5.20
   6  -4   1   25.70    4.20
   6   4   1   24.90    4.80
   7  -4   1  774.02   25.10
  -7  -4  -1  820.52   26.80
   7   4   1  839.12   27.70
   8  -4   1 1125.79   33.50
  -8  -4  -1 1100.59   34.90
   8   4   1 1126.99   35.10
  -9  -4  -1    4.00    3.40
   9  -4   1    3.00    2.90
   9   4   1    5.10    3.40
  10  -4   1  298.17   15.20
 -10  -4  -1  303.87   16.90
  10   4   1  290.97   16.20
 -11  -4  -1    4.10    4.30
  11  -4   1    2.20    2.90
 -11   4  -1    6.90    3.50
 -11   4  -1    5.60    3.70
  11   4   1    5.10    3.70
 -12  -4  -1    3.70    5.30
  12  -4   1    1.50    2.40
  12   4   1    4.10    4.40
 -12   4  -1   -1.70    4.00
 -12   4  -1    0.40    3.50
  13  -4   1   16.30    5.90
 -13  -4  -1   25.70    7.40
  13   4   1   28.20    7.30
 -13   4  -1   39.00    8.60
 -14  -4  -1    5.60    5.80
 -14   4  -1    9.20    6.80
  14   4   1    8.60    6.20
 -14  -5   1  129.49   15.70
  14   5  -1   98.79   12.70
 -14   5   1  131.39   16.20
 -13  -5   1   44.20    9.80
 -13   5   1   48.60   10.00
  13   5  -1   55.59    9.40
  12  -5  -1   85.49   14.30
 -12  -5   1   92.19   12.40
 -12   5   1   82.39   10.30
  12   5  -1   70.29    9.90
  11  -5  -1   72.29    8.80
 -11  -5   1   64.29    9.80
 -11   5   1   63.99    8.60
  11   5  -1   71.99    9.40
 -10  -5   1  142.99   13.50
  10  -5  -1  171.18   10.60
 -10   5   1  143.49   10.30
  10   5  -1  169.58   11.90
  -9  -5   1   24.50    5.70
   9  -5  -1   20.10    4.50
  -9   5   1   19.60    4.50
   9   5  -1   30.50    6.40
   8  -5  -1   22.70    4.50
  -8  -5   1   22.60    5.10
   8   5  -1   20.70    5.10
  -7  -5   1   16.50    4.30
   7  -5  -1   16.40    3.70
   7   5  -1   13.00    4.00
   6  -5  -1  311.07   12.70
  -6  -5   1  298.67   13.80
   6   5  -1  278.97   14.20
  -5  -5   1  122.19    7.90
  -5   5   1  112.79    7.00
   5   5  -1  133.89    9.50
  -4  -5   1   58.49    6.20
   4   5  -1   61.89    7.40
  -4   5   1   74.39    5.40
   3   5  -1  141.59    8.60
  -3   5   1  130.29    6.90
  -2  -5   1   51.09    5.90
   2   5  -1   39.20    4.90
  -2   5   1   44.60    4.80
  -1  -5   1   53.19    5.70
   1   5  -1   66.09    5.90
  -1   5   1   60.39    4.50
   0   5  -1  461.35   15.20
   0   5   1  436.16   14.50
  -1   5  -1  788.12   23.10
   1   5   1  774.02   23.00
  -2  -5  -1 2451.55   60.19
   2   5   1 2395.76   59.89
  -2   5  -1 2332.37   58.69
  -3  -5  -1 1268.87   34.90
  -3   5  -1 1208.28   34.10
   3   5   1 1312.87   36.50
   3   5   1 1240.98   29.00
  -4  -5  -1   40.50    5.50
  -4   5  -1   37.70    4.90
   4   5   1   39.90    6.20
   5  -5   1   37.80    4.90
  -5  -5  -1   46.20    6.00
   5   5   1   52.29    7.10
   6  -5   1  278.27   12.50
  -6  -5  -1  289.67   13.60
   6   5   1  275.67   14.20
   7  -5   1  260.97   12.70
  -7  -5  -1  244.88   13.20
   7   5   1  269.97   14.50
  -8  -5  -1   49.60    7.30
   8  -5   1   32.30    5.40
   8   5   1   47.00    7.60
   9  -5   1    8.10    3.10
  -9  -5  -1    6.90    3.70
   9   5   1    6.10    3.70
 -10  -5  -1    9.40    4.40
  10  -5   1   12.00    4.40
  10   5   1   13.50    5.20
 -11  -5  -1   26.50    6.90
  11   5   1   29.20    6.90
 -12  -5  -1   25.90    7.10
  12  -5   1   -0.30    3.00
  12   5   1   15.60    6.20
 -12   5  -1   14.90    6.00
 -12   5  -1   16.90    5.40
 -13  -5  -1   39.00    8.90
  13  -5   1   45.50    8.70
 -13   5  -1   50.99    9.90
  13   5   1   38.10    8.70
 -13  -6   1  114.79   14.70
 -13   6   1  133.09   14.40
  13   6  -1  119.29   14.00
 -12  -6   1  452.15   24.20
 -12   6   1  464.55   22.00
  12   6  -1  444.46   22.70
 -11  -6   1   66.89   10.20
  11  -6  -1   90.49   10.00
  11   6  -1   84.59   10.70
 -11   6   1   78.19    9.80
 -10  -6   1   67.59    9.50
  10  -6  -1   75.89    8.80
 -10   6   1   80.19    9.50
  10   6  -1   80.69   10.40
  -9  -6   1   93.99   11.00
   9  -6  -1   88.99    9.20
   9   6  -1   70.69    9.40
  -9   6   1   82.19    8.90
  -8  -6   1  149.19   11.00
   8   6  -1  154.18   11.60
  -8   6   1  149.39    9.90
  -7  -6   1  205.38   12.10
   7   6  -1  191.58   12.80
  -7   6   1  208.18   11.20
  -6  -6   1  282.97   13.90
  -6   6   1  314.57   13.30
   6   6  -1  277.57   15.20
  -5  -6   1   23.10    4.50
  -5   6   1   25.20    4.20
   5   6  -1   32.60    6.20
  -4  -6   1    7.30    3.10
  -4   6   1   11.20    2.70
   4   6  -1   16.70    4.40
  -3  -6   1  112.09    7.80
   3   6  -1  114.99    8.00
  -3   6   1  105.99    6.80
  -2  -6   1  123.59    8.20
   2   6  -1  129.59    8.10
  -2   6   1  138.99    7.50
   1   6  -1   27.40    4.10
  -1   6   1   31.30    4.10
   0   6  -1  850.31   25.20
   0   6   1  836.32   24.60
  -1   6  -1 2475.05   60.59
   1   6   1 2403.36   60.39
  -2  -6  -1  545.85   19.60
  -2   6  -1  508.35   18.30
   2   6   1  538.45   19.10
  -3  -6  -1  244.98   12.20
   3   6   1  252.27   12.90
  -3   6  -1  239.38   11.50
   3   6   1  238.28    7.40
  -4  -6  -1  202.48   10.90
   4   6   1  225.68   12.60
   4   6   1  201.68    6.20
  -4   6  -1  195.08   10.50
  -5  -6  -1  810.92   27.20
  -5   6  -1  855.91   27.10
   5   6   1  879.51   29.20
  -6  -6  -1   14.70    4.00
   6  -6   1   17.10    4.30
   6   6   1    3.50    3.20
   7  -6   1  159.98   10.20
  -7  -6  -1  164.78   11.00
   7   6   1  165.68   11.60
  -8  -6  -1    1.70    2.70
   8  -6   1    3.70    2.60
   8   6   1    4.20    3.60
   9  -6   1   11.50    4.40
  -9  -6  -1   13.70    4.80
   9   6   1   19.30    5.80
 -10  -6  -1  107.09   12.10
  10  -6   1   87.69   10.10
  10   6   1   88.69   10.90
  11  -6   1   -0.20    2.50
 -11  -6  -1    1.20    4.40
  11   6   1    7.90    5.20
 -12  -6  -1  123.29   15.20
 -12   6  -1   95.99   11.30
  12   6   1  115.79   14.00
 -13  -6  -1   16.20    7.20
  13   6   1   -3.70    4.90
 -13   6  -1    7.20    5.80
 -13  -7   1   87.49   13.10
  13   7  -1   74.49   12.00
 -13   7   1   57.49   10.10
 -12  -7   1   93.59   13.20
  12   7  -1   98.39   13.00
 -12   7   1   99.09   12.20
 -11  -7   1  146.09   15.10
  11   7  -1  171.98   16.20
 -11   7   1  219.98   14.20
 -11   7   1  188.08   13.50
 -10  -7   1   43.90    8.50
 -10   7   1   40.20    7.00
 -10   7   1   44.00    7.40
  10   7  -1   26.30    6.80
  -9  -7   1  426.36   20.80
  -9   7   1  430.56   18.90
  -9   7   1  459.75   19.50
   9   7  -1  404.86   21.10
  -8  -7   1    8.10    4.00
   8   7  -1   15.90    5.50
  -8   7   1   15.30    4.50
  -7  -7   1   18.60    4.70
   7   7  -1   31.70    7.00
  -7   7   1   15.40    4.20
  -6  -7   1  363.76   16.80
  -6   7   1  386.76   15.80
   6   7  -1  360.56   18.30
  -5  -7   1    7.50    3.30
  -5   7   1    7.60    2.80
   5   7  -1   19.30    5.00
  -4  -7   1   55.09    7.20
  -4   7   1   65.49    6.80
   4   7  -1   54.29    7.10
  -3  -7   1  115.19    8.60
   3   7  -1   91.79    8.60
  -3   7   1  103.29    7.10
  -2  -7   1  198.28   11.10
   2   7  -1  176.68   10.10
  -2   7   1  182.08    9.40
  -1   7   1   55.39    5.80
   1   7  -1   59.29    6.50
   0   7  -1   37.70    5.10
   0   7   1   35.10    5.00
  -1   7  -1  296.37   13.10
   1   7   1  272.97   12.50
  -2  -7  -1   41.50    6.70
   2   7   1   49.30    6.60
  -2   7  -1   37.60    5.30
  -3  -7  -1  341.37   15.70
   3   7   1  326.67   15.50
  -3   7  -1  332.57   14.60
  -4  -7  -1   39.80    5.90
   4   7   1   43.40    7.00
   4   7   1   46.60    2.90
  -4   7  -1   39.20    5.60
  -5  -7  -1  303.67   14.90
  -5   7  -1  301.67   14.30
   5   7   1  322.27   16.70
  -6  -7  -1  245.78   13.60
  -6   7  -1  212.08   12.40
   6   7   1  263.67   15.00
  -7  -7  -1    6.00    3.60
  -7   7  -1    5.70    3.30
   7   7   1    4.80    3.80
  -8  -7  -1   62.39    8.90
  -8   7  -1   70.49    8.70
   8   7   1   51.89    8.80
   9  -7   1  282.47   15.70
  -9  -7  -1  282.67   16.70
   9   7   1  303.17   18.20
  10  -7   1  184.08   12.80
 -10  -7  -1  163.28   15.70
  10   7   1  177.18   16.00
 -11  -7  -1   40.70    8.50
  11   7   1   67.89   11.30
 -12  -7  -1    1.50    5.20
  12  -7   1    2.00    3.40
 -12   7  -1    5.20    4.70
  12   7   1    2.00    5.60
 -13  -7  -1   30.10    9.20
  13   7   1   38.60    9.40
 -13   7  -1   36.00    8.20
 -13  -8   1   12.80    7.00
  13   8  -1   26.10    8.40
 -13   8   1   16.00    7.00
 -12  -8   1  192.38   18.90
 -12   8   1  183.78   16.80
  12   8  -1  181.48   17.60
 -11  -8   1   16.70    6.70
 -11   8   1   36.00    7.40
 -11   8   1   29.70    9.80
  11   8  -1   41.00   10.00
 -10  -8   1  355.36   20.20
 -10   8   1  347.77   18.10
  10   8  -1  316.87   20.20
 -10   8   1  365.76   18.40
  -9  -8   1    5.60    4.60
  -9   8   1    5.30    3.70
   9   8  -1    1.60    4.50
  -8  -8   1  120.09   12.40
   8   8  -1  166.88   15.90
  -8   8   1  132.89   11.70
  -7  -8   1   17.60    5.60
   7   8  -1   11.00    5.20
  -7   8   1   19.70    4.70
  -6  -8   1   37.30    6.50
   6   8  -1   30.40    7.00
  -6   8   1   41.80    6.40
  -5  -8   1 1131.39   35.80
   5   8  -1 1138.49   37.60
  -5   8   1 1108.59   33.80
  -4  -8   1  569.34   22.00
  -4   8   1  541.35   19.90
   4   8  -1  532.05   21.90
  -3  -8   1  272.87   14.50
  -3   8   1  268.77   12.70
   3   8  -1  305.97   14.70
  -2  -8   1   50.79    7.00
  -2   8   1   65.69    6.90
   2   8  -1   60.79    7.30
   1   8  -1   88.99    8.30
  -1   8   1   72.49    7.20
   0   8   1    9.90    3.40
   0   8  -1    7.90    3.30
  -1   8  -1  186.98   10.70
   1   8   1  174.68   10.40
  -2   8  -1  128.49    9.00
   2   8   1  118.59   10.80
  -3  -8  -1  363.06   17.00
   3   8   1  335.77   16.60
  -3   8  -1  357.46   15.90
  -4  -8  -1  523.95   21.50
   4   8   1  518.95   22.30
  -4   8  -1  500.15   20.00
   4   8   1  504.85   14.10
  -5  -8  -1  164.78   11.50
  -5   8  -1  171.28   11.00
   5   8   1  156.08   14.30
  -6  -8  -1  254.27   14.60
  -6   8  -1  247.08   13.80
   6   8   1  262.37   15.70
  -7  -8  -1    3.30    3.10
   7   8   1    2.40    3.50
  -7   8  -1   13.20    4.70
  -8  -8  -1    5.90    4.10
   8   8   1   14.50    5.80
  -8   8  -1    9.40    4.30
  -9  -8  -1  805.42   31.70
  -9   8  -1  822.02   30.70
   9   8   1  795.52   33.10
 -10  -8  -1  193.78   17.70
 -10   8  -1  187.88   14.20
  10   8   1  173.78   17.50
 -11  -8  -1   62.79   10.80
 -11   8  -1   48.20    9.50
  11   8   1   37.50    9.30
 -12  -8  -1    8.60    5.90
 -12   8  -1    9.00    6.10
  12   8   1   19.70    7.00
 -12   8  -1    5.40    5.00
 -13  -8  -1   -1.20    6.00
 -13   8  -1    2.90    5.30
  13   8   1    3.60    6.90
 -13  -9   1    2.20    5.90
  13   9  -1    3.70    6.90
 -13   9   1    4.80    5.90
 -12  -9   1    5.80    5.90
 -12   9   1    6.30    5.60
  12   9  -1   12.70    7.30
 -11  -9   1    9.10    6.00
 -11   9   1    8.30    4.90
  11   9  -1   28.10    8.20
 -10  -9   1    9.60    5.60
 -10   9   1    2.40    4.10
  10   9  -1    8.60    6.20
 -10   9   1   -1.10    3.90
  -9  -9   1  270.07   17.40
  -9   9   1  247.58   14.70
   9   9  -1  250.67   17.70
  -8  -9   1  203.28   14.20
  -8   9   1  159.28   11.50
   8   9  -1  161.78   15.50
  -7  -9   1    3.20    3.80
   7   9  -1   -3.20    4.10
  -7   9   1   11.50    4.10
  -6  -9   1  577.04   24.30
  -6   9   1  582.54   22.40
   6   9  -1  603.94   26.40
  -5  -9   1  670.03   26.30
  -5   9   1  665.23   24.20
   5   9  -1  722.23   27.80
  -4  -9   1    0.10    2.60
   4   9  -1   -0.20    2.30
  -4   9   1    3.70    3.20
  -3  -9   1   17.30    4.80
   3   9  -1   24.50    5.60
  -3   9   1   31.20    5.50
  -2   9   1  290.37   13.60
   2   9  -1  276.37   14.30
   1   9  -1  162.38   10.50
  -1   9   1  136.09    9.20
   0   9   1  173.68   10.40
   0   9  -1  157.38   10.40
   1   9   1  103.79    9.90
  -1   9  -1   85.39    9.00
  -2   9  -1  347.67   16.10
   2   9   1  329.17   16.00
  -3  -9  -1   66.69    8.70
  -3   9  -1   78.49    8.70
   3   9   1   82.89    9.40
  -4  -9  -1   51.09    7.70
   4   9   1   65.39    4.10
  -4   9  -1   62.69    8.00
   4   9   1   63.49    9.10
  -5  -9  -1  398.66   19.40
   5   9   1  361.66   11.20
  -5   9  -1  377.96   17.50
   5   9   1  391.66   20.00
  -6  -9  -1   76.19   10.20
  -6   9  -1   72.89    9.10
   6   9   1   70.19   10.20
  -7  -9  -1   35.40    7.30
  -7   9  -1   39.00    7.10
   7   9   1   48.50    9.10
  -8  -9  -1  107.79   12.50
  -8   9  -1  119.19   12.00
   8   9   1  127.19   14.40
  -9  -9  -1   15.60    6.10
   9   9   1   15.50    6.30
  -9   9  -1   10.50    5.30
 -10  -9  -1    5.00    5.00
 -10   9  -1    3.80    5.00
  10   9   1   -1.40    4.80
 -11  -9  -1   18.00    6.80
  11   9   1    7.90    6.90
 -11   9  -1   11.30    6.80
 -12  -9  -1   55.39   11.50
 -12   9  -1   49.10    9.30
  12   9   1   47.80   10.80
 -12 -10   1   -1.10    5.20
  12  10  -1   10.10    8.30
 -12  10   1    3.60    4.90
 -11 -10   1   31.70    8.50
 -11  10   1   29.50    7.60
  11  10  -1   20.30    7.90
 -10 -10   1   -1.40    4.40
 -10  10   1    0.30    4.30
  10  10  -1    1.60    5.70
 -10  10   1   -3.20    3.40
  -9 -10   1    2.70    4.80
  -9  10   1   -1.90    3.30
   9  10  -1   -3.10    4.50
  -8 -10   1    0.10    3.80
  -8  10   1    1.90    3.60
   8  10  -1    4.40    5.40
  -7 -10   1  465.15   22.70
  -7  10   1  442.76   20.00
   7  10  -1  467.55   24.30
  -6 -10   1   58.89    9.00
  -6  10   1   66.59    8.60
   6  10  -1   73.09   10.90
  -5 -10   1   25.50    6.50
   5  10  -1   32.30    7.10
  -5  10   1   29.60    5.90
  -4 -10   1  273.27   16.00
   4  10  -1  273.77   16.00
  -4  10   1  270.77   14.20
  -3 -10   1   21.00    5.60
   3  10  -1    7.40    3.70
  -3  10   1    7.30    3.40
  -2  10   1  765.22   26.40
   2  10  -1  761.32   27.60
  -1  10   1  415.86   17.80
   1  10  -1  426.86   18.90
   0  10   1   52.59    7.60
   0  10  -1   59.09    8.00
   1  10   1    9.80    4.10
  -1  10  -1    2.60    3.10
   2  10   1  181.88   12.10
  -2  10  -1  198.88   12.40
  -3  10  -1   38.20    6.40
   3  10   1   32.00    6.40
  -4 -10  -1   51.69    8.50
  -4  10  -1   44.00    7.20
   4  10   1   42.60    8.10
   4  10   1   40.70    4.10
  -5 -10  -1  479.55   22.60
  -5  10  -1  487.45   21.20
   5  10   1  450.55   13.90
   5  10   1  482.85   23.20
  -6 -10  -1   37.50    7.90
   6  10   1   45.70    9.30
  -6  10  -1   36.40    7.30
  -7 -10  -1  102.39   12.20
   7  10   1  132.79   14.30
  -7  10  -1   86.29   10.20
  -8 -10  -1   54.79    9.10
   8  10   1   71.79   11.90
  -8  10  -1   74.89   10.10
  -9 -10  -1    8.00    5.50
   9  10   1    3.70    4.70
  -9  10  -1   -1.50    4.10
 -10 -10  -1   11.00    6.40
  10  10   1    9.70    7.70
 -10  10  -1   23.10    7.30
 -11 -10  -1  202.98   19.40
  11  10   1  231.18   22.50
 -11  10  -1  223.18   19.00
 -12 -10  -1   20.30    8.30
  12  10   1   19.30    7.70
 -12  10  -1    8.80    6.20
 -12 -11   1   13.20    6.50
  12  11  -1    8.60    8.40
 -12  11   1    4.90    5.60
 -11 -11   1   43.10   10.10
 -11  11   1   36.80    8.70
  11  11  -1   37.70   10.50
 -10 -11   1   22.20    7.70
 -10  11   1   24.20    7.40
 -10  11   1   21.40    6.80
  10  11  -1   32.40    9.30
  -9 -11   1   16.60    6.30
  -9  11   1   21.40    5.80
   9  11  -1   24.40    8.40
  -8 -11   1    0.80    4.50
   8  11  -1    6.80    5.30
  -8  11   1    1.30    3.40
  -7 -11   1    2.10    4.10
   7  11  -1    2.80    5.20
  -7  11   1   11.80    5.10
  -6 -11   1  181.98   16.80
   6  11  -1  146.49   15.40
  -6  11   1  166.18   11.80
  -5 -11   1  171.18   13.30
  -5  11   1  155.28   11.30
   5  11  -1  150.38   14.90
  -4 -11   1  215.68   14.70
   4  11  -1  224.28   14.90
  -4  11   1  233.68   13.60
  -3  11   1  703.43   26.20
   3  11  -1  749.03   28.70
   2  11  -1  716.43   27.60
  -2  11   1  705.63   26.10
  -1  11   1  611.54   23.80
   1  11  -1  612.24   24.70
   0  11   1   15.10    4.60
   0  11  -1   10.70    4.50
   1  11   1  206.38   13.50
  -1  11  -1  238.98   14.00
   2  11   1   62.39    8.60
  -2  11  -1   68.99    9.30
   3  11   1   69.09    9.40
  -3  11  -1   70.89    9.40
   4  11   1    3.00    2.20
  -4  11  -1   -0.20    3.40
   4  11   1    2.50    3.70
  -5 -11  -1  641.24   27.70
   5  11   1  673.03   29.00
  -5  11  -1  590.64   25.40
  -6 -11  -1   27.90    7.10
  -6  11  -1   30.30    6.40
   6  11   1   24.30    6.60
  -7 -11  -1    0.70    4.10
  -7  11  -1   11.20    5.10
   7  11   1    7.00    5.40
  -8 -11  -1   48.70    9.90
   8  11   1   59.29   11.00
  -8  11  -1   39.50    7.80
  -9 -11  -1   84.69   12.20
   9  11   1  116.29   15.30
  -9  11  -1  119.89   13.30
 -10 -11  -1  254.67   19.20
 -10  11  -1  264.87   18.10
  10  11   1  239.28   22.10
 -11 -11  -1    3.70    5.80
 -11  11  -1    4.20    6.10
  11  11   1    8.90    7.30
 -11 -12   1   33.00    9.20
  11  12  -1   41.60   11.10
 -11  12   1   35.90    8.50
 -10 -12   1   93.69   14.50
  10  12  -1  146.69   17.60
 -10  12   1  110.59   13.30
  -9 -12   1  645.74   31.10
   9  12  -1  675.23   32.90
  -9  12   1  650.33   27.60
  -8 -12   1   47.90    9.70
   8  12  -1   55.69   11.30
  -8  12   1   54.19    8.80
  -7 -12   1   56.49   10.30
  -7  12   1   37.90    7.30
   7  12  -1   45.30   10.30
  -6 -12   1    6.50    4.60
   6  12  -1   17.00    7.30
  -6  12   1    4.80    4.10
  -5 -12   1  125.39   13.90
   5  12  -1  141.99   14.50
  -5  12   1  126.09   12.40
   4  12  -1   60.39    9.50
  -4  12   1   65.49    9.10
   3  12  -1    9.50    4.30
  -3  12   1    5.50    4.10
   2  12  -1  260.37   16.00
  -2  12   1  239.38   14.60
  -1  12   1   19.10    5.70
   1  12  -1   18.20    5.90
   0  12  -1   98.99   10.80
   0  12   1   86.89   10.20
  -1  12  -1    3.20    3.70
   1  12   1    3.80    4.10
   2  12   1   89.69   10.90
  -2  12  -1  116.89   12.20
   3  12   1   56.69    9.30
  -3  12  -1   49.60    8.20
  -4  12  -1  140.69   13.80
   4  12   1  156.78   14.90
   4  12   1  147.39    8.00
  -5 -12  -1  113.89   12.90
  -5  12  -1  131.29   13.90
   5  12   1   97.49   12.70
  -6 -12  -1   27.50    7.30
   6  12   1   28.50    7.30
  -6  12  -1   29.00    7.50
  -7 -12  -1   22.30    7.40
  -7  12  -1    9.40    5.00
   7  12   1   21.60    8.00
  -8 -12  -1    0.90    5.60
   8  12   1    2.00    5.30
  -8  12  -1    5.50    5.30
  -9 -12  -1   13.10    6.60
  -9  12  -1   23.50    7.70
   9  12   1   15.40    7.40
 -10 -12  -1   10.20    6.80
  10  12   1   16.00    7.80
 -10  12  -1   24.20    7.90
 -11 -12  -1    1.50    6.30
 -11  12  -1    9.70    7.50
  11  12   1    8.40    7.50
 -11 -13   1    7.30    7.30
 -11  13   1   -5.90    4.80
  11  13  -1   14.70    9.40
 -10 -13   1   25.00    8.00
  10  13  -1   22.50    9.00
 -10  13   1   28.10    7.80
  -9 -13   1   80.19   13.40
  -9  13   1   54.79    9.90
   9  13  -1  114.59   16.80
  -8 -13   1  365.96   23.40
  -8  13   1  329.27   19.20
   8  13  -1  388.46   24.70
  -7 -13   1   27.20    7.70
   7  13  -1   51.19   11.00
  -7  13   1   51.69    8.80
  -6 -13   1   42.20    8.80
   6  13  -1   35.20    8.90
  -6  13   1   26.20    7.00
  -5 -13   1    9.70    5.40
   5  13  -1    2.30    5.20
  -5  13   1    5.30    4.40
  -4  13   1   24.90    6.60
   4  13  -1   28.70    7.60
   3  13  -1  315.37   18.90
  -3  13   1  305.17   17.40
  -2  13   1  195.48   13.70
   2  13  -1  224.28   15.70
   1  13  -1    4.70    4.20
  -1  13   1   16.40    5.40
   0  13   1  286.47   17.00
   0  13  -1  305.27   17.90
  -1  13  -1    8.00    4.70
   1  13   1   14.50    5.50
   2  13   1   12.20    5.60
  -2  13  -1   10.60    5.10
   3  13   1  110.69   13.20
  -3  13  -1  104.69   12.40
   4  13   1  117.59    8.00
  -4  13  -1  121.09   13.10
   4  13   1  128.79   14.50
  -5  13  -1   28.50    7.40
   5  13   1   17.90    6.80
  -6 -13  -1  143.79   16.10
  -6  13  -1  148.29   15.00
   6  13   1  173.78   18.40
  -7 -13  -1   79.19   12.80
  -7  13  -1   75.89   11.50
   7  13   1   81.09   13.50
  -8 -13  -1    1.10    5.20
  -8  13  -1   10.30    5.60
   8  13   1   -0.20    5.40
  -9 -13  -1   16.40    8.00
  -9  13  -1    5.50    6.00
   9  13   1   -3.20    6.20
 -10 -13  -1   46.80   11.30
 -10  13  -1   69.59   11.30
  10  13   1   54.79   12.00
 -10 -14   1   12.60    8.50
 -10  14   1   15.40    6.60
  10  14  -1    4.50    7.60
  -9 -14   1   82.89   13.90
  -9  14   1   79.79   12.10
  -9  14   1   81.59   12.20
   9  14  -1   66.89   13.00
  -8 -14   1  237.48   22.80
   8  14  -1  273.27   25.20
  -8  14   1  251.47   17.50
  -7 -14   1   -2.40    5.50
   7  14  -1   14.20    7.40
  -7  14   1    5.70    5.60
  -6 -14   1    3.80    5.00
   6  14  -1   19.30    8.20
  -6  14   1    4.40    4.90
   5  14  -1    0.90    5.70
  -5  14   1    1.60    4.10
   4  14  -1  204.78   19.10
  -4  14   1  225.38   15.80
  -3  14   1  129.59   13.30
   3  14  -1  111.89   13.40
   2  14  -1  788.72   32.80
  -2  14   1  807.02   31.80
  -1  14   1    5.80    4.50
   1  14  -1   20.70    7.00
   0  14  -1   36.90    8.00
   0  14   1   26.40    6.60
  -1  14  -1   74.39   10.80
   1  14   1   52.29    8.90
  -2  14  -1   62.49    9.90
   2  14   1   73.49   11.20
   3  14   1   51.69    9.60
  -3  14  -1   56.99    9.80
  -4  14  -1    0.60    4.70
   4  14   1   15.50    6.20
   5  14   1  159.78   17.60
  -5  14  -1  143.29   15.10
   6  14   1  608.84   31.00
  -6  14  -1  625.74   28.20
  -7 -14  -1   10.70    7.20
  -7  14  -1    9.60    5.70
   7  14   1    4.30    6.60
  -8 -14  -1   23.30    9.20
  -8  14  -1   22.70    7.60
   8  14   1   24.30    9.30
  -9 -14  -1   -0.20    5.70
  -9  14  -1    5.70    6.60
   9  14   1   26.30    9.50
 -10 -14  -1   37.30   10.50
  10  14   1   29.90   10.80
 -10  14  -1   34.50    9.80
  -9 -15   1   14.70    9.20
   9  15  -1   14.90    9.40
  -9  15   1   17.80    7.30
  -9  15   1   18.20    7.80
  -8 -15   1   41.20   10.50
  -8  15   1   69.89   11.50
   8  15  -1   70.09   14.60
  -7 -15   1    9.70    7.10
  -7  15   1    5.80    6.00
   7  15  -1   13.20    9.20
   6  15  -1   -4.40    4.70
  -6  15   1    7.10    5.20
   5  15  -1   19.90    8.30
  -5  15   1   29.40    7.90
  -4  15   1   14.30    6.40
   4  15  -1   19.20    8.50
   3  15  -1  262.77   19.00
  -3  15   1  296.47   18.40
  -2  15   1  135.29   14.70
   2  15  -1  135.69   15.20
   1  15  -1   11.80    6.10
  -1  15   1   -0.30    4.30
   0  15   1   17.60    6.50
   0  15  -1   24.20    7.10
  -1  15  -1   43.90    9.30
   1  15   1   47.40    9.50
   2  15   1    4.80    5.60
  -2  15  -1   -3.20    4.80
  -3  15  -1   33.40    8.20
   3  15   1   30.60    5.80
   3  15   1   35.60    9.30
  -4  15  -1   38.10    8.70
   4  15   1   24.80    8.00
   5  15   1    7.20    6.70
  -5  15  -1    2.40    5.80
  -6  15  -1   46.80    9.80
   6  15   1   74.39   13.20
  -7  15  -1   53.89   10.50
   7  15   1   23.90    9.90
  -8 -15  -1   15.70    8.10
  -8  15  -1   10.10    7.40
   8  15   1    3.80    7.50
  -9 -15  -1    7.90    7.80
   9  15   1    1.10    7.40
  -9  15  -1    1.80    5.90
   8  16  -1    8.10    9.60
  -8  16   1    1.50    5.50
  -8  16   1    8.40    7.00
   7  16  -1   44.40   12.90
  -7  16   1   40.30   10.00
   6  16  -1   18.40    9.10
  -6  16   1   16.40    7.20
   5  16  -1   23.10    9.80
  -5  16   1   23.20    8.00
   4  16  -1  166.98   19.50
  -4  16   1  145.69   15.90
   3  16  -1   47.70   11.00
  -3  16   1   40.40    9.70
   2  16  -1   24.40    8.30
  -2  16   1   23.00    7.50
  -1  16   1   52.69   10.20
   1  16  -1   50.99   11.20
   0  16   1  239.28   21.10
   0  16  -1  251.47   18.60
  -1  16  -1   32.10    8.50
   1  16   1   40.40    9.50
  -2  16  -1   24.90    8.20
   2  16   1   40.70    9.50
  -3  16  -1    8.10    6.60
   3  16   1    0.60    5.40
   4  16   1  545.15   29.50
  -4  16  -1  552.24   28.20
  -5  16  -1  141.49   16.10
   5  16   1  140.09   17.30
  -6  16  -1   16.80    7.80
   6  16   1   39.30   11.40
   7  16   1   45.70   11.20
  -7  16  -1   32.70    9.30
  -8  16  -1   50.69   10.80
   8  16   1   65.39   14.80
  -7  17   1   42.00   10.30
   7  17  -1   16.40   11.00
   6  17  -1   22.90    9.20
  -6  17   1   26.70    8.80
   5  17  -1   79.89   15.50
  -5  17   1   67.89   11.90
   4  17  -1   -6.20    5.40
  -4  17   1   16.40    7.50
  -3  17   1   66.39   12.50
   3  17  -1   35.70   11.50
   2  17  -1    7.30    7.00
  -2  17   1   12.90    6.80
  -1  17   1  242.08   21.70
   1  17  -1  236.98   21.40
   0  17   1    6.30    6.70
   0  17  -1    1.30    5.40
   1  17   1    2.60    6.50
  -1  17  -1   12.50    7.50
  -2  17  -1   21.40    8.40
   2  17   1   23.00    6.10
   2  17   1   17.50    8.40
   3  17   1   77.69   13.60
  -3  17  -1   86.19   13.70
  -4  17  -1   31.80    9.50
   4  17   1   29.20   10.40
   5  17   1  183.08   21.50
  -5  17  -1  181.68   19.20
   6  17   1   14.90    9.80
  -6  17  -1   18.40    8.40
   7  17   1    8.10    8.50
  -7  17  -1   11.40    8.10
  -6  18   1   18.20    8.50
   6  18  -1   27.20   11.20
   5  18  -1    1.30    8.90
  -5  18   1   -6.90    5.80
  -4  18   1    5.80    7.50
   4  18  -1   15.50    9.00
   3  18  -1   25.50    9.40
  -3  18   1   19.80    8.30
  -2  18   1    6.10    7.00
   2  18  -1    0.10    7.10
   1  18  -1    2.20    7.90
  -1  18   1    4.20    6.20
   0  18  -1    1.10    5.90
   0  18   1   10.20    7.00
   1  18   1   18.80    6.40
   1  18   1   50.99   12.20
  -1  18  -1   29.10    9.50
   2  18   1   -4.50    6.20
  -2  18  -1   -2.00    6.10
  -3  18  -1   28.30    9.30
   3  18   1   19.40    9.50
  -4  18  -1   -8.60    6.00
   4  18   1    2.20    8.00
   5  18   1   -0.10    7.00
  -5  18  -1    4.10    7.00
   6  18   1   16.70   10.00
  -6  18  -1   23.20    9.90
  -4  19   1   26.40    9.70
   4  19  -1   10.00    9.70
   3  19  -1  120.19   18.70
  -3  19   1  134.29   17.60
  -2  19   1   21.50    9.80
   2  19  -1   18.00   10.60
   1  19  -1   71.89   15.50
  -1  19   1   53.39   12.30
  -1  19   1   61.69   10.20
   0  19  -1   12.70    8.30
   0  19   1   15.40    9.30
   0  19   1    7.60    6.00
   1  19   1   92.69   15.80
  -1  19  -1  123.29   17.90
  -2  19  -1    5.90    7.40
   2  19   1    2.90    8.50
   3  19   1  348.57   26.40
  -3  19  -1  344.57   25.10
  -4  19  -1    4.40    7.00
   4  19   1   15.80   10.50
 -14   0   2    0.10    4.30
 -13   0   2    2.10    4.10
  12   0  -2   93.89    9.30
 -12   0   2   80.09   11.10
 -11   0   2    5.30    4.50
  11   0  -2   -0.40    2.30
 -10   0   2  116.19    8.40
  10   0  -2  106.59    7.70
 -10   0   2   99.39   10.60
   9   0  -2    0.80    2.10
  -9   0   2    1.60    2.90
  -9   0   2    2.30    2.20
  -8   0   2  108.29    7.20
  -8   0   2  100.29    9.70
   8   0  -2  117.49    6.70
  -7   0   2    1.90    1.90
  -7   0   2    0.70    2.00
   7   0  -2    0.70    1.40
  -6   0   2  598.64   19.70
  -6   0   2  565.34   17.90
   6   0  -2  592.74   17.00
  -5   0   2    1.30    1.50
   5   0  -2    0.70    1.10
   4   0  -2   33.70    2.40
  -3   0   2    2.00    1.40
   3   0  -2    1.10    0.80
   2   0  -2  160.08    4.40
  -2   0   2  153.58    6.00
  -1   0   2    5.50    1.30
   0   0   2  328.27    8.90
   0   0   2  329.37    8.50
   1   0   2    5.00    1.30
  -1   0  -2    4.30    0.70
   2   0   2  679.73   17.70
  -2   0  -2  651.13   16.40
   2   0   2  658.43   16.80
  -3   0  -2    2.20    1.10
   3   0   2    0.80    1.20
  -4   0  -2 3517.65   79.59
   4   0   2 3403.56   80.19
   5   0   2    1.40    1.50
  -5   0  -2    1.70    1.30
  -6   0  -2 1501.35   39.40
   6   0   2 1495.95   39.70
  -7   0  -2    0.60    1.80
   7   0   2    0.00    1.70
   8   0   2  541.25   19.80
  -8   0  -2  539.05   20.10
   9   0   2    0.50    2.00
  -9   0  -2   -0.20    2.30
  10   0   2   82.49    9.30
 -10   0  -2  109.19   10.90
  11   0   2    3.80    3.50
 -11   0  -2    0.70    3.20
 -12   0  -2  110.29   12.70
  12   0   2  106.59   11.70
  13   0   2   -7.30    3.50
 -13   0  -2   -2.20    4.50
  14   0   2   86.29   11.70
 -14   0  -2  116.99   14.60
 -14  -1   2    8.30    5.80
 -14   1   2   14.50    6.50
 -13  -1   2   27.50    7.20
 -13   1   2   19.20    6.80
 -12  -1   2  173.08   13.60
  12  -1  -2  170.48   11.10
 -12   1   2  176.88   13.70
  12   1  -2  170.18   11.00
 -11  -1   2  360.96   18.90
  11  -1  -2  368.66   15.80
 -11   1   2  378.26   17.00
  11   1  -2  358.46   15.80
 -11   1   2  366.86   19.10
 -10  -1   2  356.36   14.50
 -10  -1   2  373.56   18.10
  10  -1  -2  378.96   14.90
 -10   1   2  343.97   15.70
 -10   1   2  384.36   18.20
  10   1  -2  342.97   14.80
   9  -1  -2  502.15   17.20
  -9  -1   2  494.25   17.10
  -9  -1   2  481.55   20.20
  -9   1   2  516.95   20.70
   9   1  -2  485.95   17.50
  -9   1   2  493.65   18.40
   8  -1  -2  109.59    6.60
  -8  -1   2  122.39    8.80
  -8  -1   2  116.39    7.00
  -8   1   2  103.59    7.20
   8   1  -2  123.49    7.20
   7  -1  -2  321.47   11.40
  -7  -1   2  337.67   14.30
  -7  -1   2  311.87   11.70
  -7   1   2  311.27   12.50
   7   1  -2  312.67   11.90
   6  -1  -2  182.58    7.40
  -6  -1   2  180.98    7.90
  -6  -1   2  177.38    9.40
   6   1  -2  181.88    7.90
  -6   1   2  176.38    8.40
  -5  -1   2  197.18    7.90
  -5  -1   2  198.78    9.20
   5  -1  -2  194.98    7.00
   5   1  -2  195.98    7.80
  -5   1   2  186.38    8.20
  -4  -1   2    9.50    1.90
   4  -1  -2   11.10    1.60
  -4  -1   2    7.60    2.10
   4   1  -2    8.60    1.80
  -4   1   2    7.40    1.80
  -3  -1   2  160.58    6.00
  -3  -1   2  162.28    6.80
   3  -1  -2  162.28    4.90
   3   1  -2  164.98    6.30
  -3   1   2  172.18    6.80
  -2  -1   2  283.87    8.40
  -2  -1   2  275.27    8.90
  -2   1   2  295.17    9.60
   2   1  -2  291.47    8.50
  -1  -1   2  303.17    8.10
   1   1  -2  250.17    7.70
  -1   1   2  276.47    6.90
  -1   1   2  282.67    8.80
   0  -1   2   23.50    1.20
   0  -1   2   24.50    1.90
   0  -1   2   23.70    2.10
   0   1   2   23.40    1.60
   0   1   2   26.30    2.00
  -1  -1  -2  119.59    4.70
   1  -1   2  128.39    5.00
   1  -1   2  128.19    4.80
   1   1   2  128.79    4.90
   1   1   2  124.59    4.20
   2  -1   2    4.30    1.20
  -2  -1  -2    6.50    1.30
   2  -1   2    5.30    1.40
   2   1   2    6.50    1.60
   2   1   2    6.20    1.20
   3  -1   2 3173.88   73.49
  -3  -1  -2 3162.48   72.89
   3   1   2 3159.98   73.99
   3   1   2 3295.67   71.39
   4  -1   2   19.00    2.90
  -4  -1  -2   17.70    2.80
   4   1   2   22.80    3.50
   5  -1   2  109.89    6.40
  -5  -1  -2  110.89    6.40
  -5   1  -2  107.59    6.20
   5   1   2  114.69    6.80
   6  -1   2   11.80    3.40
  -6  -1  -2   17.60    3.50
   6   1   2   19.30    3.80
  -6   1  -2   18.20    3.50
  -7  -1  -2  167.98    9.40
   7  -1   2  138.99    8.50
   7   1   2  165.68    9.40
  -7   1  -2  161.28    9.20
  -8  -1  -2   52.89    6.90
   8  -1   2   51.29    6.40
  -8   1  -2   64.39    7.40
   8   1   2   52.39    6.40
  -9  -1  -2   79.49    5.50
  -9  -1  -2   89.99    9.50
   9  -1   2   90.19    8.80
   9   1   2   98.89    9.30
  -9   1  -2   93.89    9.40
  10  -1   2  254.57   14.10
 -10  -1  -2  307.17   16.00
  10   1   2  299.97   15.20
 -10   1  -2  260.17   14.70
  11  -1   2   70.09    9.00
 -11  -1  -2   98.69   11.40
 -11   1  -2   79.99   10.00
  11   1   2   70.79    9.10
  12  -1   2   27.70    6.20
 -12  -1  -2   33.50    7.90
  12   1   2   21.20    5.90
 -12   1  -2   28.90    6.80
  13  -1   2    2.90    4.80
 -13  -1  -2   12.20    6.10
  13   1   2    8.30    5.10
 -13   1  -2   -1.30    4.70
  14  -1   2   19.10    6.30
 -14  -1  -2   40.90   10.00
 -14   1  -2   30.40    8.70
  14   1   2   33.80    8.30
 -14  -2   2    4.30    5.90
 -14   2   2    0.20    5.50
 -13  -2   2   23.70    7.10
  13   2  -2   16.60    5.40
 -13   2   2   21.90    7.00
 -12  -2   2   21.60    6.70
  12  -2  -2   19.10    5.50
  12   2  -2   14.00    4.80
 -12   2   2   11.20    5.30
 -11  -2   2  586.14   25.50
  11  -2  -2  605.14   21.70
  11   2  -2  609.14   22.40
 -11   2   2  627.64   25.70
 -11   2   2  612.54   23.40
  10  -2  -2   30.10    4.90
 -10  -2   2   23.00    5.30
 -10   2   2   24.80    5.30
  10   2  -2   31.70    5.40
 -10   2   2   26.80    6.10
  -9  -2   2    4.80    2.30
  -9  -2   2    2.10    2.50
   9  -2  -2    3.90    2.50
  -9   2   2    2.60    2.90
   9   2  -2    5.50    2.60
  -8  -2   2   17.00    3.00
   8  -2  -2   17.80    3.30
  -8  -2   2   14.30    4.10
  -8   2   2   11.30    3.30
   8   2  -2   12.20    3.10
  -7  -2   2 1460.25   39.80
  -7  -2   2 1376.56   34.80
   7  -2  -2 1389.76   35.60
  -7   2   2 1371.66   37.40
   7   2  -2 1384.26   36.80
   6  -2  -2    9.80    2.10
  -6  -2   2   13.10    2.30
  -6  -2   2   21.20    4.00
   6   2  -2   11.90    2.80
  -6   2   2   11.70    2.80
  -5  -2   2  383.86   11.50
   5  -2  -2  382.76   11.60
  -5  -2   2  397.46   14.30
   5   2  -2  387.36   13.30
  -5   2   2  393.16   13.30
  -4  -2   2 1891.91   46.10
   4  -2  -2 1823.72   43.10
  -4  -2   2 1873.91   43.20
  -4   2   2 1879.41   45.30
   4   2  -2 1846.82   45.70
  -3  -2   2  209.48    8.00
   3  -2  -2  200.78    6.50
  -3  -2   2  198.08    6.50
  -3   2   2  215.78    8.10
   3   2  -2  195.88    8.10
  -2  -2   2  139.99    5.00
  -2  -2   2  147.69    5.90
  -2   2   2  145.09    4.60
  -2   2   2  152.18    6.20
  -1  -2   2   66.19    3.40
  -1  -2   2   84.79    3.70
   1   2  -2   93.49    4.30
  -1   2   2   81.69    4.20
  -1   2   2   93.19    3.60
   0  -2   2  281.27    8.40
   0  -2   2  255.77    7.90
   0   2   2  278.67    8.60
   0   2  -2  276.37    9.00
   0   2   2  217.18    8.00
   1  -2   2   39.80    3.10
   1  -2   2   43.30    3.10
  -1  -2  -2   41.30    3.40
   1   2   2   47.80    2.80
   1   2   2   44.80    3.40
   2  -2   2  745.43   19.40
  -2  -2  -2  699.93   19.20
   2   2   2  696.03   17.00
   2   2   2  727.63   19.90
  -3  -2  -2   85.39    4.80
   3  -2   2   81.89    4.90
   3   2   2   80.79    5.40
   3   2   2   81.79    3.20
  -4  -2  -2   21.50    3.30
   4  -2   2   22.50    3.20
   4   2   2   22.10    3.50
  -5  -2  -2   13.50    2.90
   5  -2   2   12.40    2.80
   5   2   2   14.20    3.10
   6  -2   2  273.77   11.70
  -6  -2  -2  271.37   11.80
   6   2   2  271.77   12.30
  -7  -2  -2  421.76   16.50
   7  -2   2  425.76   16.20
   7   2   2  420.86   16.90
  -8  -2  -2  101.09    5.30
   8  -2   2  112.69    8.30
  -8  -2  -2  117.79    8.70
   8   2   2  116.79   10.30
  -8   2  -2  117.09    8.30
  -9  -2  -2  309.77   15.20
   9  -2   2  261.37   13.50
  -9   2  -2  248.68   13.60
   9   2   2  283.97   14.40
 -10  -2  -2  553.54   22.90
  10  -2   2  491.45   20.90
 -10   2  -2  540.05   22.30
  10   2   2  554.04   22.20
  11  -2   2  128.89   12.20
 -11  -2  -2  129.49   12.90
 -11   2  -2  113.19   11.70
  11   2   2  141.79   12.70
 -12  -2  -2   43.10    8.70
  12  -2   2   39.70    7.50
 -12   2  -2   40.10    8.20
  12   2   2   40.70    7.80
 -13  -2  -2   55.69   10.20
  13  -2   2   68.59   10.10
  13   2   2   46.00    8.60
 -13   2  -2   78.79   11.20
  14  -2   2    0.70    4.80
 -14  -2  -2    5.80    6.50
 -14   2  -2    6.60    6.20
  14   2   2    4.50    5.40
 -14  -3   2  147.29   16.50
 -14   3   2  159.78   17.30
 -13  -3   2    8.10    5.50
 -13   3   2    3.30    5.00
  13   3  -2    2.00    3.80
 -12  -3   2   43.10    8.60
  12   3  -2   40.30    6.80
 -12   3   2   46.90    8.00
 -12   3   2   40.30    7.90
 -11  -3   2    6.50    4.40
  11  -3  -2    3.70    3.30
 -11   3   2    8.80    4.40
  11   3  -2    9.80    4.00
 -10  -3   2    7.30    4.20
  10  -3  -2   10.80    3.70
  10   3  -2   15.70    4.20
 -10   3   2   16.80    4.60
   9  -3  -2  215.38   10.40
  -9  -3   2  189.08   12.00
  -9  -3   2  183.48    7.70
  -9   3   2  190.58   11.00
   9   3  -2  212.58   11.20
  -8  -3   2  551.74   16.20
  -8  -3   2  582.84   21.80
   8  -3  -2  565.34   18.40
  -8   3   2  587.74   20.20
  -7  -3   2  285.97    9.40
   7  -3  -2  292.37   11.10
  -7  -3   2  283.97   13.50
  -7   3   2  273.17   12.10
  -6  -3   2   57.09    3.40
  -6  -3   2   55.09    6.40
   6  -3  -2   64.49    4.50
  -6   3   2   44.10    5.10
   5  -3  -2  486.55   14.80
  -5  -3   2  496.75   17.00
  -5  -3   2  514.85   13.50
  -5   3   2  490.15   16.10
  -4  -3   2 1160.98   27.50
  -4  -3   2 1179.98   31.20
  -4   3   2 1139.49   30.30
  -3  -3   2  834.32   20.50
  -3  -3   2  840.02   23.10
  -3   3   2  833.22   22.60
  -3   3   2  823.92   21.30
   3   3  -2  875.71   23.90
  -2  -3   2   27.90    3.30
  -2  -3   2   24.60    2.50
   2   3  -2   24.00    3.10
  -2   3   2   26.10    2.50
  -2   3   2   21.40    2.80
  -1  -3   2  628.24   16.30
  -1  -3   2  637.64   17.10
  -1   3   2  622.74   16.80
  -1   3   2  598.84   16.20
   1   3  -2  593.74   17.20
   0  -3   2   59.99    3.50
   0   3   2   63.19    4.10
   0   3  -2   57.19    4.30
   0   3   2   44.40    3.10
   1  -3   2  762.22   19.60
   1   3   2  704.23   18.60
  -1   3  -2  728.03   20.50
   1   3   2  700.33   20.40
   2  -3   2  138.49    6.70
  -2  -3  -2  118.09    6.40
   2   3   2  121.19    6.70
   2   3   2  135.59    4.80
   3  -3   2  179.48    8.00
  -3  -3  -2  186.38    8.30
   3   3   2  179.48    5.20
   3   3   2  190.48    8.90
   4  -3   2   14.50    3.10
  -4  -3  -2   14.20    3.00
   4   3   2   11.90    3.20
  -5  -3  -2  441.26   15.50
   5  -3   2  431.26   15.30
   5   3   2  421.26   16.30
  -6  -3  -2   16.50    3.90
   6  -3   2   12.40    3.00
   6   3   2   14.40    3.70
  -7  -3  -2  462.75   18.30
   7  -3   2  507.25   18.20
   7   3   2  493.35   19.10
  -8  -3  -2  698.03   24.50
   8  -3   2  653.23   23.20
   8   3   2  680.93   24.50
  -9  -3  -2   57.89    7.80
   9  -3   2   57.49    7.40
  -9   3  -2   66.19    8.20
   9   3   2   66.89    8.20
 -10  -3  -2  498.15   21.70
  10  -3   2  467.65   20.20
 -10   3  -2  471.85   20.70
  10   3   2  466.65   20.90
 -11  -3  -2  289.37   17.20
  11  -3   2  318.97   16.70
 -11   3  -2  283.07   16.50
  11   3   2  315.17   17.20
 -12  -3  -2   24.10    7.00
  12  -3   2   27.70    6.50
 -12   3  -2   24.20    6.60
  12   3   2   22.70    6.30
  13  -3   2   72.29   10.40
 -13  -3  -2   58.29   10.60
  13   3   2   49.20    9.20
 -13   3  -2   59.39   10.00
 -14  -4   2  169.78   18.10
 -14   4   2  185.08   18.20
 -13  -4   2  214.68   16.80
  13   4  -2  211.38   14.30
 -13   4   2  209.68   16.10
 -12  -4   2    5.20    4.80
  12   4  -2    6.10    3.90
 -12   4   2    6.80    5.00
 -11  -4   2   12.10    5.30
  11  -4  -2    5.80    3.60
  11   4  -2   -0.50    2.30
 -11   4   2   17.00    4.80
 -10  -4   2    5.20    4.00
  10  -4  -2    2.90    2.60
  10   4  -2   -0.70    1.70
 -10   4   2    6.70    3.70
  -9  -4   2   68.59    8.60
   9  -4  -2   73.59    7.10
  -9   4   2   79.09    8.40
  -8  -4   2   80.19    8.60
  -8  -4   2   87.79    4.30
   8  -4  -2   90.79    6.50
   8   4  -2  111.59    8.20
  -8   4   2   79.29    7.80
  -7  -4   2  303.67   14.00
   7  -4  -2  273.47   11.40
  -7  -4   2  270.67    8.60
  -7   4   2  305.37   12.90
   7   4  -2  288.07   13.50
  -6  -4   2  111.49    7.70
  -6  -4   2  104.99    4.40
   6  -4  -2  101.79    6.20
   6   4  -2  115.09    8.00
  -6   4   2  124.29    7.40
  -5  -4   2 1024.60   24.20
  -5  -4   2 1018.00   29.30
  -5   4   2 1022.90   28.20
   5   4  -2  994.10   30.30
  -5   4   2  950.40   26.70
  -4  -4   2 1167.18   27.50
  -4  -4   2 1140.99   31.40
  -4   4   2 1169.48   30.70
   4   4  -2 1207.78   33.10
  -4   4   2 1068.79   29.30
  -3  -4   2  122.49    6.60
  -3  -4   2  118.89    4.90
  -3   4   2  111.89    6.10
   3   4  -2  126.39    7.20
  -3   4   2  119.59    5.70
  -2  -4   2  931.01   24.70
  -2  -4   2  894.71   22.50
   2   4  -2  885.91   24.80
  -2   4   2  915.21   23.90
  -2   4   2  853.81   22.90
  -1  -4   2    5.40    2.30
  -1  -4   2    2.80    1.50
   1   4  -2    0.10    1.90
  -1   4   2    1.60    1.50
  -1   4   2    2.10    1.60
   0  -4   2   90.89    4.70
   0   4   2   81.79    5.20
   0   4   2   73.69    4.10
   0   4  -2   82.09    5.60
  -1   4  -2 1429.16   38.20
   1   4   2 1500.85   38.70
   1   4   2 1549.45   35.70
  -2  -4  -2  652.93   20.60
   2   4   2  670.23   20.90
   2   4   2  667.13   17.30
  -2   4  -2  657.93   20.20
   3  -4   2  517.05   16.70
  -3  -4  -2  496.35   16.70
   3   4   2  464.45   17.20
   3   4   2  500.45   12.40
   4  -4   2  164.08    8.50
  -4  -4  -2  181.68    9.00
   4   4   2  173.58    9.80
  -5  -4  -2    2.90    2.10
   5  -4   2   -0.30    1.50
   5   4   2    0.10    2.10
  -6  -4  -2    4.30    2.50
   6  -4   2    6.10    2.40
   6   4   2    6.80    3.50
  -7  -4  -2  611.14   22.30
   7  -4   2  616.44   21.60
   7   4   2  642.14   23.20
  -8  -4  -2   48.60    6.90
   8  -4   2   43.60    6.00
   8   4   2   41.80    6.90
  -9  -4  -2   28.50    6.00
   9  -4   2   21.10    5.20
   9   4   2   20.30    5.30
 -10  -4  -2   66.19    9.10
  10  -4   2   65.99    8.50
  10   4   2   76.19   10.20
 -10   4  -2   59.79    8.50
 -11  -4  -2    7.20    4.50
  11  -4   2    2.50    3.10
  11   4   2    1.60    3.90
 -11   4  -2    2.30    4.10
 -12  -4  -2   50.59    9.40
  12  -4   2   50.79    8.30
  12   4   2   56.49    9.80
 -12   4  -2   44.30    8.30
 -13  -4  -2   18.20    7.20
  13  -4   2    9.90    6.00
  13   4   2    7.70    5.40
 -13   4  -2   14.40    6.50
 -14  -5   2  201.38   20.10
 -14   5   2  182.78   17.90
 -13  -5   2  223.38   17.60
 -13   5   2  231.18   17.30
 -13   5   2  243.98   16.50
 -12  -5   2   90.29   12.00
 -12   5   2   81.59   10.30
  11  -5  -2    3.30    3.50
 -11  -5   2    1.10    4.00
 -11   5   2   -1.40    3.10
  11   5  -2    1.40    3.30
  10  -5  -2   44.80    6.30
 -10  -5   2   52.99    8.20
 -10   5   2   45.00    7.10
  10   5  -2   59.79    8.30
  -9  -5   2  100.49   10.70
   9  -5  -2   96.69    8.60
   9   5  -2   85.59    9.60
  -9   5   2   91.59    9.20
   8  -5  -2   57.19    6.30
  -8  -5   2   62.99    8.40
  -8   5   2   78.09    7.90
   8   5  -2   79.89    9.10
  -7  -5   2   37.60    6.30
  -7  -5   2   29.50    2.20
  -7   5   2   24.00    4.40
  -7   5   2   27.00    4.20
   7   5  -2   26.90    5.50
  -6  -5   2   53.69    3.00
  -6  -5   2   68.59    7.60
  -6   5   2   58.19    5.90
   6   5  -2   54.89    7.70
  -6   5   2   50.39    5.80
  -5  -5   2    2.50    2.30
  -5  -5   2   10.90    1.70
  -5   5   2    5.90    2.20
   5   5  -2    0.00    2.40
  -4  -5   2  353.86   10.30
  -4  -5   2  357.86   14.00
   4   5  -2  325.87   14.50
  -4   5   2  358.46   12.50
  -3  -5   2  304.17   12.10
  -3  -5   2  294.17    9.30
   3   5  -2  281.07   12.30
  -3   5   2  282.37   10.50
  -2  -5   2    3.60    1.50
  -2  -5   2    3.90    1.90
  -2   5   2    2.10    1.50
   2   5  -2    5.30    2.30
  -1  -5   2  258.27   11.10
  -1  -5   2  277.07    9.30
  -1   5   2  245.78    9.70
   1   5  -2  240.58   10.50
   0   5   2 2430.36   56.19
   0   5  -2 2407.66   59.19
   0   5   2 2388.16   57.99
   1   5   2 3102.39   73.89
   1   5   2 3106.79   70.09
  -1   5  -2 3008.70   73.89
  -2  -5  -2  330.87   13.80
  -2   5  -2  332.47   13.40
   2   5   2  347.87   14.30
   2   5   2  340.17   10.40
  -3  -5  -2  165.18    9.20
   3   5   2  163.38    6.00
  -3   5  -2  157.58    8.90
   3   5   2  168.98   10.00
   4  -5   2   11.80    3.40
  -4  -5  -2   12.80    3.50
   4   5   2    5.60    3.40
  -5  -5  -2   59.69    6.50
   5  -5   2   78.19    7.50
   5   5   2   51.59    6.60
   6  -5   2  221.98   11.40
  -6  -5  -2  241.58   12.20
   6   5   2  221.58   12.90
   7  -5   2   31.80    5.60
  -7  -5  -2   38.70    6.20
   7   5   2   28.20    5.70
  -8  -5  -2  110.09   10.60
   8  -5   2   81.49    8.80
   8   5   2   93.99   10.20
  -9  -5  -2  176.08   12.20
   9  -5   2  157.68   11.20
   9   5   2  170.38   12.50
  10  -5   2    3.60    3.80
 -10  -5  -2    7.50    4.40
  10   5   2    3.30    3.80
 -11  -5  -2   14.80    5.80
  11  -5   2    6.30    4.10
  11   5   2    9.20    5.20
  12  -5   2    3.90    4.50
 -12  -5  -2   -0.20    4.60
  12   5   2    1.90    4.20
 -12   5  -2    5.00    5.00
 -13  -5  -2   31.60    8.70
  13  -5   2   29.00    7.50
 -13   5  -2   42.40    9.10
  13   5   2   44.60    9.50
 -14  -6   2   12.40    7.10
 -14   6   2    3.90    6.00
 -13  -6   2   11.90    6.30
  13   6  -2    4.70    5.60
 -13   6   2    7.50    5.60
 -12  -6   2   56.19   10.00
 -12   6   2   85.39   11.20
  12   6  -2   66.09    9.80
 -11  -6   2  116.49   12.90
  11  -6  -2  101.99   10.70
 -11   6   2  123.39   13.00
  11   6  -2  112.89   12.40
 -10  -6   2    8.80    4.70
 -10   6   2    8.90    3.90
  10   6  -2    6.50    4.80
 -10   6   2    9.50    4.30
  -9  -6   2   93.49   10.60
   9   6  -2   78.29   10.00
  -9   6   2   85.39    9.40
  -9   6   2   85.29    8.70
  -8  -6   2   18.00    4.90
  -8   6   2   12.80    3.80
  -8   6   2   15.80    4.30
   8   6  -2   14.40    4.90
  -7  -6   2   53.69    7.60
  -7   6   2   58.59    6.80
  -7   6   2   50.59    6.30
   7   6  -2   43.50    7.20
  -6  -6   2    0.90    1.10
  -6  -6   2    5.40    2.80
  -6   6   2    1.90    2.20
   6   6  -2   -0.20    2.80
  -5  -6   2  169.78    9.80
  -5  -6   2  163.58    6.10
   5   6  -2  161.78   11.10
  -5   6   2  158.28    8.40
  -4  -6   2  121.79    8.30
  -4  -6   2  139.19    5.70
   4   6  -2  147.69    9.70
  -4   6   2  132.89    7.40
  -3  -6   2    6.80    1.90
  -3  -6   2    6.50    2.70
  -3   6   2    4.60    2.00
   3   6  -2   10.00    3.60
  -2  -6   2  705.43   22.80
   2   6  -2  703.93   22.30
  -2   6   2  671.73   20.40
  -1  -6   2   19.20    3.90
   1   6  -2   27.70    4.50
  -1   6   2   19.40    3.40
   0   6  -2  229.38   10.70
   0   6   2  191.68    9.40
   1   6   2 1923.91   49.90
   1   6   2 1965.50   46.10
  -1   6  -2 1908.51   50.29
  -2  -6  -2 1625.94   46.40
  -2   6  -2 1739.63   45.90
   2   6   2 1737.13   46.70
   2   6   2 1749.92   40.90
  -3  -6  -2 1181.88   34.90
   3   6   2 1186.78   35.50
  -3   6  -2 1187.68   34.00
   3   6   2 1141.39   28.80
  -4  -6  -2   22.30    4.40
  -4   6  -2   34.70    5.20
   4   6   2   31.40    6.00
   5  -6   2    5.30    2.90
  -5  -6  -2    8.30    3.30
   5   6   2    5.50    3.00
  -5   6  -2    9.30    3.10
   6  -6   2   62.89    7.40
  -6  -6  -2   70.99    8.30
   6   6   2   63.39    8.50
  -7  -6  -2   27.30    5.70
   7  -6   2   27.80    5.30
   7   6   2   27.10    6.40
   8  -6   2   45.20    6.80
  -8  -6  -2   50.29    7.80
   8   6   2   41.80    7.60
  -9  -6  -2    5.90    4.20
   9  -6   2    3.10    2.90
   9   6   2    3.40    4.00
  10  -6   2    6.20    4.10
 -10  -6  -2   12.60    5.40
  10   6   2   21.10    6.30
 -11  -6  -2   64.69   10.40
  11  -6   2   65.29    9.40
  11   6   2   82.39   11.60
  12  -6   2   30.40    7.20
 -12  -6  -2   36.70    9.00
  12   6   2   41.00    8.80
 -12   6  -2   34.30    8.30
  13  -6   2   69.59   10.30
 -13  -6  -2   68.49   12.20
 -13   6  -2   63.59   10.80
  13   6   2   49.99   10.50
 -13  -7   2   36.20    9.30
  13   7  -2   37.70    9.30
 -13   7   2   26.00    7.50
 -12  -7   2  334.37   21.10
  12   7  -2  386.66   21.30
 -12   7   2  354.26   19.80
 -11  -7   2   -0.40    3.80
 -11   7   2    8.40    4.70
  11   7  -2   12.00    5.70
 -10  -7   2   19.30    6.00
 -10   7   2   19.20    5.20
 -10   7   2   14.20    4.70
  10   7  -2   15.50    6.50
  -9  -7   2    9.50    4.70
   9   7  -2    6.30    4.60
  -9   7   2    7.80    3.70
  -9   7   2    1.40    3.10
  -8  -7   2   92.29   10.60
  -8   7   2   99.39    9.90
   8   7  -2  122.39   12.90
  -8   7   2  110.49    9.60
  -7  -7   2  341.67   16.70
  -7   7   2  336.57   15.40
   7   7  -2  337.87   18.20
  -7   7   2  343.67   14.80
  -6  -7   2  819.22   28.20
  -6   7   2  840.22   26.10
   6   7  -2  829.82   30.40
  -5  -7   2  308.47   14.60
  -5   7   2  293.57   12.70
   5   7  -2  290.67   15.30
  -4  -7   2    1.40    2.20
  -4   7   2   -0.80    1.70
   4   7  -2    2.80    2.70
  -3  -7   2  356.56   15.70
  -3   7   2  371.06   14.00
   3   7  -2  382.56   16.00
  -2  -7   2  223.58   11.80
   2   7  -2  205.58   11.00
  -2   7   2  212.68    9.90
  -1   7   2   41.40    5.20
   1   7  -2   41.90    5.60
   0   7  -2  448.36   17.10
   0   7   2  433.86   16.20
  -1   7  -2  156.48    9.40
   1   7   2  135.79    6.50
   1   7   2  149.39    9.20
   2   7   2  279.57   13.60
   2   7   2  298.67   10.00
  -2   7  -2  268.17   13.20
  -3  -7  -2   85.79    8.90
  -3   7  -2   87.39    8.50
   3   7   2  108.79   10.40
   3   7   2   96.49    4.90
  -4  -7  -2  115.49   10.80
   4   7   2  123.39   11.50
  -4   7  -2  127.79    9.00
   4   7   2  106.99    5.10
  -5  -7  -2   31.00    5.80
   5   7   2   37.80    6.80
  -5   7  -2   37.70    6.20
  -6  -7  -2  158.78   11.00
   6   7   2  189.78   12.80
  -6   7  -2  178.68   11.40
  -7  -7  -2   17.20    4.70
   7   7   2   22.00    5.80
  -7   7  -2   19.30    5.10
  -8  -7  -2   18.20    5.10
   8  -7   2   26.10    5.80
   8   7   2   26.20    6.60
   9  -7   2  244.78   14.60
  -9  -7  -2  217.98   14.70
   9   7   2  213.38   15.60
 -10  -7  -2   11.80    5.50
  10  -7   2    4.60    3.90
  10   7   2    9.80    6.10
 -11  -7  -2   19.40    6.80
  11  -7   2   18.20    6.20
  11   7   2   37.50    9.30
  12  -7   2   61.59   10.00
 -12  -7  -2   55.49   10.40
  12   7   2  115.29   14.60
 -13  -7  -2   15.60    7.20
  13  -7   2   15.90    7.10
  13   7   2   10.70    7.50
 -13   7  -2   16.20    6.80
 -13   7  -2    6.10    6.00
 -13  -8   2   -0.10    5.80
  13   8  -2    9.20    7.30
 -13   8   2    7.90    5.70
 -12  -8   2   36.10    8.90
  12   8  -2   36.10    9.10
 -12   8   2   36.60    8.40
 -11  -8   2   28.20    7.20
  11   8  -2   23.90    7.20
 -11   8   2   28.70    6.90
 -10  -8   2   38.40    8.20
 -10   8   2   28.10    6.30
  10   8  -2   36.20    7.70
 -10   8   2   33.00    6.60
  -9  -8   2    4.00    4.20
   9   8  -2   15.60    6.20
  -9   8   2    2.30    3.30
  -9   8   2    3.90    3.30
  -8  -8   2   26.60    6.40
  -8   8   2   14.70    4.40
   8   8  -2   18.40    5.80
  -8   8   2   13.60    3.90
  -7  -8   2  173.78   12.00
   7   8  -2  193.38   14.00
  -7   8   2  169.48   10.40
  -6  -8   2 1071.79   35.00
  -6   8   2 1093.19   32.60
   6   8  -2 1046.30   37.10
  -5  -8   2  197.48   12.10
  -5   8   2  195.08   10.60
   5   8  -2  200.48   13.10
  -4  -8   2    5.70    3.50
  -4   8   2   10.00    3.10
   4   8  -2    8.40    3.50
  -3  -8   2  169.88   10.80
   3   8  -2  164.88   10.60
  -3   8   2  156.48    9.10
  -2  -8   2   88.89    9.60
   2   8  -2   97.59    9.50
  -2   8   2   84.59    7.90
   1   8  -2 1289.87   37.50
  -1   8   2 1274.57   36.00
   0   8  -2  469.05   18.50
   0   8   2  447.56   17.30
   1   8   2  485.05   18.90
  -1   8  -2  491.55   19.30
   2   8   2  128.69    6.40
   2   8   2  145.39   10.00
  -2   8  -2  124.89    9.20
  -3  -8  -2   -1.70    2.40
   3   8   2    0.60    3.00
  -3   8  -2   -2.60    2.30
   3   8   2    0.20    1.50
  -4  -8  -2   92.29   10.20
   4   8   2   98.59   10.80
   4   8   2  103.79    5.50
  -4   8  -2  110.09   10.20
  -5  -8  -2   56.19    7.90
  -5   8  -2   68.89    8.30
   5   8   2   74.19   10.10
  -6  -8  -2   69.19    9.00
  -6   8  -2   84.49    9.70
   6   8   2   68.59    9.80
  -7  -8  -2   89.29   10.50
   7   8   2   67.39    9.50
  -7   8  -2   89.89   10.40
  -8  -8  -2  571.74   25.20
   8   8   2  602.94   27.10
  -8   8  -2  610.44   25.40
  -9  -8  -2   32.70    7.90
  -9   8  -2   16.70    5.90
   9   8   2   24.00    7.30
 -10  -8  -2   77.89   11.20
 -10   8  -2   74.39   10.90
  10   8   2   71.99   11.40
 -11  -8  -2   23.50    7.70
 -11   8  -2   14.50    6.40
  11   8   2   28.60    8.40
 -12  -8  -2    5.00    6.20
  12   8   2    1.70    5.90
 -12   8  -2    1.20    6.30
 -13  -9   2   22.90    8.50
 -13   9   2   21.40    8.10
  13   9  -2   21.20    9.00
 -12  -9   2   10.00    6.00
 -12   9   2    7.90    5.50
  12   9  -2   -6.00    5.80
 -11  -9   2    9.10    5.90
 -11   9   2   18.10    6.10
  11   9  -2   16.70    7.30
 -10  -9   2   50.69    9.40
  10   9  -2   64.09   10.70
 -10   9   2   33.50    6.80
 -10   9   2   52.69    8.70
  -9  -9   2   71.59   11.00
   9   9  -2   80.29   12.30
  -9   9   2   65.59    9.30
  -9   9   2   56.99    8.00
  -8  -9   2   33.60    7.30
  -8   9   2   22.60    5.30
   8   9  -2   31.60    7.80
  -8   9   2   24.40    5.50
  -7  -9   2   18.80    5.40
  -7   9   2   22.70    5.10
   7   9  -2   27.50    6.80
  -6  -9   2   51.59    8.20
  -6   9   2   47.30    6.80
   6   9  -2   67.19   10.30
  -5  -9   2  213.18   13.20
  -5   9   2  211.18   11.60
   5   9  -2  184.48   13.40
  -4  -9   2  181.78   12.30
  -4   9   2  177.48   10.40
   4   9  -2  186.98   12.50
  -3  -9   2   43.30    6.80
  -3   9   2   52.29    6.40
   3   9  -2   45.40    7.20
   2   9  -2  361.76   17.10
  -2   9   2  362.46   15.30
  -1   9   2  276.77   13.40
   1   9  -2  329.07   15.50
   0   9   2  164.38   10.10
   0   9  -2  167.98   10.80
   1   9   2  123.79   11.00
  -1   9  -2  136.39   10.00
  -2   9  -2   85.99    9.30
   2   9   2   86.29    5.50
   2   9   2   85.19    9.00
   3   9   2  176.48   12.10
  -3   9  -2  174.18   11.60
   3   9   2  171.48    7.60
  -4  -9  -2  146.29   11.40
  -4   9  -2  158.08   11.00
   4   9   2  137.99    6.70
   4   9   2  166.78   12.60
  -5  -9  -2   78.99   10.00
   5   9   2   74.79    4.70
   5   9   2   86.59   11.10
  -5   9  -2   71.59    8.80
  -6  -9  -2   16.80    5.20
  -6   9  -2   21.90    5.60
   6   9   2   22.70    6.20
  -7  -9  -2   24.30    6.70
  -7   9  -2   12.80    4.70
   7   9   2   22.10    7.00
  -8  -9  -2  363.76   20.60
   8   9   2  427.06   22.60
  -8   9  -2  446.16   21.50
  -9  -9  -2  302.87   18.90
  -9   9  -2  298.87   17.90
   9   9   2  283.77   19.10
 -10  -9  -2   -5.60    3.80
 -10   9  -2    2.70    4.50
  10   9   2    3.20    5.70
 -11  -9  -2  139.69   16.30
  11   9   2  144.39   17.00
 -11   9  -2  157.48   16.30
 -12  -9  -2   82.99   13.50
  12   9   2  110.69   16.50
 -12   9  -2  102.09   14.30
 -12 -10   2   61.69   12.70
  12  10  -2   26.20    9.20
 -12  10   2   29.20    8.10
 -11 -10   2   10.20    5.80
  11  10  -2   19.30    8.00
 -11  10   2    2.20    4.70
 -10 -10   2    4.40    5.30
 -10  10   2    4.60    4.20
  10  10  -2    7.90    5.60
  -9 -10   2   16.30    6.40
  -9  10   2   24.00    6.20
  -9  10   2   16.20    5.30
   9  10  -2   16.30    6.90
  -8 -10   2  225.18   15.90
  -8  10   2  260.97   14.40
   8  10  -2  243.28   18.10
  -8  10   2  254.97   15.10
  -7 -10   2    1.90    3.90
   7  10  -2   12.00    5.90
  -7  10   2    8.50    3.90
  -6 -10   2   27.10    6.20
   6  10  -2   42.60    8.60
  -6  10   2   19.40    4.60
  -5 -10   2  102.59   11.60
  -5  10   2   87.79    9.10
   5  10  -2   80.19   10.40
  -4 -10   2  227.28   14.40
   4  10  -2  198.48   13.50
  -4  10   2  237.98   12.60
  -3 -10   2    7.90    4.10
  -3  10   2   15.30    4.10
   3  10  -2   10.20    4.50
  -2  10   2  846.62   28.10
   2  10  -2  886.31   30.70
  -1  10   2  114.09   10.40
   1  10  -2  111.59   11.00
   0  10   2   28.70    5.50
   0  10  -2   20.40    5.10
  -1  10  -2  407.06   18.90
   1  10   2  406.66   18.30
   2  10   2   59.29    5.50
   2  10   2   60.59    8.60
  -2  10  -2   53.99    7.70
   3  10   2   27.50    6.60
   3  10   2   37.00    4.30
  -3  10  -2   28.10    6.00
  -4 -10  -2   67.19    9.30
   4  10   2   87.99    5.50
  -4  10  -2   83.59    9.70
   4  10   2   50.39    8.90
  -5 -10  -2  818.42   31.30
  -5  10  -2  812.62   29.90
   5  10   2  796.12   31.50
  -6 -10  -2   35.90    7.90
  -6  10  -2   34.10    7.10
   6  10   2   42.40    8.30
  -7 -10  -2   64.89    9.70
   7  10   2   65.09   10.50
  -7  10  -2   70.89   10.00
  -8 -10  -2    5.60    4.90
   8  10   2    2.50    4.50
  -8  10  -2   11.70    5.20
  -9 -10  -2  107.89   14.00
  -9  10  -2   83.59   11.10
   9  10   2   79.79   12.50
 -10 -10  -2   93.49   13.50
  10  10   2  107.69   14.90
 -10  10  -2  109.79   13.60
 -11 -10  -2    2.00    5.90
 -11  10  -2    6.10    6.30
  11  10   2   -3.70    6.00
 -12 -10  -2    0.40    5.60
  12  10   2    0.70    7.60
 -12  10  -2    2.20    7.00
 -12 -11   2    6.40    6.70
  12  11  -2   -1.90    6.10
 -12  11   2   -3.10    4.90
 -11 -11   2    2.20    5.20
  11  11  -2   -0.20    6.30
 -11  11   2    1.80    5.10
 -10 -11   2  121.79   14.80
  10  11  -2  170.38   18.90
 -10  11   2  186.38   17.30
  -9 -11   2  334.57   20.70
  -9  11   2  308.37   18.30
   9  11  -2  352.36   22.20
  -9  11   2  326.07   17.60
  -8 -11   2    8.40    5.40
   8  11  -2   -8.00    5.00
  -8  11   2    4.30    4.00
  -8  11   2   -1.50    3.00
  -7 -11   2  354.56   20.00
  -7  11   2  329.37   16.80
   7  11  -2  336.67   21.00
  -6 -11   2   62.79    9.60
  -6  11   2   95.99   10.40
   6  11  -2   69.49   10.90
  -5 -11   2  112.69   13.00
   5  11  -2   92.39   11.30
  -5  11   2   94.29   10.10
  -4 -11   2   10.40    4.50
   4  11  -2    0.20    2.90
  -4  11   2    5.50    3.10
  -3  11   2   12.30    4.40
   3  11  -2   12.80    4.90
   2  11  -2  720.93   27.80
  -2  11   2  691.23   25.50
  -1  11   2   56.59    8.00
   1  11  -2   77.89    9.90
   0  11  -2  124.99   12.40
   0  11   2  107.29   10.90
  -1  11  -2  124.99   12.40
   1  11   2  103.69   11.00
   2  11   2  168.68   12.60
   2  11   2  175.48    9.20
  -2  11  -2  198.78   13.30
  -3  11  -2    8.10    3.90
   3  11   2   15.30    5.40
   3  11   2    8.00    2.80
   4  11   2  406.46   21.20
   4  11   2  368.46   13.50
  -4  11  -2  390.36   19.40
  -5 -11  -2  458.95   22.90
   5  11   2  471.05   23.60
  -5  11  -2  426.26   21.20
  -6 -11  -2  589.24   26.90
  -6  11  -2  553.54   25.00
   6  11   2  607.74   27.90
  -7 -11  -2  175.18   16.80
   7  11   2  123.59   14.60
  -7  11  -2  141.89   14.50
  -8 -11  -2   29.60    7.80
  -8  11  -2   36.80    8.10
   8  11   2   50.59    9.80
  -9 -11  -2   33.50    9.00
  -9  11  -2   27.20    7.50
   9  11   2   31.70    9.40
 -10 -11  -2    3.40    5.80
  10  11   2    2.00    7.00
 -10  11  -2   -2.60    5.20
 -11 -11  -2   33.90    9.80
 -11  11  -2   24.00    8.30
  11  11   2   15.50    9.50
 -11 -12   2   63.79   13.00
  11  12  -2   28.90   10.10
 -11  12   2   52.39   10.10
 -10 -12   2  191.08   19.40
  10  12  -2  235.98   22.40
 -10  12   2  218.18   16.60
  -9 -12   2   38.70    9.70
  -9  12   2   33.80    7.70
   9  12  -2   62.49   12.50
  -9  12   2   46.80    8.40
  -8 -12   2  142.89   15.20
  -8  12   2  180.18   12.90
   8  12  -2  131.89   16.50
  -8  12   2  138.29   13.70
  -7 -12   2   14.00    5.80
   7  12  -2   17.00    7.90
  -7  12   2    9.50    4.40
  -6 -12   2   36.60    8.40
  -6  12   2   53.89    8.40
   6  12  -2   51.79   10.30
  -5 -12   2    3.50    4.20
   5  12  -2   11.00    6.10
  -5  12   2   10.70    4.50
  -4 -12   2   47.90    9.10
  -4  12   2   49.80    7.80
   4  12  -2   40.40    8.10
   3  12  -2   31.50    7.30
  -3  12   2   27.70    5.90
   2  12  -2  113.39   12.60
  -2  12   2  138.69   12.80
   1  12  -2  107.09   12.40
  -1  12   2  123.99   12.30
   0  12   2  159.58   12.20
   0  12  -2  172.48   15.30
   1  12   2  127.69   12.50
  -1  12  -2  142.49   13.50
   2  12   2   34.70    5.00
  -2  12  -2   29.50    6.80
   2  12   2   31.00    6.70
   3  12   2    2.40    3.80
   3  12   2    6.80    2.90
  -3  12  -2    5.20    3.90
  -4  12  -2    3.10    4.10
   4  12   2   -1.30    3.80
   4  12   2    7.40    3.00
  -5  12  -2  504.75   24.00
   5  12   2  512.35   25.70
  -6 -12  -2   75.89   11.20
  -6  12  -2   80.39   11.00
   6  12   2   77.79   11.90
  -7 -12  -2   27.20    7.90
   7  12   2   31.70    8.40
  -7  12  -2   43.60    8.70
  -8 -12  -2   39.00    9.50
  -8  12  -2   49.99    9.60
   8  12   2   57.39   11.40
  -9 -12  -2    0.60    5.90
  -9  12  -2    0.80    5.30
   9  12   2    5.20    6.40
 -10 -12  -2   28.30    8.80
 -10  12  -2   32.00    9.60
  10  12   2   60.19   12.80
 -11 -12  -2   40.30   10.80
 -11  12  -2   15.00    8.10
  11  12   2   40.40   11.90
 -11 -13   2   81.09   14.30
 -11  13   2   48.60   10.20
  11  13  -2   61.79   12.90
 -10 -13   2    9.40    6.80
  10  13  -2   21.10    9.90
 -10  13   2   25.50    7.80
  -9 -13   2  761.62   35.80
  -9  13   2  789.62   33.50
   9  13  -2  829.62   38.00
  -9  13   2  836.42   33.80
  -8 -13   2  255.57   19.60
  -8  13   2  263.17   17.40
  -8  13   2  251.27   16.30
   8  13  -2  279.37   24.20
  -7 -13   2   11.30    6.60
  -7  13   2   14.90    5.60
   7  13  -2   16.10    8.20
  -7  13   2    8.80    5.20
  -6 -13   2   41.60    8.90
  -6  13   2   37.80    7.20
   6  13  -2   40.10    9.30
  -5 -13   2    6.50    4.40
   5  13  -2    8.40    5.90
  -5  13   2    7.80    4.60
   4  13  -2   74.39   10.80
  -4  13   2   71.99    9.60
   3  13  -2   95.19   12.10
  -3  13   2  111.29   11.90
  -2  13   2  130.29   12.60
   2  13  -2  151.78   15.10
   1  13  -2   64.89   10.20
  -1  13   2   76.69   10.10
   0  13  -2   48.00    8.50
   0  13   2   50.39    8.50
  -1  13  -2   19.40    6.60
   1  13   2   15.00    5.80
   2  13   2   23.20    4.60
   2  13   2   17.80    6.00
  -2  13  -2   33.40    7.70
   3  13   2  302.77   18.80
   3  13   2  301.87   13.20
  -3  13  -2  291.27   18.00
  -4  13  -2    0.90    4.50
   4  13   2    3.20    4.60
   5  13   2  208.68   19.20
  -5  13  -2  187.98   16.60
   6  13   2  312.17   21.30
  -6  13  -2  260.17   17.80
  -7 -13  -2    6.70    6.00
  -7  13  -2    8.70    5.20
   7  13   2    0.70    5.30
  -8 -13  -2    7.00    6.40
  -8  13  -2   -0.80    5.00
   8  13   2   -0.50    5.00
  -9 -13  -2    4.00    6.00
  -9  13  -2    9.10    6.80
   9  13   2   13.90    7.40
 -10 -13  -2   14.80    8.30
  10  13   2   24.20    9.30
 -10  13  -2    5.90    6.00
 -10 -14   2   17.60    8.40
 -10  14   2   14.20    7.10
  10  14  -2    4.40    8.00
  -9 -14   2   20.30    9.60
  -9  14   2   47.90    9.80
   9  14  -2   35.20   12.10
  -8 -14   2   27.60    9.10
  -8  14   2   28.30    8.00
  -8  14   2   28.70    8.30
   8  14  -2   21.80    9.30
  -7 -14   2   75.79   13.10
   7  14  -2   56.79   12.30
  -7  14   2   59.19    9.80
  -7  14   2   49.40    8.70
  -6 -14   2   57.89   11.30
  -6  14   2   52.69    9.20
   6  14  -2   44.00   10.90
  -5  14   2   62.59    9.70
   5  14  -2   49.20    9.90
   4  14  -2    8.60    6.40
  -4  14   2    8.20    4.70
  -3  14   2  936.21   34.40
   3  14  -2  899.41   36.60
   2  14  -2  164.98   16.20
  -2  14   2  169.78   15.50
   1  14  -2   44.90    8.90
  -1  14   2   41.90    8.60
   0  14   2   24.40    6.60
   0  14  -2   20.30    6.20
   1  14   2   53.09    9.80
  -1  14  -2   40.90    8.70
  -2  14  -2   48.50    9.20
   2  14   2   51.59    6.80
   2  14   2   56.09   10.10
   3  14   2    6.80    5.80
  -3  14  -2   12.70    5.70
   3  14   2    5.30    3.40
   4  14   2   33.30    8.70
  -4  14  -2   26.20    7.10
   5  14   2  296.07   20.50
  -5  14  -2  260.67   18.10
   6  14   2  103.19   14.10
  -6  14  -2  102.09   13.30
  -7  14  -2  230.18   17.50
   7  14   2  238.78   21.80
  -8 -14  -2    5.50    6.60
  -8  14  -2    0.30    5.40
   8  14   2    7.00    7.00
  -9 -14  -2    2.70    6.70
  -9  14  -2   11.20    7.10
   9  14   2   19.60    8.10
  -9 -15   2    3.80    6.90
   9  15  -2   -0.30    8.20
  -9  15   2    8.00    6.10
  -8 -15   2   38.60   10.60
  -8  15   2   54.29   10.60
  -8  15   2   52.59    9.70
   8  15  -2   50.39   12.20
  -7 -15   2   86.19   14.00
  -7  15   2   99.59   12.60
  -7  15   2   93.29   12.60
   7  15  -2  111.79   17.20
   6  15  -2    6.60    6.90
  -6  15   2    1.80    3.80
  -6  15   2    1.10    4.90
  -5  15   2   11.90    5.80
   5  15  -2   17.30    7.40
  -4  15   2   39.50    8.20
   4  15  -2   36.00    9.90
   3  15  -2   82.09   12.60
  -3  15   2   93.39   12.20
  -2  15   2   55.89    9.80
   2  15  -2   65.69   11.30
   1  15  -2  128.69   15.20
  -1  15   2  135.59   14.30
   0  15  -2   91.99   13.20
   0  15   2   74.69   11.60
   0  15   2   86.29    9.60
  -1  15  -2    0.80    5.30
   1  15   2    0.10    2.30
   1  15   2    0.30    5.10
  -2  15  -2   80.89   12.00
   2  15   2   67.59   11.20
   2  15   2   65.39    8.20
   3  15   2   79.39   12.20
  -3  15  -2   82.19   11.80
   3  15   2   63.09    8.30
   4  15   2    2.60    5.80
  -4  15  -2   10.20    6.70
  -5  15  -2   68.29   11.40
   5  15   2   74.99   12.80
   6  15   2  229.58   21.90
  -6  15  -2  253.77   19.20
  -7  15  -2    6.80    6.30
   7  15   2    2.10    6.50
   8  15   2   53.39   11.60
  -8  15  -2   53.79   11.00
  -9 -15  -2    5.30    7.00
  -9  15  -2   -6.50    5.60
   9  15   2    4.40    8.50
  -8 -16   2   27.10    9.60
   8  16  -2   13.50    9.80
  -8  16   2   12.30    6.70
  -8  16   2   13.10    6.90
  -7  16   2   57.99   11.10
   7  16  -2   77.29   15.50
  -7  16   2   68.09   11.20
  -6  16   2   -3.70    5.50
   6  16  -2    4.20    8.00
  -6  16   2    1.40    4.60
   5  16  -2   65.99   12.60
  -5  16   2   61.69   10.00
  -5  16   2   38.60    9.10
  -4  16   2   93.09   13.10
   4  16  -2   80.49   14.30
   3  16  -2   13.50    7.20
  -3  16   2   22.00    7.00
  -2  16   2  122.19   14.70
   2  16  -2  122.29   16.50
   1  16  -2  779.52   34.80
  -1  16   2  752.12   28.80
  -1  16   2  698.03   31.80
   0  16   2   89.79   12.70
   0  16  -2  120.49   16.00
   0  16   2   90.29   10.30
  -1  16  -2   13.20    6.80
   1  16   2   23.10    7.70
   2  16   2   26.60    6.10
  -2  16  -2   29.50    8.70
   2  16   2   15.70    7.20
   3  16   2  164.88   17.90
  -3  16  -2  166.88   17.30
  -4  16  -2    7.20    6.50
   4  16   2   12.60    8.00
   5  16   2   56.49   12.40
  -5  16  -2   66.79   11.70
  -6  16  -2   20.50    7.70
   6  16   2   25.00    9.70
   7  16   2   37.90   11.90
  -7  16  -2   33.70    9.20
   8  16   2    9.90    8.10
  -8  16  -2    6.20    7.30
  -7  17   2   55.59   11.20
   7  17  -2   39.40   12.70
  -7  17   2   44.80    9.90
  -6  17   2   73.39   11.90
  -6  17   2   67.19   11.40
   6  17  -2   48.70   12.50
  -5  17   2    6.40    5.80
   5  17  -2   12.70    9.00
  -5  17   2    7.80    6.60
  -4  17   2   20.50    6.50
  -4  17   2   14.30    7.20
   4  17  -2   19.30    9.30
   3  17  -2   30.50    9.90
  -3  17   2   35.70    9.40
  -3  17   2   52.59    9.60
  -2  17   2  240.68   21.00
  -2  17   2  242.28   16.70
   2  17  -2  140.39   17.90
  -1  17   2   30.70    9.40
  -1  17   2   35.90    8.10
   1  17  -2   38.00   10.40
   0  17   2  112.09   15.10
   0  17  -2  167.08   18.50
   0  17   2  133.89   12.90
  -1  17  -2   24.10    9.10
   1  17   2   30.20    8.70
  -2  17  -2    2.50    5.30
   2  17   2    0.80    4.20
   2  17   2    7.20    5.90
  -3  17  -2    0.80    6.20
   3  17   2    4.10    6.20
  -4  17  -2  168.88   18.70
   4  17   2  166.98   19.50
  -5  17  -2   -0.20    6.20
   5  17   2   -9.90    6.10
   6  17   2    7.20    9.00
  -6  17  -2   13.40    8.00
  -7  17  -2    9.10    8.40
   7  17   2   17.40   10.70
  -6  18   2   99.19   14.80
   6  18  -2   89.99   16.20
  -6  18   2  119.59   15.80
  -5  18   2   -0.20    5.80
  -5  18   2    0.50    7.10
   5  18  -2    1.10    8.70
  -4  18   2   69.19   12.50
   4  18  -2  107.19   17.60
  -4  18   2   59.29   11.00
  -3  18   2   23.60    8.20
   3  18  -2   17.70   10.10
  -3  18   2   16.20    7.10
  -2  18   2   22.20    9.20
  -2  18   2   23.30    7.30
   2  18  -2   31.80   11.30
  -1  18   2    6.50    5.40
  -1  18   2    6.60    6.60
   1  18  -2    6.10    8.00
   0  18   2   13.50    5.80
   0  18   2   20.50    9.00
   0  18  -2   13.60    7.60
   1  18   2   10.60    7.20
  -1  18  -2   23.40    9.80
   1  18   2    0.00    3.20
   2  18   2   45.40   11.60
  -2  18  -2   40.50   10.20
  -3  18  -2   40.80   11.70
   3  18   2   46.10   11.50
  -4  18  -2    2.10    6.70
   4  18   2   -1.40    8.00
   5  18   2   10.20    7.30
  -5  18  -2    4.80    7.50
  -4  19   2   12.70    9.10
   4  19  -2    4.80    8.30
  -4  19   2    1.90    7.30
   3  19  -2    5.10    9.10
  -3  19   2   19.00    8.70
  -3  19   2   21.20    8.80
   2  19  -2   46.60   12.90
  -2  19   2   47.10   12.00
  -2  19   2   43.10    9.60
  -1  19   2    7.50    8.00
   1  19  -2    2.80    9.40
  -1  19   2    4.00    6.50
   0  19  -2  359.66   26.70
   0  19   2  353.56   25.10
   0  19   2  357.96   21.10
   1  19   2   -1.30    4.60
  -1  19  -2    7.70    8.20
   1  19   2   -2.20    6.00
   2  19   2   28.40   10.50
  -2  19  -2   26.70   10.70
  -3  19  -2    9.30    7.70
   3  19   2   18.10    9.90
 -14   0   3    4.70    5.20
 -13   0   3   26.10    7.20
 -12   0   3    0.60    3.80
 -11   0   3  979.00   30.90
  11   0  -3  952.80   29.20
 -11   0   3  984.40   34.70
 -10   0   3    1.40    2.40
  10   0  -3    0.60    1.80
 -10   0   3   -2.20    2.50
  -9   0   3  283.57   13.10
   9   0  -3  294.07   11.80
  -9   0   3  294.47   14.80
   8   0  -3    4.80    1.90
  -8   0   3    2.90    2.80
  -8   0   3    3.30    2.20
   7   0  -3    3.40    1.40
  -7   0   3    8.00    2.90
  -7   0   3    7.30    2.80
   6   0  -3    0.20    1.00
  -6   0   3    0.30    1.80
   5   0  -3 1016.40   24.70
  -5   0   3  985.00   27.30
   4   0  -3    0.60    0.90
  -4   0   3    1.90    1.70
  -3   0   3  303.87   10.50
   3   0  -3  299.57    7.90
   2   0  -3    0.80    0.60
  -2   0   3    4.00    1.60
  -1   0   3  518.25   14.20
  -1   0   3  509.45   12.60
   0   0   3    3.70    1.10
   0   0   3    0.40    1.00
  -1   0  -3 1216.78   28.00
   1   0   3 1250.17   29.80
   1   0   3 1246.58   29.70
   2   0   3   -1.30    0.90
  -2   0  -3   -0.30    0.70
   2   0   3   -0.40    0.90
   3   0   3 9662.03  217.58
  -3   0  -3 9999.00  215.68
   3   0   3 9795.02  216.08
  -4   0  -3    2.00    1.40
   4   0   3    0.60    1.50
  -5   0  -3   88.29    5.50
   5   0   3   99.49    6.40
  -6   0  -3    4.70    2.20
   6   0   3    6.50    2.60
   7   0   3  399.16   16.00
  -7   0  -3  395.46   15.40
  -8   0  -3   -0.20    2.00
   8   0   3    4.00    2.80
  -9   0  -3   77.09    8.60
   9   0   3   81.19    8.70
  10   0   3    8.50    4.10
 -10   0  -3    0.00    3.00
 -11   0  -3    3.20    3.70
  11   0   3    3.30    3.80
  12   0   3    7.30    4.50
 -12   0  -3    2.20    4.40
  13   0   3   39.80    8.30
 -13   0  -3   35.40    8.40
 -14  -1   3  121.59   14.70
 -14   1   3  109.79   14.10
 -13  -1   3   -2.40    3.60
 -13   1   3   -1.50    4.00
 -12  -1   3  238.48   15.90
  12   1  -3  225.68   12.40
 -12   1   3  240.18   15.90
 -11  -1   3  371.36   19.30
  11  -1  -3  388.46   15.60
  11   1  -3  373.06   15.70
 -11   1   3  369.56   17.40
 -11   1   3  395.56   19.60
 -10  -1   3   59.49    6.70
 -10  -1   3   57.09    8.30
  10  -1  -3   62.79    6.20
 -10   1   3   52.99    7.70
  10   1  -3   61.49    6.40
 -10   1   3   67.69    8.00
   9  -1  -3   25.40    3.80
  -9  -1   3   26.60    5.70
  -9  -1   3   26.00    4.30
  -9   1   3   28.40    5.50
   9   1  -3   31.90    4.50
  -9   1   3   33.30    5.50
  -8  -1   3   59.39    6.20
   8  -1  -3   51.99    4.90
  -8  -1   3   53.69    6.80
  -8   1   3   55.39    6.70
   8   1  -3   55.89    5.60
  -7  -1   3   10.40    2.80
   7  -1  -3    6.60    1.80
  -7  -1   3    8.80    2.90
  -7   1   3    6.40    2.90
   7   1  -3    5.20    2.00
   6  -1  -3  159.68    6.30
  -6  -1   3  162.48    8.90
  -6  -1   3  160.48    7.70
  -6   1   3  159.28    8.50
   6   1  -3  160.28    7.00
   5  -1  -3   27.20    2.50
  -5  -1   3   27.10    4.10
  -5  -1   3   30.80    3.70
  -5   1   3   30.70    4.20
   5   1  -3   28.40    3.10
  -4  -1   3 1210.18   30.90
  -4  -1   3 1161.88   29.60
   4  -1  -3 1137.29   26.90
  -4   1   3 1137.39   31.00
   4   1  -3 1208.48   28.90
  -3  -1   3 2313.97   53.19
  -3  -1   3 2300.77   53.79
   3   1  -3 2295.77   52.49
  -3   1   3 2211.08   54.59
  -2  -1   3  952.50   23.50
  -2  -1   3  948.71   23.60
   2   1  -3  942.51   22.60
  -2   1   3  917.31   24.80
  -1  -1   3   17.90    1.70
  -1  -1   3   16.80    2.10
   1   1  -3   13.40    1.80
  -1   1   3   16.00    2.60
  -1   1   3   16.40    1.40
   0  -1   3  685.63   16.90
   0  -1   3  618.74   17.00
   0  -1   3  649.64   14.90
   0   1   3  657.73   16.40
   0   1   3  647.34   17.20
   1  -1   3    2.70    1.30
   1  -1   3    2.40    1.20
   1   1   3    2.30    1.20
   1   1   3    0.00    0.40
  -2  -1  -3  709.33   18.00
   2  -1   3  688.73   18.90
   2  -1   3  684.83   18.80
   2   1   3  697.13   17.90
   2   1   3  711.03   19.30
   3  -1   3   31.20    3.80
  -3  -1  -3   29.90    3.10
  -3   1  -3   28.60    2.80
   3   1   3   21.90    3.10
   3   1   3   30.50    2.90
  -4  -1  -3 2132.99   51.59
   4  -1   3 2098.69   52.69
  -4   1  -3 2169.98   51.19
   4   1   3 2242.58   50.19
   4   1   3 2182.08   53.29
   5  -1   3   23.50    3.80
  -5  -1  -3   30.50    3.90
  -5   1  -3   29.20    3.80
   5   1   3   25.10    4.00
   6  -1   3  462.85   16.60
  -6  -1  -3  457.85   16.00
   6   1   3  439.16   16.60
  -6   1  -3  458.05   15.80
  -7  -1  -3   47.10    5.80
   7  -1   3   49.60    6.40
   7   1   3   40.90    5.60
  -7   1  -3   46.60    5.70
  -8  -1  -3  177.98   10.30
   8  -1   3  148.69    9.60
  -8   1  -3  149.49    9.50
   8   1   3  147.99    9.80
   9  -1   3  275.47   14.20
  -9  -1  -3  284.07   14.40
  -9   1  -3  277.67   14.10
   9   1   3  287.77   14.70
  10  -1   3  101.49   10.30
 -10  -1  -3  122.19   11.90
 -10   1  -3   99.39   10.30
  10   1   3   81.69    9.70
  11  -1   3    9.80    4.50
 -11  -1  -3   11.50    5.00
 -11   1  -3   16.50    5.30
  11   1   3   18.80    5.50
  12  -1   3   36.10    7.20
 -12  -1  -3   35.30    7.50
 -12   1  -3   43.90    8.60
  12   1   3   35.40    7.40
 -13  -1  -3    4.70    5.50
  13  -1   3    3.70    4.50
  13   1   3    3.90    4.60
 -13   1  -3    2.30    5.10
 -14  -2   3   71.39   12.00
 -14   2   3   64.79   11.20
 -13  -2   3   71.89   10.80
 -13   2   3   70.59   11.20
 -12  -2   3  248.78   16.60
  12   2  -3  277.27   14.20
 -12   2   3  296.87   17.70
 -12   2   3  278.07   15.80
 -11  -2   3  277.17   16.50
  11  -2  -3  302.07   13.50
  11   2  -3  290.57   13.80
 -11   2   3  279.47   16.60
 -11   2   3  305.37   15.90
  10  -2  -3  104.79    7.20
 -10  -2   3   92.19    6.90
 -10  -2   3   75.99    9.40
 -10   2   3  112.79   10.70
  10   2  -3  100.09    7.60
   9  -2  -3  206.98    9.50
  -9  -2   3  216.18    9.40
  -9  -2   3  185.98   12.00
  -9   2   3  199.18   11.40
   9   2  -3  205.98   10.40
  -8  -2   3   68.59    8.10
  -8  -2   3   59.99    5.40
   8  -2  -3   66.79    4.90
  -8   2   3   48.50    6.20
   8   2  -3   67.69    6.50
  -7  -2   3   15.00    3.70
  -7  -2   3    9.20    2.40
   7  -2  -3   15.50    2.60
  -7   2   3   13.10    3.40
   7   2  -3   12.40    2.90
   6  -2  -3   77.49    4.30
  -6  -2   3   93.89    6.70
  -6  -2   3   78.69    4.90
  -6   2   3   80.49    6.00
   6   2  -3   84.89    5.60
  -5  -2   3  105.19    6.70
   5  -2  -3  108.49    4.70
  -5  -2   3  103.59    5.30
   5   2  -3  118.19    6.40
  -5   2   3  114.59    6.70
  -4  -2   3  348.37   11.00
  -4  -2   3  351.26   12.50
   4  -2  -3  344.67    9.80
  -4   2   3  391.56   13.20
   4   2  -3  354.26   12.40
  -3  -2   3 2436.86   56.29
  -3  -2   3 2445.56   57.69
  -3   2   3 2395.56   54.29
   3   2  -3 2499.95   57.39
  -3   2   3 2466.45   58.69
  -2  -2   3  339.97   10.40
  -2  -2   3  321.47   10.00
   2   2  -3  336.87   10.30
  -2   2   3  332.57   11.60
  -2   2   3  330.07    8.60
  -1  -2   3  335.07   10.20
  -1  -2   3  343.67    9.60
  -1   2   3  323.47    9.40
   1   2  -3  334.67   10.70
  -1   2   3  336.67   11.30
   0  -2   3  625.44   15.70
   0  -2   3  624.34   16.90
   0  -2   3  620.94   17.30
   0   2   3  612.34   16.40
   0   2   3  611.34   17.10
   1  -2   3 2833.72   65.79
   1  -2   3 2850.11   65.89
   1   2   3 2872.51   64.89
   1   2   3 2853.61   65.79
  -2  -2  -3    6.00    1.80
   2  -2   3    4.40    1.50
   2  -2   3    5.10    1.70
   2   2   3    9.80    2.20
   2   2   3    6.70    1.40
   3  -2   3  323.97   11.30
  -3  -2  -3  299.67   10.60
   3   2   3  315.37    9.30
   3   2   3  318.67   11.70
   4  -2   3   18.60    3.30
  -4  -2  -3   18.00    2.90
   4   2   3   21.40    2.20
   4   2   3   22.60    3.90
  -5  -2  -3  525.05   17.00
   5  -2   3  508.65   17.40
   5   2   3  519.75   18.10
   6  -2   3   37.00    5.20
  -6  -2  -3   46.90    5.50
   6   2   3   53.09    6.30
   7  -2   3   52.59    6.70
  -7  -2  -3   50.69    6.30
   7   2   3   41.60    5.80
  -7   2  -3   39.80    5.30
  -8  -2  -3   41.40    6.20
   8  -2   3   37.30    5.90
   8   2   3   37.80    6.10
  -8   2  -3   35.20    5.50
   9  -2   3   95.59    9.70
  -9  -2  -3  102.49   10.20
  -9   2  -3   98.79    9.60
   9   2   3  100.19   10.50
 -10  -2  -3  151.68   11.50
  10  -2   3  163.68   11.60
  10   2   3  159.48   11.80
 -10   2  -3  147.79   11.10
  11  -2   3  449.66   20.80
 -11  -2  -3  461.75   21.60
 -11   2  -3  453.55   21.00
  11   2   3  438.16   20.90
 -12  -2  -3   82.09   11.20
  12  -2   3   99.09   11.10
  12   2   3   83.79   10.80
 -12   2  -3  117.09   12.70
  13  -2   3    2.80    4.50
 -13  -2  -3    6.20    5.80
  13   2   3    9.80    5.20
 -13   2  -3    7.30    5.60
 -14  -3   3   -2.70    4.60
 -14   3   3   -6.10    4.50
 -13  -3   3   68.49   11.40
 -13   3   3   57.29   10.30
 -12  -3   3   11.10    5.00
 -12   3   3   14.70    5.90
  12   3  -3   19.50    4.80
 -12   3   3   15.90    5.10
 -11  -3   3   63.99    9.60
  11  -3  -3   82.99    8.40
  11   3  -3   70.89    8.10
 -11   3   3   85.09    9.90
  10  -3  -3   14.00    3.50
 -10  -3   3   19.10    5.50
  10   3  -3   15.40    4.20
 -10   3   3   15.30    4.50
  -9  -3   3  219.78    8.90
   9  -3  -3  222.08   10.10
  -9  -3   3  210.18   12.70
  -9   3   3  194.28   11.70
   9   3  -3  214.18   11.10
  -8  -3   3  265.67    9.90
   8  -3  -3  258.37   10.70
  -8  -3   3  281.27   14.20
   8   3  -3  305.17   13.00
  -8   3   3  262.17   12.90
  -7  -3   3  242.68   12.50
   7  -3  -3  262.77    9.90
  -7  -3   3  247.78    9.20
  -7   3   3  257.87   11.90
   7   3  -3  269.77   11.80
  -6  -3   3   43.40    3.40
  -6  -3   3   41.80    5.30
   6  -3  -3   48.20    4.20
   6   3  -3   43.40    5.30
  -6   3   3   41.40    5.00
   5  -3  -3  467.35   14.00
  -5  -3   3  480.55   13.80
  -5  -3   3  498.85   17.00
   5   3  -3  464.45   16.80
  -5   3   3  507.25   16.70
  -4  -3   3 2532.05   57.89
  -4  -3   3 2600.14   60.89
  -4   3   3 2506.15   60.69
   4   3  -3 2552.94   61.19
  -4   3   3 2391.46   57.39
  -3  -3   3  410.76   11.80
  -3  -3   3  403.16   13.20
  -3   3   3  398.56   13.60
  -3   3   3  403.56   11.00
  -2  -3   3   24.80    3.00
  -2  -3   3   21.50    2.60
  -2   3   3   24.50    2.30
  -2   3   3   28.90    3.70
   2   3  -3   28.10    3.50
  -1  -3   3 1102.09   28.40
  -1   3   3 1131.19   29.50
   1   3  -3 1156.18   29.60
  -1   3   3 1166.08   28.20
   0  -3   3  172.98    7.10
   0  -3   3  166.18    6.80
   0   3  -3  169.98    7.70
   0   3   3  163.18    7.20
   0   3   3  164.78    7.10
   1  -3   3    3.20    1.40
   1  -3   3    2.00    1.50
   1   3   3    1.80    1.40
   1   3   3    1.50    1.60
  -2  -3  -3  246.88   10.10
   2  -3   3  275.07   10.20
   2  -3   3  257.87    9.60
   2   3   3  258.27    8.10
   2   3   3  229.68   10.00
   3  -3   3   38.50    4.40
  -3  -3  -3   41.70    4.60
   3   3   3   34.60    4.60
   3   3   3   31.00    2.20
   4  -3   3  336.97   12.60
  -4  -3  -3  315.87   12.20
   4   3   3  318.67    9.10
   4   3   3  319.27   13.30
  -5  -3  -3   21.90    3.80
   5  -3   3   14.70    3.40
   5   3   3   17.60    3.50
   6  -3   3    8.70    2.60
  -6  -3  -3    8.10    2.70
   6   3   3   17.70    4.10
  -7  -3  -3  208.98   11.40
   7  -3   3  231.88   11.80
   7   3   3  232.78   12.40
   8  -3   3    6.00    3.10
  -8  -3  -3   12.30    4.00
  -8   3  -3   13.20    3.90
   8   3   3   10.90    4.00
  -9  -3  -3  335.37   16.30
   9  -3   3  326.67   15.90
  -9   3  -3  335.47   15.80
   9   3   3  326.27   16.70
 -10  -3  -3  601.44   24.30
  10  -3   3  569.24   23.20
 -10   3  -3  550.04   23.00
  10   3   3  582.34   24.00
 -11  -3  -3  167.28   13.20
  11  -3   3  183.88   13.30
  11   3   3  205.38   14.10
 -11   3  -3  188.88   13.20
  12  -3   3   24.10    6.40
 -12  -3  -3   17.00    6.20
 -12   3  -3   22.60    6.60
  12   3   3   46.40    8.60
 -13  -3  -3   37.90    8.30
  13  -3   3   37.30    8.20
  13   3   3   45.20    8.60
 -13   3  -3   36.10    8.10
 -14  -4   3   37.70    9.50
 -14   4   3   36.30    9.40
 -13  -4   3    7.40    5.30
 -13   4   3    1.30    4.70
 -13   4   3   -0.70    4.90
 -12  -4   3   16.50    6.10
  12   4  -3   24.30    5.70
 -12   4   3   18.80    6.00
 -11  -4   3   24.30    6.40
 -11   4   3   21.90    5.30
  11   4  -3   27.70    5.90
 -10  -4   3  487.85   22.30
  10  -4  -3  494.55   18.30
  10   4  -3  509.25   20.20
 -10   4   3  530.05   21.40
   9  -4  -3   23.30    3.90
  -9  -4   3   16.00    4.70
   9   4  -3   20.40    5.00
  -9   4   3   25.80    5.20
   8  -4  -3   43.60    5.00
  -8  -4   3   40.10    6.50
  -8  -4   3   47.40    4.10
   8   4  -3   45.40    6.40
  -8   4   3   32.40    5.40
  -7  -4   3  285.37   13.70
  -7  -4   3  270.77    9.10
   7  -4  -3  270.97   10.70
   7   4  -3  223.88   12.10
  -7   4   3  263.47   12.40
  -6  -4   3   24.20    4.60
  -6  -4   3   23.20    2.70
  -6   4   3   26.90    4.50
  -6   4   3   18.40    3.10
  -5  -4   3    7.10    1.60
  -5  -4   3    6.30    2.50
  -5   4   3   15.80    2.70
   5   4  -3    1.40    1.10
  -5   4   3    5.50    2.40
  -4  -4   3  320.07   10.10
  -4  -4   3  312.67   12.40
  -4   4   3  305.07   12.10
   4   4  -3  335.97   13.30
  -4   4   3  330.47   10.50
  -3  -4   3  112.69    6.30
  -3  -4   3  105.49    5.10
  -3   4   3  111.89    5.00
   3   4  -3  110.99    6.70
  -3   4   3  117.79    6.60
  -2  -4   3   77.59    4.90
  -2  -4   3   69.49    4.20
  -2   4   3   76.19    5.00
   2   4  -3   72.29    5.10
  -2   4   3   73.29    4.10
  -1  -4   3    0.60    1.30
  -1  -4   3    6.20    1.70
  -1   4   3    1.70    1.50
  -1   4   3   -0.50    1.30
   1   4  -3    0.70    1.80
   0  -4   3    0.70    1.20
   0   4  -3   -0.90    1.40
   0   4   3    1.40    1.50
   0   4   3    0.70    1.60
   1  -4   3   18.50    2.80
   1   4   3   11.10    2.70
   1   4   3   16.70    2.70
  -1   4  -3   14.00    3.30
   2  -4   3    8.20    2.40
  -2  -4  -3    3.70    2.30
   2   4   3    7.80    1.90
   2   4   3    5.50    2.80
  -3  -4  -3   24.80    4.10
   3  -4   3   29.40    4.00
   3   4   3   32.20    5.00
   3   4   3   30.50    2.70
   4  -4   3  167.78    8.60
  -4  -4  -3  137.29    8.10
   4   4   3  166.68    9.60
   4   4   3  151.18    5.10
   5  -4   3   23.20    4.10
  -5  -4  -3   17.90    3.90
   5   4   3   18.60    4.40
  -6  -4  -3  119.19    8.20
   6  -4   3  122.09    8.20
   6   4   3  114.79    8.50
   7  -4   3    1.50    2.40
  -7  -4  -3    5.90    3.00
   7   4   3    5.70    3.00
  -8  -4  -3   74.29    8.80
   8  -4   3   71.49    8.40
   8   4   3   84.69    9.90
  -9  -4  -3   21.30    5.30
   9  -4   3   22.60    5.40
   9   4   3   19.80    5.10
  10  -4   3    8.10    4.20
 -10  -4  -3    6.00    3.90
 -10   4  -3    8.00    4.30
  10   4   3   11.80    5.30
 -11  -4  -3  119.69   12.60
  11  -4   3  127.59   12.70
  11   4   3  125.79   13.20
 -11   4  -3  143.19   13.50
  12  -4   3   47.50    8.50
 -12  -4  -3   44.70    8.80
  12   4   3   42.90    8.20
 -12   4  -3   49.10    9.00
 -13  -4  -3   59.19   10.80
  13  -4   3   36.80    8.00
  13   4   3   39.20    8.80
 -13   4  -3   28.70    8.10
 -14  -5   3   71.19   12.40
 -14   5   3   92.79   13.20
 -13  -5   3   60.39   10.60
 -13   5   3   50.49    9.50
  13   5  -3   70.99    9.80
 -12  -5   3   10.70    5.50
 -12   5   3   11.80    5.30
  12   5  -3   10.70    4.90
 -11  -5   3   34.70    7.40
 -11   5   3   28.80    6.50
  11   5  -3   38.20    6.60
  10  -5  -3   81.29    7.90
 -10  -5   3   61.69    8.80
 -10   5   3   89.39    9.80
  -9  -5   3   29.10    6.00
   9  -5  -3   25.90    4.50
  -9   5   3   39.70    6.60
  -8  -5   3   27.70    6.00
  -8  -5   3   23.30    2.80
  -8   5   3   20.60    4.00
  -8   5   3   19.90    4.40
   8   5  -3    8.80    3.30
  -7  -5   3   63.39    7.40
  -7  -5   3   65.99    3.90
   7   5  -3   67.29    8.00
  -7   5   3   60.09    6.00
  -7   5   3   62.69    7.00
  -6  -5   3   85.39    4.50
  -6  -5   3   80.79    8.00
  -6   5   3   94.59    7.00
  -6   5   3   91.09    5.80
   6   5  -3  119.89   11.00
  -5  -5   3  410.36   16.10
  -5  -5   3  440.06   12.80
  -5   5   3  446.76   16.00
   5   5  -3  414.26   17.30
  -5   5   3  419.16   14.00
  -4  -5   3   59.29    3.90
  -4  -5   3   66.99    6.80
  -4   5   3   58.59    4.20
  -4   5   3   60.79    5.70
   4   5  -3   67.09    7.10
  -3  -5   3   27.30    4.00
  -3  -5   3   31.00    3.30
   3   5  -3   23.40    3.90
  -3   5   3   23.40    2.90
  -3   5   3   18.60    3.30
  -2  -5   3  629.34   19.50
  -2  -5   3  639.94   17.80
   2   5  -3  616.34   19.80
  -2   5   3  616.34   18.80
  -2   5   3  608.14   17.70
  -1  -5   3    2.80    1.50
  -1  -5   3    6.10    2.30
  -1   5   3    5.70    2.00
   1   5  -3    2.80    2.20
  -1   5   3    5.60    1.90
   0  -5   3  928.81   25.10
   0   5   3  924.81   24.80
   0   5  -3  893.01   27.00
   0   5   3  923.81   26.10
  -1   5  -3  234.68   11.10
   1   5   3  242.08    9.30
   1   5   3  237.18   11.00
  -2  -5  -3  196.98   10.40
   2   5   3  202.88    8.30
   2   5   3  237.38   11.30
  -2   5  -3  198.18   10.10
   3  -5   3  127.49    8.00
  -3  -5  -3  122.99    8.20
   3   5   3  120.79    5.40
   3   5   3  122.89    8.30
  -4  -5  -3   42.80    5.70
   4  -5   3   49.10    5.90
   4   5   3   44.10    2.60
   4   5   3   42.20    6.20
   5  -5   3    6.70    2.50
  -5  -5  -3    5.50    2.90
   5   5   3   11.90    3.80
  -6  -5  -3  472.85   18.60
   6  -5   3  455.15   18.10
   6   5   3  474.65   19.90
  -7  -5  -3  163.58   10.60
   7  -5   3  160.08   10.20
   7   5   3  167.78   11.40
  -8  -5  -3  185.48   12.20
   8  -5   3  225.98   12.80
   8   5   3  214.28   13.60
   9  -5   3   13.20    4.90
  -9  -5  -3   14.70    5.00
   9   5   3   18.70    5.50
 -10  -5  -3   51.19    8.80
  10  -5   3   48.60    7.80
  10   5   3   60.29    9.90
  11  -5   3  219.48   14.60
 -11  -5  -3  209.58   15.30
 -11   5  -3  173.88   13.50
  11   5   3  198.28   17.40
 -12  -5  -3   30.80    7.90
  12  -5   3   14.00    6.20
 -12   5  -3   16.10    6.50
  12   5   3   15.70    5.90
  13  -5   3   49.00    9.60
 -13  -5  -3   55.49   10.90
 -13   5  -3   53.79   10.30
  13   5   3   75.19   12.20
 -14  -6   3   36.70    9.20
 -13  -6   3   -2.80    4.20
 -13   6   3    7.20    5.60
  13   6  -3    2.60    4.80
 -12  -6   3   65.69   10.40
 -12   6   3   83.89   11.40
 -11  -6   3   13.00    5.60
  11   6  -3    2.40    3.50
 -11   6   3   19.90    5.60
 -10  -6   3   -1.50    2.90
  10   6  -3    1.90    4.00
 -10   6   3    5.90    3.30
 -10   6   3    8.00    4.20
  -9  -6   3  246.98   15.10
  -9   6   3  276.97   14.60
  -9   6   3  261.37   12.80
   9   6  -3  252.37   15.00
  -8  -6   3  986.00   33.00
  -8   6   3  978.10   31.30
   8   6  -3  908.71   32.70
  -8   6   3  992.20   29.00
  -7  -6   3   49.50    6.90
  -7  -6   3   67.29    4.00
  -7   6   3   67.39    6.80
  -7   6   3   71.19    8.00
   7   6  -3   87.29   10.10
  -6  -6   3  741.23   19.70
  -6  -6   3  752.12   25.60
  -6   6   3  734.73   24.30
  -6   6   3  736.63   22.50
   6   6  -3  760.92   27.50
  -5  -6   3  192.28    7.40
  -5  -6   3  183.08   10.30
  -5   6   3  192.88    8.90
   5   6  -3  186.38   11.40
  -5   6   3  178.48    9.70
  -4  -6   3   12.60    2.30
  -4  -6   3   10.50    3.20
   4   6  -3   10.40    3.30
  -4   6   3   11.20    2.80
  -4   6   3   14.20    2.70
  -3  -6   3  591.54   20.20
  -3  -6   3  612.74   17.50
   3   6  -3  626.94   21.10
  -3   6   3  622.54   19.60
  -3   6   3  587.54   18.10
  -2  -6   3    4.20    2.30
  -2  -6   3    1.10    1.20
   2   6  -3    2.60    2.40
  -2   6   3    4.90    2.00
  -2   6   3    0.90    1.60
  -1  -6   3   36.00    5.20
  -1  -6   3   32.50    3.90
   1   6  -3   36.90    5.10
  -1   6   3   32.60    4.30
  -1   6   3   33.90    4.20
   0   6   3  657.83   20.90
   0   6   3  650.03   19.20
   0   6  -3  659.33   22.00
   1   6   3  367.46   12.30
   1   6   3  338.87   14.40
  -1   6  -3  347.17   14.80
   2   6   3   10.80    2.50
  -2   6  -3    6.30    2.60
   2   6   3    3.10    2.50
  -3  -6  -3   20.50    4.50
   3   6   3   23.40    3.20
  -3   6  -3   23.40    4.60
   3   6   3   26.70    5.20
  -4  -6  -3  241.48   12.80
  -4   6  -3  266.37   13.00
   4   6   3  282.67   14.10
   4   6   3  253.17    8.00
   5  -6   3  405.26   17.40
  -5  -6  -3  443.76   18.20
   5   6   3  469.15   19.60
  -6  -6  -3 1570.44   44.90
   6  -6   3 1585.74   44.60
   6   6   3 1511.05   46.30
  -7  -6  -3   27.60    5.60
   7  -6   3   19.60    4.60
   7   6   3   25.90    6.20
  -8  -6  -3   21.20    5.60
   8  -6   3   33.10    6.50
   8   6   3   20.90    6.00
  -9  -6  -3  110.59   11.60
   9  -6   3   96.79   11.00
   9   6   3  133.49   14.00
 -10  -6  -3   38.10    8.30
  10  -6   3   26.90    6.30
  10   6   3   40.00    8.40
 -11  -6  -3   35.60    7.90
  11  -6   3   22.50    6.30
  11   6   3   32.30    8.40
  12  -6   3   52.39    9.40
 -12  -6  -3   46.10    9.60
 -12   6  -3   26.40    7.20
  12   6   3   54.09   10.80
  13  -6   3   -1.40    5.10
 -13  -6  -3   -0.80    6.00
 -13   6  -3   -4.50    5.00
  13   6   3    5.50    7.10
 -13  -7   3   24.10    8.00
  13   7  -3   -0.30    3.70
 -13   7   3   20.90    7.20
 -12  -7   3    2.70    4.40
 -12   7   3    4.20    5.00
  12   7  -3    7.00    4.70
 -11  -7   3  115.99   13.90
 -11   7   3   93.49   11.10
  11   7  -3   69.79   10.60
 -10  -7   3   23.20    6.50
  10   7  -3    9.50    5.20
 -10   7   3   11.50    4.80
  -9  -7   3  861.71   32.30
  -9   7   3  881.31   28.10
   9   7  -3  823.52   32.40
  -9   7   3  930.11   31.10
  -8  -7   3  203.08   13.30
   8   7  -3  187.88   13.40
  -8   7   3  195.88   12.10
  -8   7   3  197.48   10.80
  -7  -7   3  488.05   20.80
  -7  -7   3  474.15   13.70
  -7   7   3  480.15   17.70
   7   7  -3  499.95   22.40
  -7   7   3  504.95   19.70
  -6  -7   3  493.45   14.50
  -6  -7   3  484.85   20.10
   6   7  -3  517.35   22.20
  -6   7   3  509.25   19.30
  -6   7   3  517.15   17.70
  -5  -7   3  550.34   21.00
  -5  -7   3  570.34   16.40
  -5   7   3  579.54   20.30
   5   7  -3  552.64   22.30
  -5   7   3  572.84   18.70
  -4  -7   3   78.89    4.90
  -4  -7   3   85.49    8.50
   4   7  -3   80.89    8.40
  -4   7   3   83.59    6.60
  -4   7   3   89.69    6.10
  -3  -7   3    1.40    1.30
  -3  -7   3    3.70    2.60
   3   7  -3    2.30    2.40
  -3   7   3    0.30    1.50
  -3   7   3    2.90    2.20
  -2  -7   3   19.30    3.20
  -2  -7   3   21.40    4.70
  -2   7   3   12.90    3.00
  -2   7   3   16.70    3.40
   2   7  -3   12.30    3.40
  -1   7   3  166.78    8.30
   1   7  -3  180.08   10.20
  -1   7   3  178.38    9.10
   0   7  -3   18.50    4.30
   0   7   3   12.50    2.60
   0   7   3   10.10    3.10
  -1   7  -3  365.26   16.00
   1   7   3  359.56   12.60
   1   7   3  364.46   15.40
  -2   7  -3   41.00    6.30
   2   7   3   32.30    5.60
   2   7   3   37.40    4.20
  -3  -7  -3   51.89    7.30
   3   7   3   61.59    5.20
  -3   7  -3   64.39    7.80
   3   7   3   47.90    6.90
  -4  -7  -3   79.49    8.50
  -4   7  -3  101.39    9.60
   4   7   3   98.29   10.20
   4   7   3   84.29    4.80
  -5  -7  -3   11.10    4.20
   5   7   3   31.30    6.60
  -5   7  -3   15.00    4.40
  -6  -7  -3    6.10    3.70
   6   7   3   12.50    4.70
  -6   7  -3    5.80    3.50
   7  -7   3   99.89   10.60
  -7  -7  -3   80.79    9.50
   7   7   3   93.79   12.00
  -8  -7  -3   67.49    9.10
   8  -7   3   81.99    9.70
   8   7   3   93.39   11.90
   9  -7   3   64.09    9.00
  -9  -7  -3   81.29   10.30
   9   7   3   96.49   12.80
  10  -7   3   69.29   10.00
 -10  -7  -3   72.09   10.70
  10   7   3   76.19   11.60
 -11  -7  -3    4.90    5.30
  11  -7   3    4.10    3.80
  11   7   3    8.30    6.40
 -12  -7  -3   34.90    8.40
  12  -7   3   25.80    7.40
  12   7   3   36.90   10.30
 -13  -8   3   22.90    8.10
 -13   8   3   20.40    7.40
  13   8  -3   15.40    6.90
 -12  -8   3    6.90    5.30
 -12   8   3    3.80    4.70
  12   8  -3    5.90    5.40
 -11  -8   3   98.99   13.10
 -11   8   3   98.49   12.10
  11   8  -3  117.49   14.00
 -10  -8   3    4.50    4.00
 -10   8   3    1.40    3.90
  10   8  -3   10.20    5.50
  -9  -8   3    6.80    4.60
  -9   8   3    9.70    3.80
   9   8  -3   10.80    5.50
  -9   8   3    5.20    3.90
  -8  -8   3  297.67   16.80
  -8   8   3  287.27   13.70
  -8   8   3  287.57   15.20
   8   8  -3  260.77   17.40
  -7  -8   3  205.28   13.00
  -7   8   3  182.18   10.30
  -7   8   3  184.18   11.50
   7   8  -3  180.48   13.90
  -6  -8   3 1574.24   46.10
   6   8  -3 1477.95   47.40
  -6   8   3 1639.74   42.70
  -6   8   3 1523.55   44.00
  -5  -8   3   48.20    7.20
  -5   8   3   43.10    5.60
  -5   8   3   44.00    6.40
   5   8  -3   52.79    8.10
  -4  -8   3   33.10    5.70
  -4   8   3   32.30    4.70
  -4   8   3   34.00    5.30
   4   8  -3   25.20    5.50
  -3  -8   3  356.26   16.40
  -3   8   3  346.87   13.90
  -3   8   3  384.86   14.90
   3   8  -3  358.96   16.40
  -2  -8   3 1385.76   41.10
   2   8  -3 1444.16   40.80
  -2   8   3 1366.96   37.80
  -2   8   3 1371.86   37.60
  -1   8   3   93.59    7.00
  -1   8   3   82.79    6.10
   1   8  -3  100.99    9.80
   0   8   3   59.29    7.00
   0   8  -3   73.09    8.10
   0   8   3   74.09    5.40
   1   8   3  192.28    8.90
   1   8   3  211.78   11.60
  -1   8  -3  203.58   12.20
   2   8   3   88.99    9.60
   2   8   3   80.79    5.40
  -2   8  -3   94.59    9.80
  -3   8  -3  319.07   15.70
   3   8   3  325.77   12.00
   3   8   3  351.56   16.90
  -4  -8  -3   82.49    9.80
   4   8   3   87.19    5.40
   4   8   3   76.99    9.30
  -4   8  -3   91.79    9.90
  -5  -8  -3   78.99    9.60
  -5   8  -3   74.69    9.00
   5   8   3   86.49   10.50
  -6  -8  -3  198.68   13.30
   6   8   3  210.18   14.00
  -6   8  -3  219.48   13.70
  -7  -8  -3    2.70    3.40
  -7   8  -3    8.80    4.90
   7   8   3    2.80    3.60
  -8  -8  -3  732.33   29.70
   8   8   3  735.73   30.80
  -8   8  -3  812.02   30.60
  -9  -8  -3  289.17   18.00
  -9   8  -3  315.87   18.70
   9   8   3  287.07   19.30
 -10  -8  -3   11.80    5.50
  10  -8   3    9.20    5.40
  10   8   3   19.40    7.40
 -10   8  -3   18.60    6.90
  11  -8   3   -0.60    4.00
 -11  -8  -3    8.40    6.00
  11   8   3    3.90    6.00
 -11   8  -3    1.00    5.20
 -12  -8  -3  315.77   21.40
  12  -8   3  273.07   19.00
  12   8   3  278.67   21.40
 -13  -9   3  211.78   20.60
  13   9  -3  260.97   19.50
 -13   9   3  243.98   18.30
 -12  -9   3  130.69   15.70
  12   9  -3  118.29   15.70
 -12   9   3  131.39   14.70
 -11  -9   3    1.90    4.50
  11   9  -3    4.00    5.30
 -11   9   3    1.90    4.50
 -10  -9   3   64.79   10.70
 -10   9   3   74.69   10.10
  10   9  -3   71.29   11.80
  -9  -9   3   59.39    9.50
  -9   9   3   67.49    9.10
  -9   9   3   72.39    8.70
   9   9  -3   72.29   11.60
  -8  -9   3  150.88   14.00
  -8   9   3  118.69   11.40
   8   9  -3  173.78   17.10
  -8   9   3  135.89    9.70
  -7  -9   3  355.26   18.60
  -7   9   3  393.66   17.80
   7   9  -3  335.07   19.90
  -7   9   3  372.06   16.00
  -6  -9   3   69.19    9.40
  -6   9   3   67.89    8.00
   6   9  -3   82.39   11.10
  -6   9   3   82.69    8.30
  -5  -9   3   72.29    9.10
  -5   9   3   72.39    7.50
  -5   9   3   66.09    7.90
   5   9  -3   84.29   10.20
  -4  -9   3   99.89   10.90
   4   9  -3   88.29   10.30
  -4   9   3   81.49    8.40
  -4   9   3   95.99    8.40
  -3  -9   3  427.26   19.00
  -3   9   3  382.16   15.80
  -3   9   3  378.96   15.60
   3   9  -3  391.06   18.20
  -2  -9   3 1413.66   43.00
   2   9  -3 1405.66   41.90
  -2   9   3 1359.36   38.40
  -2   9   3 1417.46   39.30
   1   9  -3 1588.04   45.40
  -1   9   3 1571.54   41.40
  -1   9   3 1493.45   42.70
   0   9   3   77.39    5.80
   0   9   3   90.19    8.90
   0   9  -3   95.89    9.80
   1   9   3  539.25   17.40
   1   9   3  510.35   20.50
  -1   9  -3  512.55   21.30
   2   9   3   13.10    3.10
   2   9   3   12.70    4.30
  -2   9  -3   17.60    5.20
  -3   9  -3   33.00    6.00
   3   9   3   28.60    4.10
   3   9   3   30.00    6.40
  -4  -9  -3   76.29   10.00
   4   9   3   85.89   10.20
  -4   9  -3   81.29    9.50
   4   9   3   84.29    5.70
  -5  -9  -3  151.78   14.00
  -5   9  -3  118.09   11.60
   5   9   3  101.99   11.40
  -6  -9  -3  102.49   12.10
  -6   9  -3   78.99    9.50
   6   9   3   90.29   11.90
  -7  -9  -3  284.37   17.40
  -7   9  -3  293.57   17.40
   7   9   3  354.96   19.80
  -8  -9  -3  367.56   20.20
  -8   9  -3  335.67   19.50
   8   9   3  395.56   22.00
  -9  -9  -3   99.39   13.20
  -9   9  -3  117.49   13.10
   9   9   3  114.49   14.30
 -10  -9  -3   35.40    8.80
 -10   9  -3   35.10    8.50
  10   9   3   27.50    8.70
 -11  -9  -3    2.10    5.50
  11   9   3    4.70    6.70
 -11   9  -3    2.20    6.10
 -12  -9  -3   25.40    8.70
  12   9   3   23.20    9.90
 -12   9  -3   28.00    8.90
 -12 -10   3   41.90    9.70
  12  10  -3   45.10   11.40
 -12  10   3   57.79   10.80
 -11 -10   3   -0.10    4.90
  11  10  -3   -4.20    5.00
 -11  10   3   -2.10    4.10
 -10 -10   3    3.10    4.30
  10  10  -3    8.00    6.00
 -10  10   3   12.20    6.00
  -9 -10   3    8.00    4.80
  -9  10   3   23.70    5.70
   9  10  -3   10.90    7.00
  -9  10   3   10.60    4.90
  -8 -10   3   20.80    6.00
  -8  10   3   15.30    4.50
   8  10  -3   18.70    7.50
  -8  10   3   20.70    5.60
  -7 -10   3  320.77   18.10
  -7  10   3  305.17   16.40
   7  10  -3  291.27   19.50
  -7  10   3  331.77   15.60
  -6 -10   3    3.30    3.90
   6  10  -3   17.10    6.00
  -6  10   3   19.40    5.20
  -6  10   3   15.70    4.50
  -5 -10   3  141.79   11.10
  -5  10   3  151.68    9.80
   5  10  -3  142.29   13.80
  -5  10   3  123.69    9.40
  -4 -10   3   23.80    5.90
  -4  10   3   11.70    3.70
  -4  10   3   14.80    4.10
   4  10  -3   22.00    6.00
  -3 -10   3   24.30    5.90
   3  10  -3   20.00    5.00
  -3  10   3   25.90    4.90
  -3  10   3   21.80    4.30
  -2  10   3  626.24   22.90
  -2  10   3  654.63   22.40
   2  10  -3  686.03   25.90
  -1  10   3   79.49    7.50
   1  10  -3   81.79    9.70
  -1  10   3   72.49    8.20
   0  10   3   18.40    3.70
   0  10   3   12.70    4.30
   0  10  -3   15.90    5.00
  -1  10  -3  133.89   12.20
   1  10   3  149.69   10.80
   1  10   3  144.39    8.30
   2  10   3 1372.46   42.60
   2  10   3 1376.36   36.60
  -2  10  -3 1371.06   42.90
   3  10   3   39.10    7.70
   3  10   3   37.90    4.80
  -3  10  -3   31.10    6.80
   4  10   3  349.57   18.80
   4  10   3  321.47   12.50
  -4  10  -3  335.07   17.60
  -5 -10  -3   84.09   11.20
   5  10   3   77.89   11.00
  -5  10  -3   79.59   10.20
  -6 -10  -3  340.37   19.50
   6  10   3  411.06   21.70
  -6  10  -3  353.66   19.00
  -7 -10  -3   61.19   10.30
  -7  10  -3   59.39    9.20
   7  10   3   53.69    9.70
  -8 -10  -3  212.38   16.30
   8  10   3  272.17   18.80
  -8  10  -3  236.28   16.50
  -9 -10  -3   70.99   11.70
   9  10   3   40.70    9.30
  -9  10  -3   40.70    8.70
 -10 -10  -3    9.90    6.40
  10  10   3   -4.10    5.00
 -10  10  -3    1.10    6.00
 -11 -10  -3   57.29   12.00
  11  10   3   83.79   14.50
 -11  10  -3   73.19   12.80
 -12 -11   3   15.30    7.80
 -12  11   3   28.60    8.60
  12  11  -3   16.40    9.10
 -11 -11   3   14.20    6.90
 -11  11   3   24.40    7.60
  11  11  -3   28.10    9.50
 -10 -11   3   91.99   13.40
 -10  11   3   93.39   12.50
  10  11  -3   95.19   14.50
  -9 -11   3   79.59   11.20
   9  11  -3   77.09   12.90
  -9  11   3   95.29   12.20
  -8 -11   3   39.40    8.10
  -8  11   3   28.70    6.60
  -8  11   3   41.30    7.10
   8  11  -3   27.20    8.50
  -7 -11   3   29.40    7.50
  -7  11   3   35.70    6.80
  -7  11   3   27.20    5.80
   7  11  -3   11.90    6.50
  -6 -11   3   36.60    7.90
  -6  11   3   43.80    7.40
  -6  11   3   55.59    7.70
   6  11  -3   45.60    9.50
  -5 -11   3   29.70    7.40
   5  11  -3   36.40    8.30
  -5  11   3   35.20    6.00
  -5  11   3   29.40    5.70
  -4 -11   3  200.08   13.90
  -4  11   3  186.28   11.50
  -4  11   3  182.38   11.60
   4  11  -3  180.38   13.70
  -3 -11   3   18.10    5.50
  -3  11   3   10.40    3.50
  -3  11   3    7.40    3.90
   3  11  -3   19.70    5.90
  -2  11   3   54.19    7.40
   2  11  -3   59.59    8.70
  -2  11   3   53.59    6.70
   1  11  -3   14.00    4.90
  -1  11   3    9.20    3.20
  -1  11   3   11.90    4.50
   0  11   3  103.39    7.60
   0  11  -3  110.19   11.50
   0  11   3  102.59   10.50
  -1  11  -3 1341.17   43.10
   1  11   3 1351.56   41.90
   1  11   3 1332.97   37.00
  -2  11  -3  426.56   20.30
   2  11   3  379.46   19.30
   2  11   3  436.16   15.80
   3  11   3   14.70    5.40
   3  11   3   14.80    3.50
  -3  11  -3    8.80    4.50
   4  11   3   84.29   11.10
  -4  11  -3  109.69   11.90
   4  11   3   87.19    6.80
  -5  11  -3  999.10   36.00
   5  11   3 1004.60   37.50
  -6 -11  -3    8.80    5.60
   6  11   3   13.90    6.40
  -6  11  -3   11.70    5.40
  -7 -11  -3    3.60    4.70
  -7  11  -3    8.60    5.60
   7  11   3   18.30    7.40
  -8 -11  -3    6.70    5.70
  -8  11  -3    0.70    4.60
   8  11   3    9.30    6.50
  -9 -11  -3   43.70   10.30
   9  11   3   44.50   10.00
  -9  11  -3   35.50    8.70
 -10 -11  -3   67.79   12.30
  10  11   3  104.49   15.30
 -10  11  -3  101.69   13.70
 -11 -11  -3    0.90    6.10
 -11  11  -3   21.40    8.50
  11  11   3   12.80    7.80
 -11 -12   3   16.10    7.80
 -11  12   3   17.00    6.80
  11  12  -3    7.60    8.80
 -10 -12   3   63.49   11.20
 -10  12   3   77.19   11.70
  10  12  -3   92.09   15.10
  -9 -12   3  422.76   24.30
   9  12  -3  427.76   26.70
  -9  12   3  419.26   22.30
  -8 -12   3    4.20    4.70
  -8  12   3    5.10    4.60
  -8  12   3    5.40    4.70
   8  12  -3   -1.80    5.30
  -7 -12   3   32.40    7.90
   7  12  -3   29.80    8.40
  -7  12   3   36.40    6.90
  -7  12   3   38.30    7.40
  -6 -12   3   22.50    6.90
  -6  12   3   32.20    6.40
  -6  12   3   18.40    5.60
   6  12  -3   15.70    6.90
  -5 -12   3  276.67   17.60
  -5  12   3  313.57   16.60
   5  12  -3  309.47   19.30
  -5  12   3  309.17   16.10
  -4 -12   3  187.98   14.30
  -4  12   3  174.58   11.90
   4  12  -3  178.08   16.00
  -4  12   3  220.48   13.00
   3  12  -3   36.50    7.70
  -3  12   3   50.39    7.10
  -3  12   3   40.80    7.40
   2  12  -3   19.40    6.10
  -2  12   3   23.10    5.10
  -2  12   3   18.30    5.10
   1  12  -3  303.97   17.80
  -1  12   3  303.77   16.30
  -1  12   3  297.77   14.30
   0  12  -3   35.20    7.30
   0  12   3   15.60    5.40
   0  12   3   26.30    5.10
  -1  12  -3   62.69    9.90
   1  12   3   79.79    7.90
   1  12   3   82.89   10.60
   2  12   3  325.37   13.90
  -2  12  -3  323.67   18.20
   2  12   3  349.77   18.60
   3  12   3   46.40    8.50
   3  12   3   45.90    5.80
  -3  12  -3   50.69    8.80
   4  12   3  204.48   15.20
  -4  12  -3  201.68   14.90
   4  12   3  188.78   13.20
   5  12   3  236.18   17.00
  -5  12  -3  198.48   14.80
  -6 -12  -3   97.39   13.20
  -6  12  -3   84.29   11.40
   6  12   3   58.89   10.20
  -7 -12  -3  107.69   13.90
   7  12   3   94.09   13.10
  -7  12  -3   98.39   12.60
  -8 -12  -3   16.10    7.00
   8  12   3    7.20    7.10
  -8  12  -3    1.40    5.40
  -9 -12  -3   16.80    7.50
   9  12   3   19.10    7.80
  -9  12  -3   21.50    7.60
 -10 -12  -3   19.30    8.90
  10  12   3    4.70    6.80
 -10  12  -3   17.90    7.80
 -11 -13   3    2.80    6.40
 -11  13   3    5.20    6.40
  11  13  -3    0.30    8.40
 -10 -13   3   79.29   12.90
 -10  13   3   86.39   13.00
  10  13  -3  101.69   16.20
  -9 -13   3    1.20    5.10
  -9  13   3    0.40    4.40
   9  13  -3    8.00    8.40
  -8 -13   3   37.60    9.00
  -8  13   3   30.50    7.50
   8  13  -3   26.30    9.40
  -8  13   3   17.30    6.30
  -7 -13   3   37.80    9.20
   7  13  -3   43.70   10.20
  -7  13   3   35.50    6.90
  -7  13   3   46.60    8.50
  -6 -13   3  144.89   15.60
  -6  13   3  173.38   12.60
  -6  13   3  148.09   13.70
   6  13  -3  167.28   17.60
  -5 -13   3  106.99   13.50
   5  13  -3  129.99   15.10
  -5  13   3  114.19   11.60
  -5  13   3  128.49   12.30
  -4  13   3   81.49    9.70
  -4  13   3   93.49   10.60
   4  13  -3   75.49   11.10
  -3  13   3   66.09    8.50
   3  13  -3   74.39   10.70
  -3  13   3   77.89    9.60
  -2  13   3    8.70    4.10
  -2  13   3    6.00    3.90
   2  13  -3    9.00    5.10
  -1  13   3   17.60    4.90
  -1  13   3    3.00    3.70
   1  13  -3   12.00    5.20
   0  13   3   94.39   11.40
   0  13  -3   87.29   11.40
   0  13   3  110.19    8.60
  -1  13  -3  158.58   15.40
   1  13   3  170.28   15.60
   1  13   3  172.78   10.30
   2  13   3    2.60    3.20
  -2  13  -3    5.10    5.00
   2  13   3    3.70    4.50
  -3  13  -3   11.10    5.40
   3  13   3   14.70    6.20
   3  13   3   13.20    3.90
  -4  13  -3   86.09   11.70
   4  13   3   56.39   10.10
  -5  13  -3   75.09   10.80
   5  13   3   97.39   13.40
   6  13   3   -2.90    4.90
  -6  13  -3    1.60    4.90
  -7 -13  -3   62.79   11.40
  -7  13  -3   54.39   10.70
   7  13   3   70.19   12.40
  -8 -13  -3    1.50    5.60
   8  13   3    1.70    5.40
  -8  13  -3   -5.30    4.80
  -9 -13  -3    0.70    6.30
  -9  13  -3   11.30    7.20
   9  13   3    5.60    7.20
 -10 -13  -3   14.70    8.00
  10  13   3   47.60   12.50
 -10  13  -3   49.30   11.60
 -10 -14   3   17.40    8.20
  10  14  -3   27.80   11.10
 -10  14   3   27.90    8.50
  -9 -14   3   68.89   13.00
  -9  14   3   41.70    9.00
   9  14  -3   45.20   12.30
  -8 -14   3   42.60   10.50
  -8  14   3   46.80    9.20
  -8  14   3   28.70    7.30
   8  14  -3   41.80   11.50
  -7 -14   3  102.39   14.40
   7  14  -3   94.09   14.40
  -7  14   3   82.19   10.80
  -7  14   3   82.19   11.50
  -6 -14   3   30.20    8.50
   6  14  -3   52.89   11.40
  -6  14   3   32.60    7.50
  -6  14   3   38.50    7.60
  -5  14   3   51.39    8.80
   5  14  -3   53.69   11.50
  -5  14   3   45.90    8.20
   4  14  -3    9.00    5.80
  -4  14   3    8.70    4.30
  -4  14   3    8.80    5.50
  -3  14   3    1.80    3.60
   3  14  -3    2.70    5.00
  -3  14   3    4.00    4.20
  -2  14   3  111.99   11.20
   2  14  -3  106.69   13.40
  -2  14   3  112.39   12.40
   1  14  -3    5.20    4.70
  -1  14   3    2.30    3.70
  -1  14   3    7.40    5.20
   0  14  -3  210.28   18.60
   0  14   3  210.88   15.10
   0  14   3  248.18   13.40
  -1  14  -3  133.39   14.70
   1  14   3  111.39   10.10
   1  14   3  136.09   14.10
   2  14   3  176.28   16.90
  -2  14  -3  204.18   18.70
   2  14   3  177.48   10.90
   3  14   3  205.68   11.60
   3  14   3  203.88   19.10
  -3  14  -3  189.68   17.50
  -4  14  -3   74.09   11.80
   4  14   3   42.50    9.40
   5  14   3    8.70    6.70
  -5  14  -3   29.50    8.00
   6  14   3  314.97   21.80
  -6  14  -3  341.17   21.30
  -7  14  -3    4.70    6.50
   7  14   3   -2.40    5.40
  -8  14  -3   12.90    7.00
   8  14   3   11.20    8.40
  -9 -14  -3   52.99   11.80
   9  14   3   70.59   14.20
  -9  14  -3   43.50   10.30
  -9 -15   3    0.60    6.70
  -9  15   3   -0.50    5.20
   9  15  -3   -0.50    8.00
  -8 -15   3   14.50    7.30
   8  15  -3   30.90   11.00
  -8  15   3   24.50    7.90
  -7 -15   3    3.10    5.80
  -7  15   3   -3.60    4.90
  -7  15   3   15.20    6.70
   7  15  -3   13.90    9.00
  -6  15   3  101.29   12.60
  -6  15   3   80.89   10.90
   6  15  -3   98.59   14.50
  -5  15   3   28.50    7.20
   5  15  -3   46.10   11.50
  -5  15   3   48.10    8.90
  -4  15   3   82.29   10.70
  -4  15   3   92.49   11.90
   4  15  -3   94.89   14.50
  -3  15   3  179.58   13.40
  -3  15   3  170.18   16.00
   3  15  -3  163.88   19.20
  -2  15   3  181.28   16.70
   2  15  -3  163.98   17.50
  -2  15   3  154.98   14.00
  -1  15   3  215.08   16.00
  -1  15   3  254.87   14.90
   1  15  -3  211.68   20.00
   0  15   3  152.28   15.80
   0  15   3  148.09   11.10
   0  15  -3  115.49   14.80
  -1  15  -3  203.58   18.80
   1  15   3  178.08   12.30
   1  15   3  266.27   17.80
   2  15   3    9.20    4.60
  -2  15  -3    5.60    6.20
   2  15   3   -0.70    4.80
  -3  15  -3    5.10    5.40
   3  15   3    4.90    5.30
   4  15   3    5.80    6.60
  -4  15  -3   12.30    6.10
  -5  15  -3  142.79   15.90
   5  15   3  127.69   16.10
   6  15   3   -1.20    6.10
  -6  15  -3   -1.10    5.90
   7  15   3   16.60    8.50
  -7  15  -3   18.20    8.10
  -8  15  -3   54.79   12.00
   8  15   3   50.89   12.20
  -8 -16   3   26.20   10.20
   8  16  -3   34.30   11.80
  -8  16   3   22.00    7.80
  -7  16   3    2.20    5.40
   7  16  -3   -0.90    7.70
  -7  16   3    1.00    5.90
  -6  16   3  120.09   14.40
   6  16  -3  103.49   16.20
  -6  16   3  103.69   13.30
  -5  16   3  101.99   12.70
  -5  16   3   84.29   12.30
   5  16  -3   82.69   14.20
   4  16  -3   14.50    7.30
  -4  16   3   10.10    5.20
  -4  16   3    8.00    5.40
   3  16  -3   13.00    7.40
  -3  16   3   19.70    7.00
  -3  16   3   18.70    6.80
  -2  16   3  122.99   12.90
   2  16  -3  132.69   16.40
  -2  16   3  121.09   14.40
   1  16  -3  106.69   15.00
  -1  16   3  119.79   14.60
  -1  16   3   92.39   11.20
   0  16  -3  136.89   16.20
   0  16   3  149.29   16.30
   0  16   3  128.79   12.30
   1  16   3   47.60   10.20
   1  16   3   29.20    6.00
  -1  16  -3   34.20    9.70
   2  16   3    9.80    4.70
   2  16   3    5.00    6.70
  -2  16  -3    5.10    5.90
   3  16   3   33.80    9.90
  -3  16  -3   49.00   10.20
  -4  16  -3   14.10    8.00
   4  16   3   20.70    8.70
   5  16   3    8.00    6.70
  -5  16  -3    3.20    6.20
  -6  16  -3   73.09   12.80
   6  16   3   50.29   11.40
   7  16   3   57.19   12.20
  -7  16  -3   75.09   13.30
   7  17  -3  102.49   17.60
  -7  17   3   64.39   11.60
  -7  17   3   94.69   13.40
   6  17  -3   22.10   10.70
  -6  17   3   24.20    8.70
  -6  17   3    7.60    6.60
   5  17  -3    2.80    8.30
  -5  17   3    4.60    6.60
  -5  17   3    7.70    6.40
  -4  17   3  150.88   16.70
   4  17  -3  163.08   20.20
  -4  17   3  147.49   15.60
  -3  17   3    7.60    5.60
  -3  17   3   14.90    7.10
   3  17  -3   14.20    9.10
   2  17  -3   30.80    9.70
  -2  17   3   45.50   10.40
  -2  17   3   24.90    7.10
  -1  17   3  541.75   24.70
  -1  17   3  534.15   27.70
   1  17  -3  505.85   29.30
   0  17   3   12.20    5.70
   0  17   3   35.60    9.40
   0  17  -3   10.00    7.90
   1  17   3    3.40    6.20
   1  17   3    0.90    4.20
  -1  17  -3    3.90    6.80
   2  17   3   15.50    8.50
  -2  17  -3   25.10    9.30
  -3  17  -3   22.60    8.70
   3  17   3   11.00    7.70
  -4  17  -3    4.40    6.70
   4  17   3   12.30    8.50
   5  17   3   34.80   10.40
  -5  17  -3   32.10    9.90
   6  17   3   18.30    9.40
  -6  17  -3    6.10    7.80
  -6  18   3   58.09   11.50
  -6  18   3   66.09   11.80
   6  18  -3   49.00   14.60
  -5  18   3    6.50    7.10
   5  18  -3    8.50    8.20
  -5  18   3    5.70    5.70
  -4  18   3   10.10    7.10
   4  18  -3    9.30    9.70
  -4  18   3   13.80    7.70
   3  18  -3   80.49   15.10
  -3  18   3   88.99   13.00
  -3  18   3   97.39   14.50
  -2  18   3   -4.10    5.40
  -2  18   3    1.60    4.80
   2  18  -3    3.80    7.80
   1  18  -3   15.90    8.90
  -1  18   3   13.00    8.60
  -1  18   3    4.30    5.20
   0  18  -3   50.59   12.80
   0  18   3   41.60   10.50
   0  18   3   51.59    9.10
  -1  18  -3   -2.60    5.50
   1  18   3   -4.40    5.40
   1  18   3    2.60    5.00
   2  18   3   35.80   10.80
  -2  18  -3   28.50   10.20
   3  18   3   33.10   10.30
  -3  18  -3   29.50   10.20
   4  18   3   52.59   13.00
  -4  18  -3   55.19   12.30
   5  18   3   37.80   11.80
  -5  18  -3   34.10    9.80
   4  19  -3   39.50   13.20
  -4  19   3   17.80    8.80
  -4  19   3   36.00   10.00
  -3  19   3   39.70   10.60
   3  19  -3   51.89   13.10
  -3  19   3   34.90    8.90
  -2  19   3    1.00    7.00
  -2  19   3    7.00    6.10
   2  19  -3    0.60    9.30
  -1  19   3  136.39   15.20
   1  19  -3  156.18   20.30
  -1  19   3  120.99   17.40
   0  19   3   28.40    8.80
   0  19  -3   40.70   12.10
   0  19   3   41.10   10.90
  -1  19  -3   72.29   14.80
   1  19   3   84.79   14.80
   2  19   3    4.20    7.50
  -2  19  -3    9.10    8.10
  -3  19  -3    2.20    8.40
   3  19   3   24.60   10.50
 -14   0   4    8.10    5.60
 -13   0   4    2.50    4.50
 -12   0   4  185.48   13.90
 -11   0   4    3.20    3.30
  11   0  -4    1.70    2.50
 -11   0   4    0.00    3.60
  10   0  -4   19.90    3.80
 -10   0   4   13.40    4.10
 -10   0   4   11.20    4.30
   9   0  -4    5.50    2.40
  -9   0   4    9.60    3.40
  -9   0   4    4.20    3.20
  -8   0   4  257.37   13.10
  -8   0   4  257.47   12.10
   8   0  -4  254.97    9.70
   7   0  -4    2.20    1.40
  -7   0   4    1.00    1.90
   6   0  -4  297.47    9.20
  -6   0   4  287.17   12.00
   5   0  -4    2.40    0.90
  -5   0   4    2.40    1.90
  -4   0   4   23.20    3.60
   4   0  -4   23.60    1.70
   3   0  -4    2.00    0.80
  -3   0   4    3.50    1.70
  -2   0   4 1359.06   33.20
   2   0  -4 1278.87   30.40
  -1   0   4    1.30    1.50
  -1   0   4    6.30    1.30
   0   0   4 1613.24   37.70
   0   0   4 1609.44   38.70
   1   0   4    0.30    1.00
   1   0   4    0.20    1.10
   2   0   4  785.32   21.50
  -2   0  -4  790.32   19.10
   3   0   4   -0.50    1.10
   3   0   4    1.50    1.70
  -3   0  -4   -0.20    0.90
   4   0   4 1991.80   47.80
  -4   0  -4 1972.40   47.00
   4   0   4 1984.20   49.60
   5   0   4   37.40    5.00
  -5   0  -4   27.10    3.70
  -6   0  -4  262.07   10.90
   6   0   4  260.17   12.20
  -7   0  -4   -1.00    1.90
   7   0   4    0.60    2.10
  -8   0  -4  101.09    9.10
   8   0   4   83.79    8.50
   9   0   4    5.80    3.50
  -9   0  -4    2.20    3.00
  10   0   4   74.29    9.60
 -10   0  -4   76.89    9.10
  11   0   4    6.60    4.30
 -11   0  -4    1.20    4.10
 -12   0  -4   75.19   10.70
  12   0   4   73.99   10.30
 -13   0  -4    1.30    5.10
  13   0   4   -2.20    4.00
 -14  -1   4   78.09   11.80
 -14   1   4   61.69   10.70
 -13  -1   4   81.29   11.40
 -13   1   4   91.69   12.50
 -12  -1   4   69.69   10.40
 -12   1   4   77.99   11.20
 -11  -1   4  342.67   18.40
  11   1  -4  351.06   14.60
 -11   1   4  380.26   17.50
 -11   1   4  369.16   19.00
 -10  -1   4   38.10    5.50
  10  -1  -4   38.60    4.90
 -10  -1   4   52.79    7.80
  10   1  -4   35.40    4.70
 -10   1   4   50.19    7.20
 -10   1   4   50.89    7.60
   9  -1  -4   63.79    5.50
  -9  -1   4   55.19    7.50
  -9  -1   4   80.79    7.50
  -9   1   4   74.79    8.10
   9   1  -4   68.39    6.20
   8  -1  -4  414.06   13.20
  -8  -1   4  403.96   17.40
  -8  -1   4  410.06   15.20
  -8   1   4  386.16   16.30
   8   1  -4  422.96   14.00
  -7  -1   4   12.60    3.60
   7  -1  -4    6.70    1.70
  -7  -1   4   11.60    2.80
   7   1  -4   10.20    2.30
  -7   1   4    8.30    3.10
  -6  -1   4  168.38    9.30
   6  -1  -4  162.78    6.00
  -6  -1   4  183.28    8.40
  -6   1   4  155.28    8.90
   6   1  -4  178.38    7.10
   5  -1  -4    9.90    1.40
  -5  -1   4   14.60    3.20
  -5  -1   4    9.40    2.50
  -5   1   4   15.90    3.30
   5   1  -4   16.20    2.30
  -4  -1   4 1078.39   28.70
  -4  -1   4 1078.19   28.10
   4   1  -4 1042.50   26.60
  -4   1   4 1059.59   29.60
  -3  -1   4  567.94   16.60
  -3  -1   4  571.54   16.70
  -3   1   4  553.24   17.70
   3   1  -4  597.04   15.20
  -2  -1   4   29.60    3.20
  -2   1   4   30.60    1.50
   2   1  -4   41.00    2.90
  -2   1   4   42.90    4.50
  -1  -1   4  575.54   14.60
  -1  -1   4  584.64   15.60
  -1  -1   4  579.84   16.30
  -1   1   4  572.04   14.40
  -1   1   4  588.14   17.10
   0  -1   4    9.80    0.90
   0  -1   4   11.20    1.90
   0  -1   4    5.80    1.60
   0   1   4    9.10    1.90
   0   1   4    9.60    1.60
   1  -1   4  311.07   10.40
   1  -1   4  322.67   10.80
   1   1   4  332.27   10.50
   2  -1   4   67.89    4.50
  -2  -1  -4   72.19    3.90
   2  -1   4   68.49    4.60
   2   1   4   63.99    4.30
   2   1   4   72.29    4.10
  -2   1  -4   73.59    2.80
   3  -1   4 2601.44   61.69
  -3  -1  -4 2505.45   59.59
   3   1   4 2570.94   61.89
   3   1   4 2617.74   60.19
  -3   1  -4 2606.44   58.49
  -4  -1  -4   41.90    4.10
   4  -1   4   30.20    3.60
   4  -1   4   40.00    4.70
   4   1   4   43.30    5.20
   4   1   4   36.90    3.70
  -4   1  -4   38.90    3.60
   5  -1   4  213.68   10.20
  -5  -1  -4  206.78    9.10
  -5   1  -4  205.38    8.60
   5   1   4  220.18   10.50
  -6  -1  -4   11.10    2.80
   6  -1   4   10.00    3.00
  -6   1  -4   14.40    3.00
   6   1   4    9.60    3.20
  -7  -1  -4  241.08   11.50
   7  -1   4  247.48   12.40
  -7   1  -4  253.17   11.40
   7   1   4  241.48   12.50
  -8  -1  -4   48.00    6.40
   8  -1   4   56.69    7.20
  -8   1  -4   46.40    6.00
   8   1   4   46.80    6.90
   9  -1   4   59.19    8.20
  -9  -1  -4   52.89    7.20
  -9   1  -4   56.49    7.30
   9   1   4   44.70    7.10
 -10  -1  -4    0.60    3.00
  10  -1   4    3.00    3.20
 -10   1  -4    1.40    3.00
  10   1   4    1.60    3.50
 -11  -1  -4   10.80    5.00
  11  -1   4   12.20    5.50
 -11   1  -4   12.60    5.40
  11   1   4   11.10    5.30
  12  -1   4    5.30    4.60
 -12  -1  -4   13.60    6.00
  12   1   4    8.40    4.40
 -12   1  -4   12.40    5.50
  13  -1   4   18.10    6.40
 -13  -1  -4   10.10    6.40
 -13   1  -4    9.50    6.60
  13   1   4    9.50    5.70
 -14  -2   4    0.00    5.30
 -14   2   4   -0.60    5.20
 -13  -2   4   -3.40    4.10
 -13   2   4    1.30    4.20
 -12  -2   4    2.10    4.00
 -12   2   4   -2.10    3.40
 -12   2   4   -3.30    2.70
 -11  -2   4  104.49   12.00
 -11   2   4   91.99   11.20
 -11   2   4   80.19    9.70
  11   2  -4   97.89    8.70
 -10  -2   4   15.80    4.80
 -10  -2   4    7.10    3.00
  10  -2  -4    6.40    2.80
  10   2  -4    4.10    2.40
 -10   2   4   12.70    4.40
  -9  -2   4   48.70    7.20
   9  -2  -4   62.09    5.50
  -9  -2   4   63.09    6.20
   9   2  -4   71.39    6.80
  -9   2   4   48.40    7.20
  -8  -2   4    8.50    2.60
   8  -2  -4    9.50    2.30
  -8  -2   4    7.80    3.40
   8   2  -4   12.30    3.00
  -8   2   4   11.50    3.60
  -7  -2   4  521.85   16.50
   7  -2  -4  495.85   14.70
  -7  -2   4  483.65   18.80
   7   2  -4  528.35   16.50
  -7   2   4  511.55   19.00
   6  -2  -4  228.18    7.60
  -6  -2   4  226.88    9.20
  -6  -2   4  233.88   11.20
   6   2  -4  233.88    9.60
  -6   2   4  227.18   11.20
  -5  -2   4  205.08    8.30
   5  -2  -4  181.98    6.20
  -5  -2   4  216.48    9.90
  -5   2   4  222.38   10.50
   5   2  -4  194.38    8.70
  -4  -2   4 1352.76   34.60
  -4  -2   4 1417.56   36.20
   4   2  -4 1418.66   35.40
  -4   2   4 1397.86   37.50
  -3  -2   4 3432.36   80.39
  -3  -2   4 3666.23   81.29
   3   2  -4 3508.35   80.29
  -3   2   4 3491.05   83.09
  -2  -2   4  236.18    8.60
  -2   2   4  239.48   10.10
   2   2  -4  251.27    8.80
  -2   2   4  244.58    6.70
  -1  -2   4 1352.26   31.50
  -1  -2   4 1318.97   33.00
  -1   2   4 1283.47   34.20
  -1   2   4 1392.26   31.50
   0  -2   4   36.50    2.30
   0  -2   4   25.50    3.00
   0  -2   4   38.40    3.90
   0   2   4   32.20    3.60
   0   2   4   31.90    3.10
   1  -2   4  169.78    7.50
   1  -2   4  162.98    7.10
   1   2   4  155.08    6.80
   2  -2   4  607.34   18.00
  -2  -2  -4  613.84   17.60
   2  -2   4  602.24   18.00
   2   2   4  597.44   18.10
   2   2   4  610.84   16.50
   3  -2   4    4.60    1.80
  -3  -2  -4    6.10    1.90
   3  -2   4    1.10    1.40
   3   2   4    5.10    1.50
   3   2   4    2.50    1.90
   4  -2   4  126.89    7.40
  -4  -2  -4  132.19    6.80
   4   2   4  151.98    8.30
   4   2   4  127.49    5.80
   5  -2   4    8.60    2.70
  -5  -2  -4    8.00    2.40
  -5   2  -4    6.40    2.10
   5   2   4    9.80    2.90
   5   2   4   10.40    1.90
  -6  -2  -4   21.00    3.80
   6  -2   4   16.50    3.70
  -6   2  -4   18.60    3.50
   6   2   4   19.10    4.10
  -7  -2  -4    6.70    2.80
   7  -2   4    8.80    3.30
   7   2   4    2.40    2.50
  -7   2  -4    4.60    2.60
  -8  -2  -4  137.59    9.30
   8  -2   4  132.99    9.60
  -8   2  -4  128.49    8.80
   8   2   4  122.49    9.40
   9  -2   4  125.69   11.20
  -9  -2  -4   93.09    9.50
   9   2   4  122.69   11.60
  -9   2  -4  114.49   10.40
  10  -2   4  270.57   15.30
 -10  -2  -4  269.27   15.20
 -10   2  -4  272.17   14.80
  10   2   4  258.57   15.50
 -11  -2  -4  298.77   17.20
  11  -2   4  282.27   16.60
  11   2   4  312.67   17.60
 -11   2  -4  295.07   16.60
  12  -2   4   66.89    9.90
 -12  -2  -4   30.50    7.60
  12   2   4   52.49    8.80
 -12   2  -4   45.70    8.40
  13  -2   4  145.39   15.00
 -13  -2  -4  114.69   13.80
  13   2   4  175.08   16.70
 -13   2  -4  135.69   14.50
 -14  -3   4   14.10    6.70
 -14   3   4    4.90    5.90
 -13  -3   4  258.07   17.70
 -13   3   4  217.28   16.30
 -12  -3   4   16.10    6.30
 -12   3   4   23.00    6.40
  12   3  -4   31.50    9.10
 -12   3   4   13.30    5.60
 -11  -3   4  269.67   16.40
 -11   3   4  284.57   16.00
  11   3  -4  276.77   13.80
  10  -3  -4  388.46   14.70
 -10  -3   4  414.46   19.60
 -10   3   4  425.16   18.90
  10   3  -4  398.46   16.20
  -9  -3   4   52.79    5.20
   9  -3  -4   54.19    5.40
  -9  -3   4   48.70    7.40
   9   3  -4   54.09    6.20
  -9   3   4   39.60    6.60
  -8  -3   4  164.28    7.80
   8  -3  -4  164.68    7.60
  -8  -3   4  183.28   11.00
   8   3  -4  177.38    9.40
  -8   3   4  171.38   10.60
  -7  -3   4  227.48    9.20
  -7  -3   4  248.08   12.40
   7  -3  -4  230.78    8.80
  -7   3   4  244.58   12.30
   7   3  -4  236.08   11.00
  -6  -3   4   47.90    4.40
  -6  -3   4   57.19    6.50
  -6   3   4   47.20    3.50
   6   3  -4   53.89    6.00
  -6   3   4   57.19    6.50
  -5  -3   4  248.38   11.00
  -5  -3   4  233.18    8.90
  -5   3   4  242.28    7.70
   5   3  -4  241.38   11.00
  -5   3   4  236.68   11.20
  -4  -3   4  883.21   24.70
  -4  -3   4  866.61   22.80
  -4   3   4  870.91   25.70
  -4   3   4  823.62   20.40
   4   3  -4  853.51   24.40
  -3  -3   4  933.31   24.90
  -3  -3   4  961.00   25.90
   3   3  -4  974.10   25.90
  -3   3   4  969.00   27.70
  -3   3   4  989.70   23.00
  -2  -3   4  375.76   12.20
  -2  -3   4  388.46   12.20
  -2   3   4  394.36   11.30
  -2   3   4  407.26   14.30
  -1  -3   4 1012.40   26.50
  -1  -3   4 1064.99   25.60
   1   3  -4  988.10   27.40
  -1   3   4  993.80   27.90
  -1   3   4 1020.90   25.60
   0  -3   4  322.87   11.30
   0  -3   4  319.77   10.10
   0   3   4  322.27   11.50
   0   3   4  312.17   10.70
   0   3  -4  302.87   11.60
   1  -3   4  213.88    8.80
   1  -3   4  189.98    8.70
   1   3   4  204.78    8.70
   1   3   4  217.08    8.40
  -2  -3  -4    6.90    2.40
   2  -3   4    5.30    1.80
   2  -3   4    8.70    2.30
   2   3   4    8.60    1.90
   2   3   4    5.20    2.10
   3  -3   4   92.79    6.10
   3  -3   4   92.69    5.90
  -3  -3  -4   93.29    6.10
   3   3   4   89.49    4.50
   3   3   4   92.09    6.40
  -4  -3  -4  310.87   12.30
   4  -3   4  324.97   12.90
   4   3   4  319.07   10.00
   4   3   4  304.87   13.20
  -5  -3  -4  381.96   14.40
   5  -3   4  391.06   15.10
   5   3   4  376.26   15.50
   5   3   4  368.46   11.10
   6  -3   4   55.49    6.80
  -6  -3  -4   59.69    6.50
   6   3   4   46.10    6.90
   7  -3   4   20.60    4.50
  -7  -3  -4   27.30    4.90
  -7   3  -4   25.30    4.40
   7   3   4   12.90    4.00
  -8  -3  -4    6.00    3.10
   8  -3   4   14.20    4.40
   8   3   4    4.90    3.20
  -8   3  -4    2.30    2.70
  -9  -3  -4    7.20    3.60
   9  -3   4    9.30    4.10
   9   3   4   17.10    5.40
  -9   3  -4    8.20    3.40
 -10  -3  -4   31.50    6.60
  10  -3   4   38.70    7.10
  10   3   4   20.80    6.30
 -10   3  -4   38.20    7.00
 -11  -3  -4  290.97   17.20
  11  -3   4  292.97   17.20
  11   3   4  298.57   17.50
 -11   3  -4  261.77   15.80
 -12  -3  -4   46.30    8.80
  12  -3   4   32.80    7.40
  12   3   4   35.20    8.20
 -12   3  -4   47.10    8.80
  13  -3   4   43.30    9.30
 -13  -3  -4   57.69   10.40
  13   3   4   57.79   10.40
 -14  -4   4    3.20    6.00
 -14   4   4   14.10    6.60
 -13  -4   4    9.60    6.00
 -13   4   4    3.80    5.50
 -13   4   4   13.80    6.10
 -12  -4   4   13.70    6.00
 -12   4   4    7.70    5.20
  12   4  -4   15.60    5.00
 -11  -4   4  279.67   16.90
  11   4  -4  241.28   13.30
 -11   4   4  253.37   15.40
 -10  -4   4  241.08   15.00
  10   4  -4  250.17   13.20
 -10   4   4  259.27   14.80
  -9  -4   4  211.98    8.80
   9  -4  -4  215.98   10.10
  -9  -4   4  226.98   13.50
   9   4  -4  234.78   12.20
  -9   4   4  220.58   12.70
  -8  -4   4   74.19    8.40
  -8  -4   4   70.09    4.80
   8   4  -4   84.29    8.20
  -8   4   4   74.29    8.20
  -7  -4   4    4.80    1.80
  -7  -4   4    3.50    2.80
   7   4  -4    2.30    2.60
  -7   4   4    1.70    1.50
  -7   4   4   -0.70    2.00
  -6  -4   4  493.95   18.40
  -6  -4   4  468.95   14.40
   6   4  -4  478.35   18.50
  -6   4   4  502.85   18.30
  -6   4   4  458.35   14.20
  -5  -4   4  153.58    8.70
  -5  -4   4  143.69    6.60
  -5   4   4  131.29    8.40
  -5   4   4  164.18    6.30
   5   4  -4  162.38    9.30
  -4  -4   4   75.39    4.60
  -4  -4   4   90.79    6.10
  -4   4   4   82.69    6.30
  -4   4   4   75.99    3.80
  -3  -4   4   61.29    5.60
  -3  -4   4   59.29    4.10
   3   4  -4   53.69    5.40
  -3   4   4   54.59    5.70
  -3   4   4   55.99    3.40
  -2  -4   4   89.59    5.30
  -2  -4   4   90.09    5.30
  -2   4   4   92.29    4.80
  -2   4   4   91.29    6.20
   2   4  -4   97.99    6.30
  -1  -4   4 2262.87   52.89
  -1  -4   4 2170.68   52.99
  -1   4   4 2200.18   52.79
   1   4  -4 2234.78   54.79
  -1   4   4 2151.08   54.19
   0  -4   4  639.84   19.50
   0   4  -4  702.83   21.20
   0   4   4  670.63   19.90
   0   4   4  664.03   20.10
   1  -4   4    0.50    1.40
   1   4   4    0.90    1.70
   1   4   4    2.80    1.70
  -1   4  -4    3.50    2.10
   2  -4   4 1327.27   35.50
   2  -4   4 1317.37   34.60
   2   4   4 1353.06   32.90
   2   4   4 1234.08   35.20
  -3  -4  -4  425.46   16.10
   3  -4   4  458.65   16.10
   3   4   4  453.05   12.90
   3   4   4  438.66   16.60
   4  -4   4  200.08   10.10
  -4  -4  -4  192.68   10.00
   4   4   4  190.88   10.80
   4   4   4  200.48    7.00
   5  -4   4   48.10    5.80
  -5  -4  -4   48.90    5.90
   5   4   4   44.80    2.90
   5   4   4   43.90    6.50
  -6  -4  -4  282.77   13.00
   6  -4   4  269.77   13.10
   6   4   4  239.38   13.00
  -7  -4  -4  169.38   10.60
   7  -4   4  180.28   10.90
   7   4   4  174.68   11.60
   8  -4   4  523.05   21.20
  -8  -4  -4  542.95   21.50
   8   4   4  541.95   22.70
   9  -4   4   10.50    4.20
  -9  -4  -4    4.90    3.90
  -9   4  -4    4.30    3.30
   9   4   4    7.00    4.10
 -10  -4  -4  113.79   12.00
  10  -4   4   99.99   11.00
 -10   4  -4  108.49   10.80
  10   4   4   98.89   11.60
  11  -4   4  439.06   21.50
 -11  -4  -4  448.56   22.10
  11   4   4  437.56   22.60
 -11   4  -4  430.06   20.70
 -12  -4  -4    7.00    5.50
  12  -4   4   -0.60    3.90
 -12   4  -4    8.70    5.30
  12   4   4    3.20    4.80
  13  -4   4  114.09   13.90
 -13  -4  -4  128.19   15.00
  13   4   4  142.99   16.40
 -14  -5   4    3.30    5.80
 -14   5   4    7.60    6.30
 -13  -5   4  111.89   14.40
 -13   5   4  116.19   13.80
 -12  -5   4   13.80    6.00
  12   5  -4   12.70    5.00
 -12   5   4   12.50    5.90
 -11  -5   4  182.08   14.10
 -11   5   4  177.38   13.10
  11   5  -4  178.28   12.10
 -10  -5   4  330.87   18.40
 -10   5   4  385.56   18.50
  10   5  -4  356.66   17.30
  -9  -5   4  282.17   15.60
  -9   5   4  242.18   11.40
  -9   5   4  246.68   14.20
   9   5  -4  273.77   14.60
  -8  -5   4  373.76   17.70
  -8  -5   4  380.66   12.40
  -8   5   4  388.76   17.20
   8   5  -4  388.26   17.40
  -8   5   4  393.36   14.20
  -7  -5   4  259.87    9.50
  -7  -5   4  277.97   14.00
  -7   5   4  242.48   10.10
  -7   5   4  299.97   13.70
   7   5  -4  229.38   13.30
  -6  -5   4   54.49    6.70
  -6  -5   4   68.69    4.40
  -6   5   4   61.29    7.10
  -6   5   4   59.49    4.50
  -5  -5   4  436.86   16.70
  -5  -5   4  448.96   13.80
   5   5  -4  383.36   16.80
  -5   5   4  460.55   16.90
  -5   5   4  462.15   13.70
  -4  -5   4  101.89    6.80
  -4  -5   4  105.99    5.60
  -4   5   4   96.39    4.90
  -4   5   4   86.59    6.50
   4   5  -4  101.49    7.30
  -3  -5   4  226.18    9.00
  -3  -5   4  215.38    9.90
   3   5  -4  223.78   10.60
  -3   5   4  243.98   10.70
  -3   5   4  212.48    8.10
  -2  -5   4   79.99    5.60
  -2  -5   4   86.59    5.30
  -2   5   4   86.09    5.10
  -2   5   4   82.99    5.90
   2   5  -4   83.79    7.30
  -1  -5   4   47.00    4.60
   1   5  -4   39.30    5.30
  -1   5   4   36.10    4.30
  -1   5   4   37.00    4.60
   0  -5   4    5.80    2.10
   0   5  -4    4.50    2.80
   0   5   4   11.90    2.90
   0   5   4    7.30    2.70
   1  -5   4    5.50    2.10
   1   5   4    7.30    2.70
   1   5   4    7.10    2.50
  -1   5  -4    4.50    2.80
   2  -5   4    3.80    2.10
   2   5   4    2.30    2.20
   2   5   4    6.70    2.20
  -2   5  -4    5.90    2.80
   3  -5   4  152.18    9.10
  -3  -5  -4  147.89    9.00
   3   5   4  131.89    8.90
   3   5   4  134.49    6.20
  -4  -5  -4 1066.19   32.40
   4  -5   4 1192.08   32.90
   4   5   4 1023.40   32.90
   4   5   4 1086.69   26.70
  -5  -5  -4 1811.42   48.40
   5  -5   4 1856.91   48.50
   5   5   4 1813.22   49.99
   5   5   4 1672.13   40.80
  -6  -5  -4 1130.09   34.50
   6  -5   4 1130.59   34.50
   6   5   4 1157.98   36.30
   7  -5   4    3.40    2.80
  -7  -5  -4    3.10    3.10
   7   5   4    5.80    3.70
   8  -5   4    6.40    3.60
  -8  -5  -4    8.70    4.00
   8   5   4   11.00    4.00
  -9  -5  -4  203.58   13.40
   9  -5   4  169.88   12.40
   9   5   4  182.28   13.80
 -10  -5  -4    7.20    4.70
  10  -5   4    4.70    4.50
 -10   5  -4   15.20    5.10
  10   5   4   17.00    6.10
 -11  -5  -4   21.20    7.30
  11  -5   4   15.20    5.90
 -11   5  -4   13.10    5.50
  11   5   4   13.30    6.00
 -12  -5  -4   12.40    6.80
  12  -5   4    9.10    5.70
 -12   5  -4   17.30    6.60
  12   5   4   12.80    7.30
  13  -5   4    8.70    6.10
 -13  -5  -4    4.90    5.80
  13   5   4    0.50    5.40
 -14  -6   4    9.90    6.70
 -14   6   4    0.50    6.60
 -13  -6   4   18.40    6.60
 -13   6   4    9.00    6.10
 -12  -6   4   98.89   13.50
 -12   6   4   82.69   11.30
  12   6  -4   67.69    9.20
 -11  -6   4    9.10    5.10
  11   6  -4   18.30    5.90
 -11   6   4    2.60    3.80
 -10  -6   4  161.18   15.40
  10   6  -4  149.88   13.40
 -10   6   4  140.69   13.50
  -9  -6   4  705.93   27.60
  -9   6   4  733.03   26.80
  -9   6   4  692.03   22.70
  -8  -6   4  236.38   14.00
  -8  -6   4  235.08    9.10
  -8   6   4  249.08   13.60
  -8   6   4  251.27   11.10
  -7  -6   4   11.40    4.20
  -7  -6   4   15.80    2.70
   7   6  -4   16.30    5.00
  -7   6   4   17.50    4.50
  -7   6   4   12.10    3.00
  -6  -6   4   12.00    2.50
  -6  -6   4    6.30    2.80
  -6   6   4   12.30    3.80
  -6   6   4    8.80    2.50
   6   6  -4    3.70    3.60
  -5  -6   4   47.50    6.40
  -5  -6   4   45.30    4.50
  -5   6   4   42.70    4.50
  -5   6   4   44.50    6.00
   5   6  -4   33.70    5.70
  -4  -6   4  279.27   12.60
  -4  -6   4  268.77   10.30
  -4   6   4  261.97   10.00
  -4   6   4  293.87   12.70
   4   6  -4  286.47   13.20
  -3  -6   4  323.97   13.60
  -3  -6   4  347.57   12.10
  -3   6   4  345.67   13.80
  -3   6   4  342.17   11.80
   3   6  -4  327.17   14.10
  -2  -6   4   15.60    3.60
  -2  -6   4   16.10    3.10
  -2   6   4   16.50    3.00
   2   6  -4   12.90    3.40
  -2   6   4   13.80    3.10
  -1  -6   4   19.20    3.30
  -1  -6   4   24.70    4.50
  -1   6   4   31.00    4.40
   1   6  -4   17.30    3.70
  -1   6   4   19.50    3.60
   0  -6   4   68.99    6.30
   0   6  -4   78.59    8.10
   0   6   4   61.49    6.00
   0   6   4   83.99    7.30
   1  -6   4    6.80    2.20
  -1   6  -4    6.50    2.80
   1   6   4    4.10    2.60
   1   6   4   10.10    2.70
   2   6   4  435.96   14.90
   2   6   4  427.26   17.20
  -2   6  -4  460.85   17.90
  -3  -6  -4  742.73   25.40
   3   6   4  742.33   20.90
  -3   6  -4  746.53   25.20
   3   6   4  756.72   25.70
   4  -6   4 1009.50   31.20
  -4  -6  -4  978.60   31.50
   4   6   4  992.00   25.00
   4   6   4  981.70   32.00
  -5  -6  -4   39.70    6.50
   5  -6   4   48.10    6.90
   5   6   4   36.60    2.60
   5   6   4   36.80    6.40
   6  -6   4  627.64   23.10
  -6  -6  -4  611.24   23.20
   6   6   4  588.74   24.40
   7  -6   4  430.66   18.90
  -7  -6  -4  424.46   19.10
   7   6   4  408.36   20.00
   8  -6   4  215.08   13.70
  -8  -6  -4  218.48   13.90
   8   6   4  240.28   15.30
  -9  -6  -4   -0.60    3.50
   9  -6   4   -3.30    2.40
   9   6   4   -0.50    3.60
 -10  -6  -4   83.79   11.10
  10  -6   4   77.69   10.40
  10   6   4   87.39   11.90
  11  -6   4   20.60    6.70
 -11  -6  -4   11.60    5.30
 -11   6  -4   21.10    6.40
  11   6   4   38.10    9.20
 -12  -6  -4    8.40    6.20
  12  -6   4    8.60    5.90
  12   6   4   17.70    8.10
 -13  -7   4   40.50   10.00
 -13   7   4   34.60    8.70
 -12  -7   4    5.90    5.00
  12   7  -4    1.50    4.50
 -12   7   4    4.10    4.70
 -11  -7   4  131.59   14.20
 -11   7   4  158.38   14.70
 -10  -7   4  114.49   12.80
  10   7  -4   86.69   11.20
 -10   7   4  117.79   12.00
  -9  -7   4  301.27   17.10
  -9   7   4  274.67   13.00
   9   7  -4  275.37   16.90
  -9   7   4  313.17   16.40
  -8  -7   4 1085.59   36.40
   8   7  -4 1031.30   37.20
  -8   7   4 1127.39   31.70
  -8   7   4 1107.39   35.40
  -7  -7   4   87.69    5.30
  -7  -7   4   98.49   10.10
   7   7  -4   94.39   11.30
  -7   7   4  108.29    7.10
  -7   7   4  106.99   10.70
  -6  -7   4  904.51   24.70
  -6  -7   4  962.80   30.80
   6   7  -4  875.81   31.50
  -6   7   4  922.31   26.30
  -6   7   4  914.61   29.40
  -5  -7   4   26.00    3.50
  -5  -7   4   23.40    4.80
  -5   7   4   26.50    3.80
   5   7  -4   22.00    5.10
  -5   7   4   24.90    4.80
  -4  -7   4   19.20    4.30
  -4  -7   4   12.30    2.70
  -4   7   4   15.80    3.80
   4   7  -4   18.80    4.60
  -4   7   4   15.00    3.00
  -3  -7   4  194.98    8.80
  -3  -7   4  204.08   11.00
  -3   7   4  206.68    9.30
   3   7  -4  218.88   11.50
  -3   7   4  197.48   10.30
  -2  -7   4   57.79    7.00
  -2  -7   4   53.49    5.50
  -2   7   4   54.19    5.90
   2   7  -4   59.39    7.00
  -2   7   4   62.29    6.10
  -1  -7   4  174.48   10.20
  -1  -7   4  148.29    8.00
  -1   7   4  161.18    8.90
  -1   7   4  162.08    8.50
   1   7  -4  168.08   10.30
   0  -7   4   63.49    6.10
   0   7  -4   69.59    8.00
   0   7   4   69.89    5.50
   0   7   4   82.89    7.80
  -1   7  -4  200.68   11.60
   1   7   4  181.58   10.90
   1   7   4  201.38    9.50
   2   7   4  239.08   10.60
   2   7   4  276.17   13.80
  -2   7  -4  268.07   13.70
   3   7   4   69.99    5.40
  -3   7  -4   74.49    8.40
   3   7   4   73.59    8.40
  -4  -7  -4  275.47   14.50
  -4   7  -4  284.27   14.60
   4   7   4  274.67   14.90
   4   7   4  270.17    9.80
  -5  -7  -4  134.69   10.50
   5   7   4  146.09   13.00
  -5   7  -4  144.89   10.60
   5   7   4  133.09    5.10
  -6  -7  -4  785.42   28.40
   6  -7   4  796.62   28.30
   6   7   4  755.22   29.40
  -7  -7  -4   15.50    5.20
   7  -7   4   11.70    4.20
   7   7   4   18.40    6.00
  -8  -7  -4  216.88   14.40
   8  -7   4  200.48   13.60
   8   7   4  206.78   15.20
   9  -7   4    8.80    4.80
  -9  -7  -4    0.50    4.10
   9   7   4   -0.40    4.40
 -10  -7  -4    9.30    5.30
  10  -7   4    8.80    4.90
  10   7   4   16.20    6.30
 -11  -7  -4    7.00    5.60
  11  -7   4   -0.60    4.00
  11   7   4    1.10    5.50
  12  -7   4   28.00    7.80
 -12  -7  -4   25.10    7.90
  12   7   4   38.30   10.50
 -13  -8   4   40.20    9.90
 -13   8   4   33.60    8.60
 -12  -8   4    6.90    4.80
 -12   8   4    6.70    5.30
  12   8  -4    1.90    5.60
 -11  -8   4    4.90    4.40
 -11   8   4   -1.20    4.10
  11   8  -4    6.50    4.60
 -10  -8   4   56.19    9.30
  10   8  -4   58.69    9.90
 -10   8   4   68.09    9.70
  -9  -8   4  237.88   15.40
  -9   8   4  240.88   14.90
   9   8  -4  231.48   16.20
  -8  -8   4  107.59   11.90
  -8   8   4   95.69    8.60
  -8   8   4   90.69   10.20
   8   8  -4  107.19   12.90
  -7  -8   4  303.27   11.00
  -7  -8   4  324.27   16.80
  -7   8   4  297.27   15.30
   7   8  -4  293.27   17.90
  -7   8   4  346.97   13.90
  -6  -8   4    4.70    2.00
  -6  -8   4   13.00    4.50
   6   8  -4    8.30    4.20
  -6   8   4    8.10    3.90
  -6   8   4    9.30    3.00
  -5  -8   4   56.79    7.10
  -5  -8   4   62.29    4.90
   5   8  -4   61.19    8.50
  -5   8   4   61.49    6.20
  -5   8   4   45.00    6.20
  -4  -8   4    3.80    2.10
  -4  -8   4    2.50    2.80
  -4   8   4    2.00    2.00
   4   8  -4    0.70    2.60
  -4   8   4    4.60    2.80
  -3  -8   4   90.89    9.50
  -3  -8   4   70.69    5.40
  -3   8   4   62.59    6.60
   3   8  -4   70.89    8.20
  -3   8   4   61.49    6.20
  -2  -8   4 1968.20   53.09
  -2  -8   4 1849.31   48.40
  -2   8   4 1936.51   50.09
   2   8  -4 1924.01   52.89
  -2   8   4 1955.50   49.80
  -1   8   4  393.46   15.70
  -1   8   4  390.86   15.10
   1   8  -4  416.06   18.00
   0   8   4  226.58   11.70
   0   8   4  221.18   10.30
   0   8  -4  215.78   12.70
   1   8   4   95.69    6.70
  -1   8  -4   86.79    9.20
   1   8   4  107.39    9.90
   2   8   4   57.89    7.40
  -2   8  -4   64.29    8.00
   2   8   4   63.19    6.20
  -3   8  -4    9.00    4.00
   3   8   4   15.30    4.60
   3   8   4   11.40    3.10
  -4  -8  -4  224.08   13.80
  -4   8  -4  244.88   14.00
   4   8   4  259.27   14.90
   4   8   4  226.78    9.40
  -5  -8  -4   76.09    9.60
   5   8   4   76.59    9.80
   5   8   4   68.39    4.00
  -5   8  -4   59.79    8.10
  -6  -8  -4   62.59    8.90
   6   8   4   69.79   10.10
  -6   8  -4   49.30    8.00
  -7  -8  -4  132.19   13.60
   7   8   4  119.09   13.10
  -7   8  -4  139.99   13.30
  -8  -8  -4   15.40    6.00
  -8   8  -4   28.20    7.40
   8   8   4   16.60    6.60
   9  -8   4  129.39   13.80
  -9  -8  -4  110.49   13.00
   9   8   4  142.69   15.30
  10  -8   4   17.60    6.40
 -10  -8  -4    7.50    5.50
  10   8   4    9.40    5.90
 -11  -8  -4   10.40    6.10
  11  -8   4    3.80    5.20
  11   8   4   11.50    7.50
  12  -8   4  267.07   19.40
 -12  -8  -4  270.57   20.20
  12   8   4  305.57   22.20
 -13  -9   4  216.98   21.30
 -13   9   4  211.18   19.80
  13   9  -4  192.38   19.40
 -12  -9   4    2.80    5.20
  12   9  -4    7.60    7.00
 -12   9   4   16.40    6.90
 -11  -9   4   39.30    8.50
 -11   9   4   70.79   10.70
  11   9  -4   69.59   11.60
 -10  -9   4   16.90    6.20
  10   9  -4   35.80    8.50
 -10   9   4   21.00    6.20
  -9  -9   4   20.30    5.90
   9   9  -4   21.00    7.00
  -9   9   4   13.30    5.20
  -8  -9   4   17.80    5.70
  -8   9   4   18.80    4.50
  -8   9   4   17.30    5.20
   8   9  -4   27.40    8.50
  -7  -9   4   95.29   10.80
  -7   9   4   94.49   10.50
   7   9  -4  133.59   14.80
  -7   9   4  101.29    9.00
  -6  -9   4  581.64   23.90
  -6   9   4  616.74   20.80
   6   9  -4  592.04   25.60
  -6   9   4  581.84   22.70
  -5  -9   4  172.88   11.80
  -5   9   4  201.28   10.30
   5   9  -4  179.98   12.90
  -5   9   4  190.28   11.50
  -4  -9   4    2.60    2.40
  -4   9   4    6.90    2.90
  -4   9   4    6.70    2.90
   4   9  -4   11.40    4.40
  -3  -9   4  472.75   20.50
  -3   9   4  472.65   18.20
   3   9  -4  468.65   20.40
  -3   9   4  466.75   17.40
  -2  -9   4 1051.49   34.70
  -2   9   4 1065.99   31.50
  -2   9   4 1012.10   31.00
   2   9  -4 1097.29   34.80
   1   9  -4   25.40    5.90
  -1   9   4   20.70    4.10
  -1   9   4   14.20    4.00
   0   9   4   28.60    4.70
   0   9  -4   23.40    5.60
   0   9   4   29.90    5.40
   1   9   4  202.38   10.00
  -1   9  -4  189.28   12.70
   1   9   4  210.58   12.30
  -2   9  -4   14.80    4.90
   2   9   4   17.90    5.00
   2   9   4   27.90    4.50
   3   9   4   36.30    4.90
  -3   9  -4   32.70    6.50
   3   9   4   33.10    6.50
   4   9   4    7.30    2.90
   4   9   4    1.10    3.00
  -4   9  -4    4.60    4.00
  -5  -9  -4   99.19   11.70
   5   9   4  103.79   11.80
  -5   9  -4  117.69   11.90
  -6  -9  -4   41.00    8.10
   6   9   4   26.20    6.60
  -6   9  -4   20.90    5.80
  -7  -9  -4   12.60    5.60
   7   9   4    6.90    5.00
  -7   9  -4   13.80    5.60
  -8  -9  -4  253.57   17.10
  -8   9  -4  230.18   16.40
   8   9   4  286.97   18.80
  -9  -9  -4   73.49   10.90
  -9   9  -4   90.59   12.20
   9   9   4   89.19   13.10
 -10  -9  -4    8.90    5.90
  10   9   4   11.00    6.90
 -10   9  -4   16.80    7.40
 -11  -9  -4    5.30    5.70
  11   9   4    9.70    7.10
 -11   9  -4    9.60    7.00
 -12  -9  -4    6.20    7.00
  12   9   4    4.30    6.50
 -12   9  -4    7.80    8.20
 -12 -10   4  149.39   16.80
 -12  10   4  149.79   16.80
  12  10  -4  145.29   17.50
 -11 -10   4    6.00    5.70
  11  10  -4   12.70    6.70
 -11  10   4    8.30    5.40
 -10 -10   4    8.10    5.50
  10  10  -4   -1.40    5.50
 -10  10   4    1.30    4.20
  -9 -10   4   24.20    6.20
   9  10  -4   38.30    8.90
  -9  10   4   21.50    6.00
  -8 -10   4   28.10    6.90
  -8  10   4   48.50    6.80
   8  10  -4   61.19   11.10
  -8  10   4   63.79    9.60
  -7 -10   4    7.70    3.70
   7  10  -4    1.00    5.20
  -7  10   4    6.20    3.40
  -7  10   4   10.30    4.40
  -6 -10   4   13.10    5.10
   6  10  -4    6.10    4.20
  -6  10   4   10.10    3.70
  -6  10   4    6.30    3.40
  -5 -10   4   22.70    5.30
   5  10  -4   10.10    5.00
  -5  10   4   27.90    5.40
  -5  10   4   27.10    5.10
  -4 -10   4  474.85   22.10
  -4  10   4  503.35   19.20
  -4  10   4  524.95   20.50
   4  10  -4  553.14   23.20
  -3 -10   4   43.00    7.70
  -3  10   4   28.90    5.10
  -3  10   4   34.80    5.50
   3  10  -4   50.79    7.80
  -2  10   4  105.29    9.60
  -2  10   4  124.79    8.60
   2  10  -4  116.19   11.60
  -1  10   4  418.66   16.80
  -1  10   4  461.35   18.60
   1  10  -4  452.95   20.40
   0  10  -4   21.60    5.80
   0  10   4   18.50    4.60
   0  10   4   20.10    3.90
   1  10   4  627.44   21.00
   1  10   4  652.73   24.70
  -1  10  -4  606.54   25.00
   2  10   4  777.82   24.70
  -2  10  -4  850.81   30.50
   2  10   4  779.92   29.40
  -3  10  -4   45.00    7.50
   3  10   4   38.20    7.20
   3  10   4   52.59    6.20
   4  10   4    4.20    4.10
   4  10   4    8.70    3.20
  -4  10  -4    8.40    4.50
  -5 -10  -4   42.80    8.40
   5  10   4   33.10    7.90
  -5  10  -4   29.80    6.90
  -6 -10  -4   67.09   10.30
   6  10   4   62.59   10.00
  -6  10  -4   57.49    9.60
  -7 -10  -4    1.10    4.00
   7  10   4    5.90    5.00
  -7  10  -4    6.10    5.00
  -8 -10  -4  123.59   14.90
   8  10   4   87.39   12.70
  -8  10  -4   99.19   12.90
  -9 -10  -4   42.70    9.50
  -9  10  -4   38.70    9.20
   9  10   4   28.60    9.00
 -10 -10  -4   53.69   11.10
 -10  10  -4   50.89   10.90
  10  10   4   54.79   12.00
 -11 -10  -4   29.60    9.50
  11  10   4   32.50   10.70
 -11  10  -4   52.09   11.80
 -12 -11   4    5.60    6.50
 -12  11   4   14.50    7.50
  12  11  -4   10.30    8.20
 -11 -11   4    9.30    6.40
 -11  11   4    9.10    6.00
  11  11  -4    0.10    7.20
 -10 -11   4    2.80    4.90
  10  11  -4    7.10    6.60
 -10  11   4    0.60    4.70
  -9 -11   4   15.50    5.90
  -9  11   4   20.30    6.40
   9  11  -4   19.90    7.90
  -8 -11   4   37.90    8.60
   8  11  -4   47.20   11.20
  -8  11   4   64.99    8.30
  -8  11   4   56.89    8.90
  -7 -11   4    5.90    4.60
  -7  11   4    4.90    3.90
   7  11  -4   10.40    7.10
  -7  11   4   10.60    3.90
  -6 -11   4   42.80    8.40
   6  11  -4   52.59    9.60
  -6  11   4   42.20    6.60
  -6  11   4   42.70    7.10
  -5 -11   4   81.59   11.10
  -5  11   4   78.39    8.40
  -5  11   4   86.39    9.90
   5  11  -4   71.59   10.40
  -4 -11   4   38.10    7.60
  -4  11   4   22.70    5.30
   4  11  -4   29.90    6.50
  -4  11   4   34.90    6.00
  -3 -11   4  222.48   14.80
  -3  11   4  212.28   12.20
  -3  11   4  200.98   12.00
   3  11  -4  205.18   14.30
  -2  11   4  363.96   16.70
   2  11  -4  339.37   18.30
  -2  11   4  345.97   15.70
  -1  11   4  351.76   16.70
  -1  11   4  352.56   15.30
   1  11  -4  343.07   18.40
   0  11  -4  489.45   22.30
   0  11   4  449.26   17.70
   0  11   4  443.66   19.80
   1  11   4  424.86   16.70
  -1  11  -4  421.06   20.70
   1  11   4  459.45   20.40
   2  11   4  739.13   23.90
  -2  11  -4  708.53   28.80
   2  11   4  770.02   29.30
   3  11   4    6.00    4.50
  -3  11  -4   18.70    5.80
   3  11   4   10.10    3.50
   4  11   4  141.09   14.70
  -4  11  -4  152.48   14.70
   4  11   4  125.19    8.60
   5  11   4  101.09   12.40
  -5  11  -4   86.99   11.50
  -6 -11  -4   29.10    7.70
   6  11   4   29.70    7.50
  -6  11  -4   30.90    7.20
  -7 -11  -4   24.20    7.30
   7  11   4   28.20    8.30
  -7  11  -4   34.10    8.00
  -8 -11  -4  189.18   18.00
   8  11   4  256.57   18.90
  -8  11  -4  242.28   17.60
  -9 -11  -4   69.69   12.20
  -9  11  -4   81.09   12.60
   9  11   4   69.69   12.90
 -10 -11  -4   20.00    8.40
  10  11   4   25.50   10.20
 -10  11  -4   29.10    9.10
 -11 -11  -4   22.00    9.60
  11  11   4   22.70    9.50
 -11  11  -4   40.60   10.90
 -11 -12   4   18.60    7.80
 -11  12   4   16.10    7.50
  11  12  -4   20.90    8.90
 -10 -12   4    1.30    4.70
 -10  12   4   -0.40    4.80
  10  12  -4   -0.90    6.60
  -9 -12   4   18.30    7.50
  -9  12   4   13.40    6.20
   9  12  -4   13.60    8.30
  -8 -12   4    3.80    4.30
  -8  12   4   13.20    5.50
  -8  12   4   12.50    5.00
   8  12  -4   14.90    7.70
  -7 -12   4  164.78   16.30
   7  12  -4  157.98   18.20
  -7  12   4  198.88   14.10
  -7  12   4  156.98   11.50
  -6 -12   4 1142.79   41.20
   6  12  -4 1094.79   41.50
  -6  12   4 1090.89   37.50
  -6  12   4 1129.29   35.80
  -5 -12   4   31.20    7.10
  -5  12   4   38.60    7.10
   5  12  -4   39.30    9.30
  -5  12   4   33.00    6.30
  -4 -12   4    4.80    4.00
   4  12  -4    5.90    5.10
  -4  12   4   -1.00    3.10
  -4  12   4    0.20    2.80
  -3  12   4   67.99    8.60
  -3  12   4   53.89    7.60
   3  12  -4   63.49    9.60
  -2  12   4  209.98   12.30
   2  12  -4  185.98   14.10
  -2  12   4  208.68   13.00
  -1  12   4    4.80    3.00
  -1  12   4    7.90    3.90
   1  12  -4    5.40    4.20
   0  12   4   72.79    9.30
   0  12  -4   53.29    9.00
   0  12   4   67.49    7.60
  -1  12  -4   83.49   10.90
   1  12   4   76.69    9.90
   1  12   4   72.29    7.90
   2  12   4   53.79    9.10
   2  12   4   33.60    5.40
  -2  12  -4   41.50    8.50
   3  12   4   31.00    5.20
  -3  12  -4   32.50    7.50
   3  12   4   29.40    7.40
  -4  12  -4   11.30    5.70
   4  12   4    9.60    5.50
   5  12   4   44.40    8.70
  -5  12  -4   38.60    9.10
   6  12   4   19.80    7.10
  -6  12  -4   40.60    8.60
  -7 -12  -4  149.49   16.60
   7  12   4  148.39   16.90
  -7  12  -4  133.79   15.10
  -8 -12  -4   62.29   11.80
  -8  12  -4   49.80   10.40
   8  12   4   74.29   11.80
  -9 -12  -4   26.10    8.60
   9  12   4   13.60    8.50
  -9  12  -4   10.10    6.90
 -10 -12  -4    6.30    7.30
  10  12   4    8.00    8.90
 -10  12  -4    4.20    9.70
 -11 -13   4   93.09   15.40
  11  13  -4   96.79   16.40
 -11  13   4   93.39   13.80
 -10 -13   4   31.00    9.20
 -10  13   4   27.40    8.60
  10  13  -4   24.10   10.30
  -9 -13   4    3.60    5.00
  -9  13   4   -3.50    4.30
   9  13  -4   -3.20    6.90
  -8 -13   4   28.60    8.70
  -8  13   4   25.60    7.40
   8  13  -4   10.50    7.60
  -7 -13   4   14.90    6.70
   7  13  -4    8.70    6.50
  -7  13   4    2.10    4.60
  -7  13   4   19.60    6.30
  -6 -13   4   66.49   10.90
  -6  13   4   84.29    9.90
  -6  13   4   77.29   11.00
   6  13  -4   49.60   10.50
  -5 -13   4  851.71   34.70
  -5  13   4  853.11   30.80
   5  13  -4  853.41   35.30
  -5  13   4  859.11   31.70
   4  13  -4  249.18   17.70
  -4  13   4  274.07   15.70
  -4  13   4  294.97   16.00
  -3  13   4   36.00    6.90
  -3  13   4   34.80    6.80
   3  13  -4   42.10    8.30
  -2  13   4   13.10    4.90
   2  13  -4   29.30    8.10
  -2  13   4   16.60    5.10
   1  13  -4   75.69   10.90
  -1  13   4   60.79    9.00
  -1  13   4   61.69    8.00
   0  13  -4  252.57   16.80
   0  13   4  242.88   15.50
   0  13   4  230.48   12.90
   1  13   4  117.19   13.00
   1  13   4  107.69    9.80
  -1  13  -4   77.89   11.20
   2  13   4   31.40    5.60
  -2  13  -4   28.40    7.40
   2  13   4   37.20    8.30
   3  13   4  234.68   12.50
   3  13   4  241.38   16.60
  -3  13  -4  244.58   16.70
   4  13   4    9.60    6.00
  -4  13  -4    4.20    4.80
   5  13   4   19.20    6.70
  -5  13  -4   11.90    6.50
   6  13   4   61.49   10.80
  -6  13  -4   74.29   11.40
  -7  13  -4   99.59   13.70
   7  13   4   78.79   13.30
  -8 -13  -4    8.10    6.40
   8  13   4    2.90    5.90
  -8  13  -4   -0.80    5.70
  -9 -13  -4  133.69   17.00
   9  13   4  197.78   20.70
  -9  13  -4  134.99   16.80
 -10 -13  -4   48.10   12.00
  10  13   4   51.19   12.40
 -10  13  -4   58.39   12.60
 -10 -14   4   17.80    8.50
 -10  14   4    7.80    6.40
  10  14  -4   15.60    9.80
  -9 -14   4    2.00    5.90
   9  14  -4    4.40    8.70
  -9  14   4    5.00    5.00
  -8 -14   4   90.59   14.30
  -8  14   4   64.59   10.70
   8  14  -4   72.09   14.40
  -7 -14   4    2.40    5.10
  -7  14   4    0.30    4.00
  -7  14   4    4.40    5.10
   7  14  -4    8.10    6.50
  -6 -14   4  114.89   14.50
  -6  14   4  109.59   11.90
  -6  14   4  114.09   12.60
   6  14  -4  114.69   16.10
  -5 -14   4  232.88   21.00
  -5  14   4  215.98   15.00
  -5  14   4  198.48   14.20
   5  14  -4  179.18   18.10
   4  14  -4    2.80    5.80
  -4  14   4    9.40    4.80
  -4  14   4    3.50    3.90
   3  14  -4   10.50    5.60
  -3  14   4    4.90    4.40
  -3  14   4    3.30    4.30
   2  14  -4    0.30    5.30
  -2  14   4    6.00    4.70
  -2  14   4   -1.80    3.40
  -1  14   4   58.09    9.50
  -1  14   4   56.69    8.10
   1  14  -4   53.29   10.20
   0  14   4   61.09    8.10
   0  14  -4   90.09   12.90
   0  14   4   66.59   10.30
   1  14   4 1150.78   41.10
  -1  14  -4 1154.48   42.60
   1  14   4 1179.08   36.20
   2  14   4   24.90    5.70
  -2  14  -4   25.60    7.90
   2  14   4   26.40    7.50
  -3  14  -4   28.60    8.20
   3  14   4   20.20    6.70
   3  14   4   35.90    8.50
  -4  14  -4   74.59   11.30
   4  14   4   73.99   11.90
   5  14   4   46.20   10.40
  -5  14  -4   31.80    8.60
   6  14   4  107.09   14.90
  -6  14  -4   86.69   13.00
  -7  14  -4    9.20    6.60
   7  14   4    3.60    6.20
  -8  14  -4   56.79   11.30
   8  14   4   94.19   14.80
   9  14   4  286.67   25.40
  -9  14  -4  256.67   22.70
  -9 -15   4   -0.70    6.10
  -9  15   4    1.10    5.90
   9  15  -4   -3.20    7.70
  -8 -15   4    3.90    6.60
  -8  15   4    3.90    5.90
   8  15  -4    6.00    8.40
  -7 -15   4  111.79   15.60
   7  15  -4   85.29   14.00
  -7  15   4  106.89   12.50
  -7  15   4   98.19   13.30
  -6 -15   4   13.00    6.00
  -6  15   4   11.10    5.60
   6  15  -4   12.40    8.00
  -6  15   4    3.30    5.40
   5  15  -4   64.89   12.50
  -5  15   4   57.29    9.40
  -5  15   4   56.79    9.80
  -4  15   4   11.80    5.40
  -4  15   4   12.20    5.40
   4  15  -4    9.00    7.70
  -3  15   4   50.09    8.90
  -3  15   4   39.90    8.00
   3  15  -4   26.40    8.60
  -2  15   4    9.70    5.70
   2  15  -4   14.80    6.60
  -2  15   4    7.70    4.70
   1  15  -4   61.49   10.60
  -1  15   4   70.59    9.30
  -1  15   4   47.30    9.10
   0  15   4  145.99   14.90
   0  15  -4  141.09   16.50
   0  15   4  150.38   11.50
   1  15   4  211.38   13.10
   1  15   4  203.98   18.20
  -1  15  -4  224.48   20.20
   2  15   4    3.50    4.10
  -2  15  -4    9.40    6.40
   2  15   4    3.50    5.40
  -3  15  -4    1.30    4.70
   3  15   4   11.30    7.30
   4  15   4   15.20    7.50
  -4  15  -4   14.20    7.20
   5  15   4    7.90    7.00
  -5  15  -4    3.90    5.90
   6  15   4    2.90    6.40
  -6  15  -4    0.50    5.90
  -7  15  -4   -3.60    6.40
   7  15   4   -1.60    5.30
   8  15   4    8.40    8.80
  -8  15  -4    5.70    7.20
  -8 -16   4   -1.50    6.20
   8  16  -4    8.00    9.90
  -8  16   4   -0.20    5.50
  -7 -16   4  167.38   19.80
   7  16  -4  148.39   20.30
  -7  16   4  158.28   16.80
  -6  16   4   70.59   12.20
  -6  16   4   69.19   11.30
   6  16  -4   51.09   12.20
  -5  16   4   24.40    7.60
   5  16  -4    6.00    8.00
  -5  16   4    7.70    5.40
  -4  16   4   75.59   10.80
   4  16  -4  102.19   15.60
  -4  16   4   86.79   12.30
   3  16  -4   10.70    7.30
  -3  16   4   13.00    6.40
  -3  16   4   16.90    6.40
   2  16  -4   16.60    7.60
  -2  16   4   29.30    7.90
  -2  16   4   22.10    6.90
  -1  16   4  177.18   17.40
   1  16  -4  205.18   20.50
  -1  16   4  221.68   15.30
   0  16  -4   13.90    8.10
   0  16   4   32.40    7.00
   0  16   4   35.50    8.70
  -1  16  -4   13.50    7.50
   1  16   4    4.50    6.10
   1  16   4    2.20    3.70
   2  16   4   84.59   10.00
  -2  16  -4   72.49   12.30
   2  16   4   93.29   13.60
   3  16   4  312.67   21.90
  -3  16  -4  313.67   22.00
  -4  16  -4   13.10    7.20
   4  16   4   16.50    8.00
   5  16   4   22.30    8.70
  -5  16  -4    8.60    7.30
  -6  16  -4    3.70    7.00
   6  16   4   12.90    9.00
  -7  16  -4  312.97   22.90
   7  16   4  312.07   22.80
   7  17  -4  174.38   22.90
  -7  17   4  162.78   17.60
  -6  17   4  115.69   14.80
   6  17  -4  128.79   18.10
  -6  17   4  127.39   15.10
  -5  17   4    9.20    6.30
  -5  17   4    8.50    6.60
   5  17  -4   13.20    8.50
   4  17  -4   15.70    8.60
  -4  17   4   26.30    8.50
  -4  17   4   13.30    7.40
  -3  17   4    4.30    6.10
   3  17  -4   13.90    9.00
  -3  17   4    8.30    6.10
   2  17  -4   49.30   11.30
  -2  17   4   38.10    8.50
  -2  17   4   26.90    8.80
  -1  17   4    1.50    5.40
  -1  17   4    4.10    4.50
   1  17  -4   -0.30    6.90
   0  17  -4   80.29   13.70
   0  17   4   62.09    9.40
   0  17   4   73.59   12.10
   1  17   4   11.00    5.10
   1  17   4   15.60    7.70
  -1  17  -4   10.80    8.20
  -2  17  -4  260.57   23.40
   2  17   4  298.07   21.40
   3  17   4    1.50    6.00
  -3  17  -4    2.70    6.50
  -4  17  -4   13.70    8.00
   4  17   4    6.40    6.80
   5  17   4   10.90    8.40
  -5  17  -4   11.20    8.10
   6  17   4   33.80   10.10
  -6  17  -4   25.80    9.20
  -6  18   4   32.70    9.50
   6  18  -4   55.79   15.00
  -6  18   4   54.59   11.80
   5  18  -4   -1.60    7.80
  -5  18   4   -5.30    5.50
  -5  18   4   -5.30    5.60
  -4  18   4   15.40    7.90
  -4  18   4   10.80    7.30
   4  18  -4   -0.20    8.50
  -3  18   4   24.80    8.70
   3  18  -4   23.90   10.50
  -3  18   4   23.20    8.80
  -2  18   4   -3.20    6.10
  -2  18   4   -0.30    5.90
   2  18  -4   -2.00    6.60
  -1  18   4    5.90    7.30
  -1  18   4    1.30    5.50
   1  18  -4   10.50    8.40
   0  18   4   67.09   12.60
   0  18  -4   56.59   12.60
   0  18   4   58.59   10.30
   1  18   4   -3.30    4.50
  -1  18  -4   -4.30    6.40
   1  18   4   -1.80    6.40
   2  18   4    7.50    7.80
  -2  18  -4    1.00    7.50
   3  18   4    7.30    7.90
  -3  18  -4   -3.10    6.10
   4  18   4   11.90    9.40
  -4  18  -4   10.60    8.10
  -3  19   4   22.00    8.60
  -3  19   4    1.00    7.30
   3  19  -4    9.00    9.50
  -2  19   4   27.00    8.20
  -2  19   4   48.00   11.50
   2  19  -4   49.60   12.70
  -1  19   4   31.20    9.80
  -1  19   4   16.10    7.30
   1  19  -4   15.40   10.30
   0  19   4   88.69   14.20
   0  19  -4   67.19   15.70
   0  19   4   66.09   11.00
  -1  19  -4    8.30    9.10
   1  19   4   -0.90    7.30
  -2  19  -4    4.40    8.20
   2  19   4   -1.40    8.50
 -14   0   5    7.00    5.40
 -13   0   5   42.90    8.40
 -12   0   5    6.50    4.70
 -11   0   5    0.10    2.90
 -11   0   5    7.20    4.00
 -10   0   5   -0.10    2.50
  10   0  -5    0.80    1.90
 -10   0   5    0.60    2.40
  -9   0   5    3.90    2.90
   9   0  -5   10.20    2.40
  -9   0   5   12.60    4.10
   8   0  -5    2.40    1.60
  -8   0   5    3.30    2.90
  -8   0   5    3.40    2.80
  -7   0   5  528.65   18.80
   7   0  -5  532.25   14.70
  -6   0   5    8.50    2.90
  -5   0   5  158.38    8.40
   5   0  -5  145.99    4.80
  -4   0   5    2.80    2.10
   4   0  -5    2.60    0.90
  -3   0   5  178.78    8.40
   3   0  -5  186.88    5.70
  -2   0   5    0.80    1.40
  -2   0   5    0.80    0.90
  -1   0   5  224.48    8.90
  -1   0   5  222.28    7.20
   0   0   5   -0.30    0.90
   0   0   5    1.60    1.40
   1   0   5   82.69    4.90
   1   0   5   81.49    4.70
  -2   0  -5    3.10    1.00
   2   0   5    1.50    1.60
   2   0   5    1.50    1.30
   3   0   5   67.29    5.10
  -3   0  -5   63.79    3.40
   3   0   5   44.60    4.70
   4   0   5   19.50    3.70
  -4   0  -5   16.40    2.50
   4   0   5   16.00    2.90
  -5   0  -5  153.68    7.30
   5   0   5  144.09    7.40
   5   0   5  167.28    9.20
  -6   0  -5    3.60    2.00
   6   0   5    0.00    2.00
   7   0   5 2970.50   74.79
  -7   0  -5 2921.31   71.79
   8   0   5   -0.70    2.50
  -8   0  -5    2.30    2.50
  -9   0  -5  544.05   21.10
   9   0   5  574.24   23.00
 -10   0  -5    0.00    3.10
  10   0   5    6.90    4.20
  11   0   5  241.38   15.50
 -11   0  -5  224.28   14.60
  12   0   5    2.70    4.30
 -12   0  -5   -4.90    3.80
  13   0   5   11.20    6.10
 -14  -1   5   67.29   11.30
 -14   1   5   64.39   11.10
 -13  -1   5   13.00    5.60
 -13   1   5    7.00    5.50
 -12  -1   5   62.49   10.00
 -12   1   5   55.39    9.30
 -12   1   5   57.69    8.30
 -11  -1   5    8.10    3.40
 -11  -1   5    2.70    3.50
 -11   1   5    3.40    3.30
 -11   1   5   -0.70    3.40
 -10  -1   5   14.70    4.70
 -10  -1   5    8.20    3.10
 -10   1   5    9.30    3.90
 -10   1   5    5.40    3.20
  10   1  -5   11.30    3.00
   9  -1  -5  324.97   11.40
  -9  -1   5  302.57   15.60
  -9  -1   5  327.57   13.80
  -9   1   5  328.37   15.40
   9   1  -5  332.87   12.10
  -8  -1   5 1135.99   31.80
  -8  -1   5 1061.79   34.00
   8  -1  -5 1119.49   27.90
  -8   1   5 1125.49   33.80
   8   1  -5 1084.59   28.80
  -7  -1   5  833.62   24.80
  -7  -1   5  804.82   26.40
   7  -1  -5  813.42   20.60
   7   1  -5  833.02   21.80
  -7   1   5  801.22   26.30
  -6  -1   5  832.72   24.70
  -6  -1   5  877.41   26.10
   6  -1  -5  826.62   20.10
  -6   1   5  804.22   25.90
   6   1  -5  854.91   21.90
  -5  -1   5  127.09    7.30
  -5  -1   5  150.98    8.00
  -5   1   5  141.79    8.50
   5   1  -5  146.29    6.10
  -4  -1   5   48.50    4.70
  -4  -1   5   47.70    4.90
  -4   1   5   50.79    5.60
   4   1  -5   47.70    3.90
  -3  -1   5  269.47   10.50
   3   1  -5  299.27    9.10
  -3   1   5  285.27   11.50
  -2  -1   5  152.48    7.00
   2   1  -5  144.09    6.20
  -2   1   5  147.59    4.70
  -2   1   5  161.48    7.90
  -1  -1   5   40.50    3.50
  -1  -1   5   39.60    2.50
  -1  -1   5   31.30    3.50
  -1   1   5   38.10    2.50
  -1   1   5   44.60    4.60
   0  -1   5  294.97    9.90
   0  -1   5  294.77   10.50
   0  -1   5  293.97    7.40
   0   1   5  308.67   10.80
   0   1   5  291.17    9.50
   1  -1   5  457.45   14.50
   1  -1   5  444.16   14.00
   1   1   5  456.35   14.10
   1   1   5  465.95   14.00
   2  -1   5    6.70    1.90
   2  -1   5    1.40    1.40
  -2  -1  -5    3.90    1.40
   2   1   5    3.10    1.70
  -2   1  -5    3.70    0.80
   2   1   5    0.70    0.90
   3  -1   5   10.30    2.80
   3  -1   5    8.80    2.30
  -3  -1  -5   14.70    2.30
   3   1   5   11.80    2.50
   3   1   5   16.40    3.10
  -3   1  -5   14.00    1.80
   4  -1   5   72.59    6.90
  -4  -1  -5   72.09    4.60
  -4   1  -5   69.39    4.10
   4   1   5   74.79    5.10
   4   1   5   73.59    6.80
  -5  -1  -5   43.30    4.60
   5  -1   5   35.00    5.20
  -5   1  -5   44.40    4.20
   5   1   5   40.10    4.30
   5   1   5   42.00    5.50
  -6  -1  -5 1017.40   28.50
   6  -1   5  966.90   30.20
  -6   1  -5 1017.10   27.80
   6   1   5 1001.60   30.80
   7  -1   5   36.70    5.90
  -7  -1  -5   38.80    5.50
   7   1   5   38.20    6.00
  -7   1  -5   50.69    5.70
   8  -1   5    2.90    2.80
  -8  -1  -5   -0.40    2.10
  -8   1  -5    4.20    2.90
   8   1   5   -1.90    2.60
  -9  -1  -5    3.60    3.00
   9  -1   5   -0.90    2.70
   9   1   5    0.30    2.50
  -9   1  -5   -1.60    2.60
  10  -1   5   46.70    7.90
 -10  -1  -5   53.09    7.80
  10   1   5   38.00    7.20
 -10   1  -5   44.90    7.00
 -11  -1  -5   57.29    9.00
  11  -1   5   88.79   11.40
 -11   1  -5   47.70    7.90
  11   1   5   56.49    9.30
  12  -1   5   58.59    9.50
 -12  -1  -5   75.79   10.80
 -12   1  -5   76.39   11.10
  12   1   5   73.49   10.80
  13  -1   5   77.99   11.90
  13   1   5   69.09   11.30
 -14  -2   5  103.89   13.70
 -14   2   5  102.59   14.00
 -13  -2   5   77.09   11.40
 -13   2   5   81.39   11.90
 -12  -2   5   13.10    5.50
 -12   2   5   11.00    5.00
 -12   2   5   26.30    6.40
 -11  -2   5   17.00    5.60
 -11   2   5   10.50    4.70
 -11   2   5   25.80    6.10
 -10  -2   5   86.19   10.30
 -10  -2   5   84.39    7.80
  10   2  -5   70.29    6.80
 -10   2   5   67.99    8.60
   9  -2  -5   55.99    4.90
  -9  -2   5   35.60    6.00
  -9  -2   5   45.40    5.40
  -9   2   5   43.30    7.00
   9   2  -5   55.89    5.60
  -8  -2   5 1413.66   37.10
  -8  -2   5 1346.47   40.50
   8  -2  -5 1347.97   33.90
  -8   2   5 1395.16   40.70
   8   2  -5 1433.06   36.30
   7  -2  -5   77.39    4.10
  -7  -2   5   85.49    8.60
  -7  -2   5   92.09    6.20
   7   2  -5   84.99    5.50
  -7   2   5   82.19    8.30
  -6  -2   5   73.79    5.40
  -6  -2   5   71.99    7.50
  -6   2   5   73.49    7.80
   6   2  -5   71.09    5.10
  -5  -2   5   28.30    4.50
  -5  -2   5   44.20    4.70
   5   2  -5   38.00    4.40
  -5   2   5   26.90    4.60
  -4  -2   5 1530.85   38.80
  -4  -2   5 1490.35   37.90
  -4   2   5 1453.05   40.50
   4   2  -5 1537.45   37.40
  -3  -2   5   30.30    3.70
  -3  -2   5   36.40    3.90
  -3   2   5   29.60    4.60
   3   2  -5   30.80    3.40
  -2  -2   5   27.40    2.90
  -2  -2   5   23.40    3.20
  -2   2   5   25.50    1.90
   2   2  -5   29.30    3.50
  -2   2   5   22.50    3.70
  -1  -2   5 1483.95   37.90
  -1  -2   5 1499.15   35.50
  -1   2   5 1541.75   39.30
  -1   2   5 1579.84   36.10
   0  -2   5  211.28    8.70
   0  -2   5  215.68    8.60
   0  -2   5  206.38    6.20
   0   2   5  212.58    8.90
   0   2   5  215.88    7.90
   1  -2   5    5.60    1.80
   1  -2   5    3.00    1.70
   1   2   5    1.10    1.30
   1   2   5    6.20    2.00
   2  -2   5    4.60    1.80
   2  -2   5    3.80    1.80
   2   2   5    3.40    1.60
   2   2   5    4.20    1.90
  -3  -2  -5  415.96   14.20
   3  -2   5  472.15   15.50
   3  -2   5  439.86   15.30
   3   2   5  446.66   15.70
  -3   2  -5  448.56   11.90
   3   2   5  441.86   13.80
  -4  -2  -5    4.50    2.10
   4  -2   5    6.20    2.20
   4  -2   5    4.50    2.20
   4   2   5    3.40    2.10
  -4   2  -5    7.00    1.70
   4   2   5    4.30    1.90
  -5  -2  -5  441.16   15.60
   5  -2   5  463.35   17.20
  -5   2  -5  458.05   14.40
   5   2   5  462.05   17.60
   5   2   5  451.05   14.20
   6  -2   5   99.69    9.10
  -6  -2  -5   87.89    6.60
  -6   2  -5   78.99    5.80
   6   2   5   86.19    8.70
  -7  -2  -5  216.08   11.00
   7  -2   5  193.18   11.60
  -7   2  -5  211.48   10.20
   7   2   5  211.08   12.20
  -8  -2  -5   60.99    7.40
   8  -2   5   68.69    8.70
   8   2   5   68.39    8.60
  -8   2  -5   68.89    7.30
   9  -2   5  118.69   11.30
  -9  -2  -5  112.89   10.60
   9   2   5  105.49   11.00
  -9   2  -5  101.89    9.50
  10  -2   5  178.68   12.80
 -10  -2  -5  172.38   12.20
  10   2   5  211.28   14.10
 -10   2  -5  167.98   11.30
  11  -2   5    7.10    4.90
 -11  -2  -5   12.90    5.10
 -11   2  -5   12.40    5.30
  11   2   5    4.20    4.80
  12  -2   5   36.10    7.90
 -12  -2  -5   25.90    7.10
  12   2   5   22.20    7.30
 -13  -2  -5  186.98   23.00
  13  -2   5  192.88   17.70
  13   2   5  178.48   17.20
 -14  -3   5    4.60    5.90
 -14   3   5    4.30    5.70
 -13  -3   5   12.50    6.20
 -13   3   5   27.90    7.60
 -13   3   5   10.50    5.70
 -12  -3   5   35.00    8.10
 -12   3   5   42.50    8.40
 -11  -3   5  190.98   13.80
  11   3  -5  191.18   10.90
 -11   3   5  182.68   13.10
 -10  -3   5   52.29    5.60
 -10  -3   5   46.80    7.60
  10   3  -5   69.09    7.00
 -10   3   5   67.69    9.10
  -9  -3   5    7.20    2.40
  -9  -3   5    5.70    3.40
   9  -3  -5    2.60    2.00
   9   3  -5    5.80    2.60
  -9   3   5    3.90    3.30
  -8  -3   5   14.90    3.10
  -8  -3   5    9.70    3.60
   8   3  -5   15.20    3.40
  -8   3   5   22.30    5.10
  -7  -3   5  108.99    6.50
  -7  -3   5  120.89    8.60
  -7   3   5  110.69    8.70
   7   3  -5  111.99    7.50
  -7   3   5  114.39    5.20
  -6  -3   5  475.85   15.60
  -6  -3   5  509.55   18.30
  -6   3   5  473.45   18.70
  -6   3   5  501.55   12.90
   6   3  -5  456.85   17.00
  -5  -3   5  800.42   24.40
  -5  -3   5  780.42   22.30
   5   3  -5  815.82   24.00
  -5   3   5  798.72   25.80
  -4  -3   5  143.59    7.00
  -4  -3   5  139.09    7.50
   4   3  -5  151.28    7.70
  -4   3   5  152.98    4.50
  -4   3   5  139.69    8.80
  -3  -3   5  148.99    7.00
  -3  -3   5  152.78    7.10
  -3   3   5  144.39    4.90
   3   3  -5  151.88    7.30
  -3   3   5  157.38    8.90
  -2  -3   5  961.60   25.40
  -2  -3   5  824.92   23.90
  -2   3   5 1030.90   28.10
  -2   3   5  955.50   23.10
  -1  -3   5 2622.84   62.19
  -1  -3   5 2684.43   60.19
  -1   3   5 2676.33   60.59
  -1   3   5 2465.35   63.29
   1   3  -5 2622.64   62.99
   0  -3   5  810.02   21.10
   0  -3   5  828.62   23.40
   0  -3   5  814.02   23.70
   0   3   5  846.02   22.40
   0   3   5  809.92   23.60
   1  -3   5    8.00    2.30
   1  -3   5    8.90    2.60
   1   3   5    5.30    2.00
   2  -3   5  591.34   19.20
   2  -3   5  621.24   19.40
   2   3   5  616.54   17.90
   2   3   5  652.13   19.60
   3  -3   5   14.80    3.00
  -3  -3  -5   18.80    3.50
   3  -3   5   11.40    3.00
   3   3   5   14.70    2.50
   3   3   5    8.20    2.70
   4  -3   5  177.48    9.50
  -4  -3  -5  169.68    8.90
   4  -3   5  185.98    9.20
   4   3   5  176.58    7.50
   4   3   5  173.28    9.70
   5  -3   5    6.50    2.80
  -5  -3  -5    6.00    2.40
   5   3   5   12.60    3.80
   5   3   5    9.00    2.10
  -6  -3  -5   97.19    7.20
   6  -3   5  108.29    8.10
  -6   3  -5  104.89    6.60
   6   3   5  110.09    9.90
  -7  -3  -5    5.10    3.20
   7  -3   5    2.80    2.60
  -7   3  -5    3.70    2.40
   7   3   5    5.70    3.10
  -8  -3  -5  152.58   10.30
   8  -3   5  163.78   11.30
   8   3   5  174.38   11.90
  -8   3  -5  159.58    9.80
  -9  -3  -5   14.30    4.70
   9  -3   5   15.70    4.90
   9   3   5    7.70    4.70
  -9   3  -5   16.20    4.30
  10  -3   5  208.38   13.80
 -10  -3  -5  180.78   12.90
 -10   3  -5  180.58   12.20
  10   3   5  183.38   13.40
  11  -3   5  286.07   17.50
 -11  -3  -5  305.77   17.70
  11   3   5  285.47   17.90
 -11   3  -5  266.77   15.80
 -12  -3  -5   29.10    7.70
  12  -3   5   46.30    8.90
  12   3   5   26.40    7.60
  13  -3   5  194.78   18.10
 -13  -3  -5  194.18   18.30
  13   3   5  217.38   19.10
 -14  -4   5   19.10    7.60
 -14   4   5   27.90    7.90
 -13  -4   5   94.49   12.60
 -13   4   5   99.09   13.10
 -12  -4   5    1.90    4.50
 -12   4   5    6.10    4.70
 -11  -4   5  364.96   19.50
 -11   4   5  357.56   19.20
  11   4  -5  352.86   15.90
 -10  -4   5  834.52   31.10
  10   4  -5  879.81   27.90
 -10   4   5  831.52   30.80
  -9  -4   5    8.00    3.50
  -9  -4   5    5.60    2.40
  -9   4   5    2.20    3.20
   9   4  -5    6.30    3.20
  -8  -4   5   30.40    5.60
  -8  -4   5   36.80    4.40
   8   4  -5   36.50    5.80
  -8   4   5   34.40    5.90
  -8   4   5   36.20    4.00
  -7  -4   5   59.59    7.50
  -7  -4   5   45.80    4.80
  -7   4   5   45.90    4.00
   7   4  -5   43.70    6.10
  -7   4   5   40.40    6.20
  -6  -4   5  215.38    9.00
  -6  -4   5  224.18   11.30
   6   4  -5  197.38   11.30
  -6   4   5  215.08    7.30
  -6   4   5  223.98   12.00
  -5  -4   5   72.19    6.90
  -5  -4   5   81.49    5.20
  -5   4   5   85.19    3.80
  -5   4   5   97.59    8.90
   5   4  -5   90.09    8.10
  -4  -4   5   63.69    4.60
  -4  -4   5   72.79    5.50
  -4   4   5   51.99    6.20
  -4   4   5   71.59    3.50
   4   4  -5   68.49    6.30
  -3  -4   5   93.59    5.80
  -3  -4   5   92.19    5.60
  -3   4   5  112.79    7.60
  -3   4   5   98.59    4.70
  -2  -4   5  976.60   26.80
  -2   4   5  976.30   28.90
  -2   4   5 1002.80   25.50
   2   4  -5  997.40   28.30
  -1  -4   5 1572.34   38.80
  -1  -4   5 1566.74   40.00
  -1   4   5 1593.44   41.60
   1   4  -5 1568.54   41.30
  -1   4   5 1531.25   38.70
   0  -4   5  113.39    6.70
   0   4   5   98.39    6.00
   0   4  -5  118.89    7.40
   0   4   5  115.69    7.00
   1  -4   5  203.88    9.30
   1  -4   5  200.08    9.70
   1   4   5  179.18    8.80
   1   4   5  188.68    8.80
   2  -4   5   12.90    2.90
   2  -4   5   11.60    2.90
   2   4   5   13.50    2.80
   2   4   5   16.90    3.90
   3  -4   5   47.40    5.60
  -3  -4  -5   34.40    4.80
   3  -4   5   39.00    5.20
   3   4   5   45.00    4.20
   3   4   5   52.09    6.50
   4  -4   5 1075.49   31.50
  -4  -4  -5 1062.29   31.20
   4   4   5 1043.30   27.30
   4   4   5 1111.79   32.40
   5  -4   5  313.97   13.90
  -5  -4  -5  301.37   13.40
   5   4   5  309.77   14.80
   5   4   5  288.17   10.10
   6  -4   5  253.57   12.80
  -6  -4  -5  243.98   12.20
   6   4   5  234.98   13.20
   6   4   5  230.18    8.10
   7  -4   5   76.49    8.90
  -7  -4  -5   61.79    7.70
   7   4   5   70.09    9.20
   8  -4   5    5.80    3.40
  -8  -4  -5    4.80    3.30
   8   4   5    0.50    3.00
  -8   4  -5    5.40    3.00
   9  -4   5   12.60    4.50
  -9  -4  -5    9.60    4.30
  -9   4  -5    4.30    3.20
   9   4   5   11.20    5.00
  10  -4   5   78.19   10.10
 -10  -4  -5   80.09   10.30
 -10   4  -5   88.89   10.00
  10   4   5  100.39   12.10
  11  -4   5    2.70    4.40
 -11  -4  -5    5.00    5.00
  11   4   5    5.80    5.10
 -11   4  -5    3.10    4.50
  12  -4   5   17.70    6.40
 -12  -4  -5    5.30    5.40
  12   4   5    3.60    5.00
  13  -4   5   52.99   10.10
 -13  -4  -5   51.29   10.50
  13   4   5   57.19   10.80
 -14  -5   5   12.10    7.10
 -14   5   5   24.20    8.00
 -13  -5   5    7.10    5.50
 -13   5   5    5.30    5.00
 -12  -5   5    9.70    5.60
 -12   5   5    1.00    4.00
 -11  -5   5  267.37   16.90
 -11   5   5  268.37   16.60
  11   5  -5  255.47   14.40
 -10  -5   5  366.36   19.20
  10   5  -5  407.16   18.10
 -10   5   5  358.56   18.90
  -9  -5   5   18.80    3.20
  -9  -5   5   22.20    5.60
   9   5  -5   16.70    4.70
  -9   5   5   15.80    5.30
  -8  -5   5   13.50    2.80
  -8  -5   5   18.90    5.30
   8   5  -5   15.20    4.70
  -8   5   5   12.40    2.70
  -8   5   5   13.50    4.90
  -7  -5   5   55.39    5.20
  -7  -5   5   53.99    6.90
  -7   5   5   71.69    5.50
   7   5  -5   61.39    8.10
  -7   5   5   47.20    7.10
  -6  -5   5  133.49    6.80
  -6  -5   5  132.39    9.00
  -6   5   5  137.59    6.00
  -6   5   5  132.99    9.20
   6   5  -5  130.29   11.30
  -5  -5   5  226.68    9.20
  -5  -5   5  219.08   11.00
  -5   5   5  217.48   11.50
  -5   5   5  210.08    7.60
  -4  -5   5  261.87   11.40
  -4  -5   5  255.17   10.10
   4   5  -5  206.68   11.00
  -4   5   5  270.67   12.50
  -4   5   5  258.47    8.60
  -3  -5   5  156.08    7.80
  -3  -5   5  154.38    8.10
  -3   5   5  159.58    6.90
  -3   5   5  170.98    9.70
   3   5  -5  170.68    9.20
  -2  -5   5    1.70    1.70
  -2  -5   5    1.10    1.10
  -2   5   5    4.10    1.80
   2   5  -5   -1.00    1.90
  -2   5   5    2.00    1.90
  -1  -5   5 1445.96   37.20
  -1  -5   5 1387.46   36.90
  -1   5   5 1385.96   36.50
   1   5  -5 1372.36   38.80
  -1   5   5 1455.95   38.60
   0  -5   5   75.29    5.60
   0   5   5   58.49    5.70
   0   5   5   66.59    6.40
   0   5  -5   65.59    6.60
   1  -5   5   56.99    5.70
   1   5   5   50.29    5.70
   1   5   5   61.49    5.90
  -1   5  -5   49.90    5.80
   2  -5   5  386.96   15.60
   2  -5   5  391.16   14.90
  -2   5  -5  392.76   15.90
   2   5   5  396.06   15.70
   2   5   5  386.46   13.70
   3  -5   5 1012.10   30.90
  -3  -5  -5 1064.09   31.50
   3   5   5 1056.29   27.40
   3   5   5 1005.40   31.40
   4  -5   5 2127.39   54.79
  -4  -5  -5 2019.70   54.49
   4   5   5 2063.69   55.49
   4   5   5 2052.09   48.90
   5  -5   5    4.60    2.50
  -5  -5  -5    8.70    3.40
   5   5   5   15.10    4.30
   5   5   5   10.90    2.20
   6  -5   5  302.57   14.50
  -6  -5  -5  261.97   13.60
   6   5   5  242.38   14.00
   6   5   5  272.47    8.50
  -7  -5  -5   39.90    6.50
   7  -5   5   57.79    7.90
   7   5   5   42.00    7.20
  -8  -5  -5  110.09   10.90
   8  -5   5   95.79   10.40
   8   5   5   91.59   10.80
   9  -5   5   59.79    8.60
  -9  -5  -5   63.19    9.00
   9   5   5   66.69   10.10
  -9   5  -5   63.09    7.80
 -10  -5  -5   40.90    8.10
  10  -5   5   32.30    7.30
  10   5   5   20.90    6.60
 -10   5  -5   21.90    5.60
  11  -5   5   57.19    9.50
 -11  -5  -5   47.40    9.10
  11   5   5   50.09    9.90
  12  -5   5   49.00    9.60
 -12  -5  -5   62.49   10.60
  12   5   5   46.20    9.70
 -14  -6   5    7.40    6.60
 -14   6   5    1.70    5.90
 -13  -6   5   57.59   10.40
 -13   6   5   59.09   10.80
 -12  -6   5    5.60    5.00
  12   6  -5    5.40    4.70
 -12   6   5    7.60    5.00
 -11  -6   5   20.60    6.40
 -11   6   5   26.10    6.90
  11   6  -5   22.20    6.20
 -10  -6   5   19.60    5.80
 -10   6   5    3.90    4.30
  10   6  -5    6.10    4.30
  -9  -6   5  160.68   12.20
   9   6  -5  144.89   13.40
  -9   6   5  175.78   12.30
  -8  -6   5  257.87   10.30
  -8  -6   5  256.57   14.70
  -8   6   5  281.77   11.00
   8   6  -5  232.68   14.70
  -8   6   5  292.37   15.10
  -7  -6   5    8.50    2.50
  -7  -6   5   10.10    3.70
   7   6  -5    1.10    2.30
  -7   6   5    9.70    4.00
  -7   6   5   16.60    2.90
  -6  -6   5   64.39    5.70
  -6  -6   5   58.79    7.40
  -6   6   5   58.49    7.60
  -6   6   5   58.19    4.30
  -5  -6   5    8.80    2.50
  -5  -6   5    9.50    3.00
  -5   6   5   12.10    3.50
  -5   6   5    6.20    1.90
   5   6  -5    6.00    3.70
  -4  -6   5   49.00    5.20
  -4  -6   5   54.99    6.20
  -4   6   5   46.50    4.40
  -4   6   5   43.50    5.90
   4   6  -5   45.70    6.40
  -3  -6   5   11.20    2.70
  -3  -6   5   10.10    2.90
  -3   6   5    7.30    2.80
   3   6  -5    6.90    3.00
  -3   6   5    3.70    1.90
  -2  -6   5  581.44   19.20
  -2  -6   5  552.94   18.10
  -2   6   5  554.34   19.60
   2   6  -5  557.84   20.20
  -2   6   5  567.44   17.90
  -1  -6   5   54.59    5.70
  -1  -6   5   67.49    6.70
  -1   6   5   65.59    6.80
   1   6  -5   57.79    6.70
  -1   6   5   62.89    6.30
   0  -6   5    3.40    2.00
   0   6  -5    3.10    2.90
   0   6   5    5.80    2.90
   0   6   5    8.20    2.90
   1  -6   5  615.04   20.50
   1   6   5  625.24   20.40
   1   6   5  650.13   21.60
  -1   6  -5  631.14   22.40
   2  -6   5  143.09    8.60
   2   6   5  151.78    8.10
  -2   6  -5  152.58    9.70
   2   6   5  164.58   10.00
   3   6   5   56.39    5.30
   3   6   5   66.99    8.10
  -3   6  -5   49.40    6.70
  -4  -6  -5 1044.40   33.40
   4  -6   5 1091.59   33.70
   4   6   5 1074.99   27.80
   4   6   5 1109.69   34.60
  -5  -6  -5 1197.18   37.10
   5  -6   5 1263.57   37.20
   5   6   5 1149.39   37.50
   5   6   5 1180.88   29.50
   6  -6   5  689.93   25.00
  -6  -6  -5  643.54   24.60
   6   6   5  640.84   25.70
  -7  -6  -5    9.70    4.20
   7  -6   5    7.10    4.00
   7   6   5   12.60    4.80
   8  -6   5   21.20    5.60
  -8  -6  -5   12.60    4.80
   8   6   5   11.00    5.10
  -9  -6  -5   39.00    7.70
   9  -6   5   39.90    7.80
   9   6   5   46.70    9.50
 -10  -6  -5   67.69   10.30
  10  -6   5   65.29   10.00
  10   6   5   56.89   10.90
 -10   6  -5   66.29    8.90
 -11  -6  -5   34.20    8.10
  11  -6   5   36.20    7.80
  11   6   5   39.40    8.90
  12  -6   5   22.70    7.50
 -12  -6  -5   10.30    6.70
  12   6   5   20.90    8.80
 -13  -7   5    5.50    5.30
 -13   7   5   10.90    6.60
 -12  -7   5  206.38   16.30
 -12   7   5  223.68   16.80
  12   7  -5  206.38   15.30
 -11  -7   5   26.30    6.80
 -11   7   5   27.90    7.20
  11   7  -5   30.80    7.50
 -10  -7   5    3.50    3.90
  10   7  -5    8.60    4.90
 -10   7   5    7.70    4.70
  -9  -7   5  477.65   22.50
  -9   7   5  526.75   22.70
  -8  -7   5   41.20    4.60
  -8  -7   5   44.30    7.30
  -8   7   5   34.50    6.40
   8   7  -5   16.30    5.30
  -8   7   5   45.50    5.30
  -7  -7   5   23.80    5.50
  -7  -7   5   23.60    3.70
  -7   7   5   26.00    3.90
   7   7  -5   13.60    5.40
  -7   7   5   17.20    5.10
  -6  -7   5    6.20    2.80
  -6  -7   5    6.30    2.30
  -6   7   5    6.00    3.40
  -6   7   5    5.30    2.10
   6   7  -5    1.40    3.50
  -5  -7   5  361.06   13.30
  -5  -7   5  345.77   15.70
  -5   7   5  364.46   16.00
  -5   7   5  361.46   12.60
   5   7  -5  383.16   17.50
  -4  -7   5  269.27   13.00
  -4  -7   5  285.57   11.40
  -4   7   5  266.37   13.10
   4   7  -5  279.17   14.10
  -4   7   5  273.07   10.80
  -3  -7   5 2232.38   55.09
  -3  -7   5 2293.97   57.89
  -3   7   5 2195.58   57.49
   3   7  -5 2194.58   58.59
  -3   7   5 2205.38   54.49
  -2  -7   5  486.55   18.60
  -2  -7   5  497.75   16.90
   2   7  -5  476.05   19.30
  -2   7   5  492.15   16.90
  -2   7   5  493.45   18.10
  -1  -7   5    8.50    2.80
  -1   7   5   13.50    3.50
  -1   7   5   11.20    3.30
   1   7  -5    3.80    3.30
   0  -7   5  838.52   26.10
   0   7   5  880.31   26.90
   0   7  -5  897.91   29.40
   0   7   5  893.31   27.60
   1  -7   5  180.38    9.60
   1   7   5  195.88   11.00
  -1   7  -5  173.68   11.00
   1   7   5  172.78    9.50
  -2   7  -5   96.49    9.40
   2   7   5   91.49    6.70
   2   7   5   97.89    9.20
  -3   7  -5  109.19   10.10
   3   7   5  100.59    6.90
   3   7   5  118.49   11.20
  -4  -7  -5  122.89   11.30
  -4   7  -5  136.89   10.20
   4   7   5  106.89   10.90
   4   7   5  107.89    6.10
   5  -7   5   25.00    5.50
  -5  -7  -5   29.70    6.00
   5   7   5   31.60    3.40
  -5   7  -5   27.90    6.00
   5   7   5   32.20    6.70
   6  -7   5    0.50    2.80
  -6  -7  -5    3.80    3.60
   6   7   5    7.50    4.50
  -7  -7  -5   15.20    5.10
   7  -7   5   20.60    5.40
   7   7   5   26.20    6.90
   8  -7   5   28.80    6.60
  -8  -7  -5   21.90    6.00
   8   7   5   14.70    5.60
  -9  -7  -5   52.59    9.20
   9  -7   5   48.20    8.50
   9   7   5   46.90    8.50
  10  -7   5    1.60    4.70
 -10  -7  -5    2.10    4.30
  10   7   5    4.10    5.80
  11  -7   5   19.60    7.10
 -11  -7  -5   10.90    5.80
  11   7   5   19.10    7.60
 -12  -7  -5  144.69   16.40
  12  -7   5  109.69   13.30
  12   7   5  141.19   16.70
 -13  -8   5   15.50    7.60
 -13   8   5    7.10    6.30
 -12  -8   5   22.90    7.50
 -12   8   5   20.40    7.50
  12   8  -5   21.50    6.80
 -11  -8   5  197.88   18.30
 -11   8   5  197.88   15.00
 -10  -8   5    5.10    4.00
  10   8  -5    3.60    4.40
 -10   8   5   10.80    5.10
  -9  -8   5  110.09   12.40
   9   8  -5  105.19   13.00
  -9   8   5  143.79   14.10
  -8  -8   5   59.69    8.90
   8   8  -5   66.69   10.40
  -8   8   5   60.39    8.70
  -8   8   5   70.89    6.80
  -7  -8   5   74.39    9.30
  -7  -8   5   69.89    5.30
   7   8  -5   62.39    9.80
  -7   8   5   54.19    7.50
  -7   8   5   78.59    6.90
  -6  -8   5    5.50    3.50
  -6  -8   5    4.10    2.00
   6   8  -5    4.10    3.70
  -6   8   5    0.70    2.60
  -6   8   5    1.50    2.00
  -5  -8   5    7.80    3.30
  -5  -8   5    5.30    2.30
  -5   8   5    4.10    2.20
  -5   8   5    1.70    2.60
   5   8  -5    6.50    4.00
  -4  -8   5   85.59    6.10
  -4  -8   5   85.99    9.20
   4   8  -5   88.69    9.60
  -4   8   5   79.89    8.10
  -4   8   5   77.09    5.90
  -3  -8   5 1179.78   32.50
  -3  -8   5 1191.18   36.00
  -3   8   5 1160.08   32.50
  -3   8   5 1171.68   34.80
   3   8  -5 1173.48   36.60
  -2  -8   5  528.15   18.30
  -2  -8   5  544.05   21.00
  -2   8   5  551.44   19.80
  -2   8   5  532.95   18.70
   2   8  -5  537.35   21.30
  -1  -8   5    9.00    2.90
  -1   8   5    3.50    2.60
  -1   8   5    5.00    2.60
   1   8  -5    2.70    3.10
   0  -8   5   59.29    6.40
   0   8   5   57.49    6.30
   0   8   5   66.59    7.90
   0   8  -5   87.99    9.70
  -1   8  -5   42.10    6.80
   1   8   5   54.59    7.30
   1   8   5   40.70    5.70
  -2   8  -5 1190.28   37.90
   2   8   5 1227.48   37.60
   2   8   5 1213.18   34.20
  -3   8  -5  194.78   12.60
   3   8   5  194.08   12.50
   3   8   5  179.28    9.30
  -4   8  -5  222.98   13.80
   4   8   5  216.28   13.70
   4   8   5  197.18    9.10
  -5  -8  -5  117.59   11.60
   5   8   5  111.69    7.10
  -5   8  -5  123.79   12.00
   5   8   5  106.89   11.70
  -6  -8  -5    6.80    4.10
  -6   8  -5    5.00    4.10
   6   8   5    4.50    4.00
  -7  -8  -5   47.30    8.50
  -7   8  -5   62.99    9.70
   7   8   5   55.89    9.30
  -8  -8  -5   38.60    8.30
   8  -8   5   26.60    6.60
   8   8   5   43.40    9.00
   9  -8   5    6.80    5.30
  -9  -8  -5   11.40    5.80
   9   8   5    6.30    5.60
 -10  -8  -5    7.80    5.70
  10  -8   5    8.40    5.10
  10   8   5    0.90    5.50
  11  -8   5   94.79   12.90
 -11  -8  -5   86.29   12.70
  11   8   5  126.79   16.80
  12  -8   5   42.50    9.80
 -12  -8  -5   44.10   10.70
  12   8   5   41.30   11.80
 -13  -9   5   22.60    8.30
 -13   9   5   19.40    8.10
 -12  -9   5   17.70    7.00
 -12   9   5   10.00    6.00
  12   9  -5    1.70    4.00
 -11  -9   5   49.10    9.70
  11   9  -5   37.40    9.00
 -11   9   5   38.10    8.10
 -10  -9   5   -0.40    3.10
 -10   9   5    2.40    4.20
  10   9  -5    5.70    5.90
  -9  -9   5   71.29   10.40
  -9   9   5   91.19   11.30
   9   9  -5   75.19   11.50
  -8  -9   5   26.70    6.90
   8   9  -5   26.40    7.20
  -8   9   5   28.30    6.40
  -8   9   5   29.70    7.20
  -7  -9   5    1.30    3.40
  -7  -9   5    5.50    2.30
  -7   9   5    9.60    2.90
  -7   9   5    3.40    3.50
   7   9  -5    1.30    4.40
  -6  -9   5  182.68    9.00
  -6  -9   5  177.38   12.20
   6   9  -5  179.38   13.60
  -6   9   5  188.48    9.90
  -6   9   5  183.78   11.90
  -5  -9   5    4.40    3.00
  -5  -9   5    6.90    2.60
   5   9  -5    6.50    4.00
  -5   9   5    6.80    3.00
  -5   9   5   10.70    4.10
  -4  -9   5   82.49    9.80
  -4  -9   5   62.99    6.20
  -4   9   5   54.19    6.10
   4   9  -5   61.69    8.40
  -4   9   5   68.69    8.20
  -3  -9   5  167.38    9.10
  -3  -9   5  162.98   11.40
   3   9  -5  187.58   12.50
  -3   9   5  191.78   10.10
  -3   9   5  176.58   10.60
  -2  -9   5  521.25   18.10
  -2  -9   5  506.55   21.00
  -2   9   5  479.85   18.90
   2   9  -5  508.85   21.40
  -2   9   5  486.65   18.50
   1   9  -5  235.18   14.20
  -1   9   5  242.98   12.10
  -1   9   5  253.17   12.60
   0   9  -5   11.20    4.40
   0   9   5   16.60    3.90
   0   9   5   16.20    4.40
   1   9   5  203.38   10.90
  -1   9  -5  226.98   14.00
   1   9   5  190.08   12.20
   2   9   5  536.75   22.50
  -2   9  -5  598.54   23.90
   2   9   5  537.65   19.40
   3   9   5  203.68   13.10
  -3   9  -5  181.38   12.90
   3   9   5  194.48   10.30
  -4   9  -5  212.48   13.80
   4   9   5  200.38   13.70
   4   9   5  192.28    9.70
  -5  -9  -5  136.39   13.70
  -5   9  -5  124.19   13.00
   5   9   5  142.69   14.00
  -6  -9  -5   97.39   12.00
   6   9   5   90.89   11.90
  -6   9  -5  111.69   12.30
  -7  -9  -5   85.39   11.20
   7   9   5  145.89   15.30
  -7   9  -5  103.89   12.60
  -8  -9  -5    5.70    5.50
  -8   9  -5    7.00    5.60
   8   9   5   16.10    5.90
  -9  -9  -5   47.50    9.50
  -9   9  -5   38.30    8.90
   9   9   5   36.50    9.50
 -10  -9  -5   19.10    7.30
 -10   9  -5   23.20    7.90
  10   9   5    8.30    6.30
 -11  -9  -5   79.89   13.10
  11   9   5  103.09   15.30
 -11   9  -5  103.19   15.20
 -12 -10   5   57.59   11.90
  12  10  -5   52.49   11.30
 -12  10   5   62.99   12.10
 -11 -10   5   10.90    5.70
 -11  10   5   14.90    6.70
  11  10  -5   -1.90    5.60
 -10 -10   5  213.38   16.70
  10  10  -5  213.18   19.40
 -10  10   5  213.88   16.00
  -9 -10   5   90.99   12.20
   9  10  -5   93.59   13.10
  -9  10   5   80.19   10.50
  -8 -10   5   35.70    7.10
  -8  10   5   29.80    6.70
   8  10  -5   30.90    8.20
  -7 -10   5   14.80    5.40
   7  10  -5   14.50    6.80
  -7  10   5   20.80    4.60
  -7  10   5   12.10    5.10
  -6 -10   5   21.00    5.60
  -6  10   5   20.70    5.60
  -6  10   5   20.40    4.50
   6  10  -5   16.50    6.40
  -5 -10   5  150.88   11.50
   5  10  -5  135.99   13.30
  -5  10   5  137.79    9.00
  -5  10   5  146.99   10.80
  -4 -10   5   28.10    6.70
  -4  10   5   33.70    5.40
  -4  10   5   37.40    6.30
   4  10  -5   40.10    7.50
  -3 -10   5  142.79   10.90
  -3  10   5  150.08    9.60
   3  10  -5  155.98   14.10
  -3  10   5  140.19    9.90
  -2  10   5  171.98   10.60
  -2  10   5  158.88   10.30
   2  10  -5  159.18   11.90
  -1  10   5  179.98   10.50
  -1  10   5  165.48   10.70
   1  10  -5  192.68   13.40
   0  10   5   44.70    6.20
   0  10   5   42.90    6.90
   0  10  -5   38.20    7.90
  -1  10  -5  775.62   29.60
   1  10   5  791.02   25.70
   1  10   5  771.22   28.50
  -2  10  -5  144.89   13.30
   2  10   5  147.99    9.70
   2  10   5  157.98   11.80
   3  10   5    6.00    3.40
   3  10   5    4.50    3.70
  -3  10  -5    3.10    3.60
   4  10   5  203.18   14.10
  -4  10  -5  225.38   14.80
   4  10   5  191.68   10.00
   5  10   5   44.80    8.70
  -5  10  -5   53.99    8.80
  -6 -10  -5  121.59   13.50
   6  10   5  146.99   15.20
  -6  10  -5  119.39   12.90
  -7 -10  -5   -2.60    3.60
  -7  10  -5    7.70    5.60
   7  10   5   -2.30    5.40
  -8 -10  -5  356.56   21.50
  -8  10  -5  322.37   20.90
   8  10   5  359.56   21.90
  -9 -10  -5   10.50    6.80
  -9  10  -5    5.80    6.70
   9  10   5   -0.60    5.50
 -10 -10  -5    2.20    6.20
  10  10   5   -1.90    6.10
 -10  10  -5    4.10    6.90
 -11 -10  -5    4.40    6.80
 -11  10  -5    4.00    7.40
  11  10   5   -2.20    6.70
 -12 -11   5   17.80    8.10
 -12  11   5   19.00    7.60
  12  11  -5   17.70    8.70
 -11 -11   5    7.00    5.70
 -11  11   5   -2.00    4.40
  11  11  -5    6.30    6.90
 -10 -11   5    1.30    4.80
  10  11  -5    0.40    5.50
 -10  11   5    1.20    4.50
  -9 -11   5   63.29   10.70
   9  11  -5   44.20   10.80
  -9  11   5   48.30    8.90
  -8 -11   5   24.90    6.90
   8  11  -5    3.70    6.80
  -8  11   5    7.80    4.50
  -7 -11   5  352.56   20.00
   7  11  -5  375.56   22.00
  -7  11   5  376.66   16.50
  -7  11   5  369.76   19.30
  -6 -11   5  481.15   23.00
  -6  11   5  479.55   21.80
   6  11  -5  509.05   25.30
  -6  11   5  487.65   19.20
  -5 -11   5    0.70    3.40
  -5  11   5    1.10    3.20
  -5  11   5    6.30    3.20
   5  11  -5    5.50    5.20
  -4 -11   5  435.46   21.30
  -4  11   5  435.96   19.30
  -4  11   5  409.76   17.50
   4  11  -5  422.66   21.50
  -3 -11   5   30.50    6.80
  -3  11   5   27.80    5.60
  -3  11   5   36.20    6.20
   3  11  -5   31.30    6.60
  -2  11   5   88.69    9.20
   2  11  -5  113.29   12.00
  -2  11   5  101.29    9.70
   1  11  -5    9.20    4.60
  -1  11   5    9.80    4.40
  -1  11   5   15.30    4.30
   0  11   5   76.29    9.20
   0  11   5   61.09    7.30
   0  11  -5   55.09    8.80
   1  11   5  318.27   14.70
   1  11   5  316.77   17.30
  -1  11  -5  341.47   18.70
   2  11   5  118.69    8.90
   2  11   5  141.69   13.90
  -2  11  -5  111.79   12.20
   3  11   5  141.29    9.10
  -3  11  -5  143.39   14.40
   3  11   5  141.99   14.30
  -4  11  -5   16.80    5.70
   4  11   5   19.20    5.90
  -5  11  -5  160.58   15.30
   5  11   5  154.28   15.40
   6  11   5    3.50    4.80
  -6  11  -5    8.70    5.50
  -7 -11  -5  215.98   16.80
  -7  11  -5  220.78   16.40
   7  11   5  226.78   17.10
  -8 -11  -5  163.08   17.50
   8  11   5  148.69   17.40
  -8  11  -5  156.08   16.50
  -9 -11  -5  324.47   22.10
  -9  11  -5  329.47   21.90
   9  11   5  352.26   24.00
 -10 -11  -5   38.10   10.20
 -10  11  -5   35.10   10.10
  10  11   5   35.20   10.20
 -11 -12   5  169.98   19.90
 -11  12   5  103.29   13.80
  11  12  -5  100.49   15.70
 -10 -12   5   11.90    6.80
  10  12  -5    3.40    6.80
 -10  12   5    9.10    6.00
  -9 -12   5   59.39    9.90
   9  12  -5   51.09   11.80
  -9  12   5   66.79   10.50
  -8 -12   5   57.29   10.90
   8  12  -5   43.10   10.80
  -8  12   5   47.90    9.00
  -7 -12   5  195.98   15.50
   7  12  -5  206.78   19.30
  -7  12   5  206.68   14.80
  -7  12   5  233.68   13.20
  -6 -12   5   94.29   12.00
  -6  12   5  117.49   11.00
   6  12  -5   98.19   13.60
  -6  12   5   91.29   10.80
  -5 -12   5  667.63   29.40
  -5  12   5  752.82   26.20
   5  12  -5  722.13   31.40
  -5  12   5  695.23   27.60
  -4 -12   5   21.80    6.50
   4  12  -5   13.00    6.00
  -4  12   5   20.80    5.40
  -4  12   5   13.30    4.50
  -3  12   5   23.70    5.40
  -3  12   5   11.00    4.30
   3  12  -5   15.90    6.00
   2  12  -5    4.60    4.80
  -2  12   5    1.50    3.00
  -2  12   5   14.80    5.00
   1  12  -5   51.69    9.30
  -1  12   5   70.39    8.20
  -1  12   5   59.09    8.20
   0  12  -5   36.20    7.30
   0  12   5   45.00    7.40
   0  12   5   53.69    7.40
   1  12   5   54.99    7.20
   1  12   5   62.19    9.00
  -1  12  -5   43.90    8.70
   2  12   5   11.20    4.30
  -2  12  -5   10.10    5.50
   2  12   5   42.20    8.40
   3  12   5  197.18   11.60
   3  12   5  153.88   14.70
  -3  12  -5  220.48   15.40
   4  12   5   89.39   11.80
  -4  12  -5   74.59   10.70
  -5  12  -5   32.20    7.60
   5  12   5   45.00    9.60
  -6  12  -5    1.00    4.30
   6  12   5    0.80    4.90
   7  12   5   37.10    9.60
  -7  12  -5   25.70    8.10
  -8 -12  -5  381.96   23.80
   8  12   5  383.16   24.90
  -8  12  -5  421.06   24.50
  -9 -12  -5  123.99   16.20
   9  12   5  125.79   17.10
  -9  12  -5  133.29   16.60
 -10 -12  -5    9.90    7.00
 -10  12  -5   25.90    9.70
  10  12   5   12.50    8.20
 -11 -13   5   10.00    7.50
 -11  13   5   19.70    8.10
  11  13  -5    2.00    8.20
 -10 -13   5  107.19   15.50
 -10  13   5   85.09   12.50
  10  13  -5   73.29   14.80
  -9 -13   5   -1.20    4.30
   9  13  -5    5.70    8.00
  -9  13   5    4.60    5.60
  -8 -13   5  119.59   14.80
  -8  13   5  111.89   13.30
   8  13  -5  135.79   17.90
  -7 -13   5  102.29   14.30
  -7  13   5   86.29   11.60
   7  13  -5   77.69   12.60
  -7  13   5   73.09    9.40
  -6 -13   5 1147.49   43.40
   6  13  -5 1146.99   44.80
  -6  13   5 1164.38   40.90
  -6  13   5 1324.37   39.40
  -5 -13   5  320.37   19.60
   5  13  -5  252.27   21.90
  -5  13   5  290.87   16.00
  -5  13   5  264.87   16.50
  -4  13   5    5.00    4.20
  -4  13   5    1.00    3.60
   4  13  -5   -6.80    4.40
   3  13  -5   91.89   13.00
  -3  13   5   81.69    9.60
  -3  13   5   86.69   10.00
   2  13  -5    2.50    4.20
  -2  13   5    9.70    4.30
  -2  13   5    7.70    4.50
  -1  13   5   16.00    4.90
   1  13  -5   21.90    6.90
  -1  13   5   10.40    5.00
   0  13  -5   -0.90    4.10
   0  13   5    6.50    3.70
   0  13   5    3.50    4.40
   1  13   5  252.67   13.90
   1  13   5  281.07   17.20
  -1  13  -5  266.57   17.90
   2  13   5   29.80    5.80
  -2  13  -5   41.20    8.90
   2  13   5   33.60    7.70
   3  13   5    2.60    4.70
   3  13   5    0.70    3.10
  -3  13  -5   -8.30    3.90
   4  13   5   12.00    6.60
  -4  13  -5   11.40    6.40
  -5  13  -5   34.00    8.70
   5  13   5   19.80    7.00
   6  13   5   75.09   11.80
  -6  13  -5   76.69   11.90
  -7  13  -5   15.00    7.20
   7  13   5   21.50    7.80
  -8  13  -5   76.19   13.10
   8  13   5   95.89   15.30
  -9  13  -5  164.38   18.40
   9  13   5  148.09   18.20
 -10 -14   5   46.90   11.00
  10  14  -5   28.00   11.60
 -10  14   5   52.99   10.50
  -9 -14   5   49.20   11.30
   9  14  -5   36.90   11.70
  -9  14   5   36.80    9.30
  -8 -14   5    2.30    5.90
  -8  14   5    2.70    5.50
   8  14  -5    8.60    8.30
  -7 -14   5   12.30    6.30
  -7  14   5   21.90    7.00
   7  14  -5   32.80   10.10
  -6 -14   5   16.70    7.00
   6  14  -5   31.20   10.00
  -6  14   5   29.40    6.90
  -6  14   5   28.40    7.10
  -5 -14   5   82.79   12.60
  -5  14   5   67.79   10.00
   5  14  -5   79.09   12.60
  -5  14   5   87.59   11.50
   4  14  -5  121.19   15.10
  -4  14   5   79.29   10.40
  -4  14   5   75.39   10.40
  -3  14   5   32.30    6.90
  -3  14   5   21.80    6.20
   3  14  -5   11.50    6.10
  -2  14   5   47.40    8.40
  -2  14   5   34.60    6.80
   2  14  -5   54.19   10.30
  -1  14   5    5.10    3.30
   1  14  -5    3.20    5.00
  -1  14   5    4.20    5.00
   0  14   5  589.64   26.60
   0  14  -5  618.64   29.20
   0  14   5  635.44   24.60
  -1  14  -5   98.79   13.10
   1  14   5  107.49   10.90
   1  14   5  104.89   13.10
  -2  14  -5   61.89   10.90
   2  14   5   74.49    8.60
   2  14   5   68.99   10.80
   3  14   5   17.00    6.40
  -3  14  -5    1.30    5.20
   4  14   5    8.80    6.00
  -4  14  -5   14.70    6.90
  -5  14  -5    6.70    6.50
   5  14   5    7.10    6.20
  -6  14  -5   -3.70    5.10
   6  14   5   16.70    8.30
  -7  14  -5   75.59   12.50
   7  14   5  105.09   14.70
   8  14   5   63.59   13.20
  -8  14  -5   48.90   11.60
  -9 -15   5    5.80    7.30
  -9  15   5    2.60    5.60
   9  15  -5   11.20    9.80
  -8 -15   5   99.49   14.90
   8  15  -5  128.59   18.10
  -8  15   5  120.79   15.40
  -7 -15   5   13.20    7.20
   7  15  -5   13.30    8.90
  -7  15   5   12.80    6.30
  -6 -15   5   16.00    6.50
  -6  15   5   19.50    7.00
  -6  15   5   16.90    6.30
   6  15  -5    1.90    7.60
  -5  15   5   65.09   10.20
   5  15  -5   55.79   11.40
  -5  15   5   44.30    8.60
   4  15  -5  142.69   17.60
  -4  15   5  142.49   14.30
  -4  15   5  154.38   15.40
  -3  15   5    0.90    4.50
   3  15  -5   -0.80    5.30
  -3  15   5    4.30    4.50
   2  15  -5   17.10    8.40
  -2  15   5    5.60    4.90
  -2  15   5   13.20    6.00
  -1  15   5   23.10    6.60
  -1  15   5   21.10    5.50
   1  15  -5   16.20    7.40
   0  15   5   26.20    6.10
   0  15  -5   39.20   10.00
   0  15   5   42.50    9.20
   1  15   5  110.09   13.80
  -1  15  -5  109.39   14.50
   1  15   5  110.79   11.30
  -2  15  -5  134.49   15.90
   2  15   5  195.58   13.10
   2  15   5  157.58   16.90
  -3  15  -5  251.77   19.00
   3  15   5  221.98   20.50
  -4  15  -5   -6.70    4.80
   4  15   5    5.60    5.70
   5  15   5   82.19   13.30
  -5  15  -5   87.79   13.10
  -6  15  -5   30.00    9.60
   6  15   5   26.00    8.80
  -7  15  -5   23.60    9.30
   7  15   5   11.20    8.30
   8  15   5   10.30    8.80
  -8  15  -5   10.40    8.70
  -8 -16   5    2.70    7.00
   8  16  -5   -3.50    6.70
  -8  16   5    4.30    5.80
  -7 -16   5   80.69   14.60
  -7  16   5   49.99    9.90
   7  16  -5   67.79   14.20
  -6  16   5   49.00   10.30
  -6  16   5   52.29    9.70
   6  16  -5   60.29   13.40
  -5  16   5   56.09   10.40
  -5  16   5   58.49   10.70
   5  16  -5   61.39   12.60
  -4  16   5   38.70    8.60
   4  16  -5   34.50   10.90
  -4  16   5   49.60    9.30
   3  16  -5    6.20    7.00
  -3  16   5    6.10    5.60
  -3  16   5    3.60    5.40
  -2  16   5   29.50    7.70
  -2  16   5   20.60    6.00
   2  16  -5   16.80    9.10
  -1  16   5   51.79    9.70
  -1  16   5   45.20    8.40
   1  16  -5   44.70   10.50
   0  16   5   29.80    6.80
   0  16   5   26.70    8.20
   0  16  -5   30.50    9.60
  -1  16  -5   38.80    9.80
   1  16   5   55.79    8.50
   1  16   5   58.59   11.10
   2  16   5  396.36   24.00
  -2  16  -5  408.26   25.10
   3  16   5   64.69   12.30
  -3  16  -5   71.89   12.80
   4  16   5    2.10    6.60
  -4  16  -5    2.50    5.60
  -5  16  -5    3.50    6.80
   5  16   5    3.10    7.00
   6  16   5   25.20    9.40
  -6  16  -5   49.40   11.90
  -7  16  -5   13.00    8.80
   7  16   5   -2.70    6.50
  -7  17   5   72.79   13.00
   7  17  -5   63.19   15.60
   6  17  -5    2.20    8.50
  -6  17   5    6.80    6.70
  -5  17   5   -2.30    5.60
   5  17  -5    5.80    8.40
  -5  17   5    5.50    5.90
  -4  17   5  165.48   17.00
   4  17  -5  146.79   18.80
  -4  17   5  158.58   16.90
  -3  17   5   73.79   11.50
   3  17  -5   63.79   12.70
  -3  17   5   67.09   11.80
   2  17  -5    0.20    7.50
  -2  17   5    6.60    5.50
  -2  17   5    3.60    5.50
  -1  17   5    8.20    6.40
   1  17  -5    8.00    8.00
  -1  17   5   10.10    4.70
   0  17  -5   86.89   14.30
   0  17   5   74.19   12.30
   0  17   5   80.19   11.10
   1  17   5   94.59   11.60
  -1  17  -5   75.49   13.60
   1  17   5   72.79   12.30
   2  17   5   10.20    7.50
  -2  17  -5    3.70    7.70
   3  17   5  204.48   20.30
  -3  17  -5  203.48   21.30
  -4  17  -5   23.80    9.70
   4  17   5    2.80    6.80
   5  17   5   15.40    8.30
  -5  17  -5    8.50    6.60
   5  18  -5  140.89   20.00
  -5  18   5  123.79   16.20
  -5  18   5  124.59   15.70
   4  18  -5   12.30    9.90
  -4  18   5   -8.40    6.10
  -4  18   5   -4.70    5.50
  -3  18   5  226.48   21.20
  -3  18   5  220.58   17.30
   3  18  -5  202.18   22.70
  -2  18   5    0.20    6.00
   2  18  -5   13.90    8.40
  -2  18   5    2.90    6.60
   1  18  -5   62.29   13.90
  -1  18   5  109.79   15.00
  -1  18   5   87.19   12.40
   0  18   5    4.00    5.90
   0  18   5   -2.20    5.50
   0  18  -5    1.30    7.60
   1  18   5   70.09   13.00
  -1  18  -5   61.69   13.30
   2  18   5   10.50    8.70
  -2  18  -5    8.20    8.40
  -3  18  -5    7.40    6.60
   3  18   5   12.00    7.70
  -4  18  -5   42.30   12.60
   4  18   5   44.60   11.40
  -3  19   5   -0.90    6.10
   3  19  -5   10.20   10.70
  -3  19   5    2.50    7.50
   2  19  -5    8.10    9.10
  -2  19   5   20.30    9.00
  -2  19   5   19.60    7.70
  -1  19   5    4.20    6.80
  -1  19   5   17.00    8.40
   1  19  -5    0.10    8.70
   0  19   5    9.20    6.80
   0  19   5    6.80    8.20
   0  19  -5   10.10    9.90
   1  19   5   29.80   10.70
  -1  19  -5   32.90   11.40
 -14   0   6  280.07   19.00
 -13   0   6    0.90    4.20
 -12   0   6  231.28   15.50
 -11   0   6   -0.90    2.90
 -11   0   6   -0.80    2.70
 -10   0   6   81.59    8.80
 -10   0   6   88.69   10.40
   9   0  -6    6.20    1.90
  -9   0   6    9.60    3.40
  -9   0   6    2.80    2.90
  -8   0   6 1619.74   46.50
  -8   0   6 1706.43   45.50
   8   0  -6 1645.94   39.30
   7   0  -6    1.50    1.10
  -7   0   6    3.60    2.60
  -6   0   6  390.86   15.40
   6   0  -6  391.66   10.30
  -5   0   6    7.00    2.70
  -4   0   6   24.90    4.20
   4   0  -6   26.60    2.20
  -3   0   6    8.60    2.60
   3   0  -6    6.20    1.50
  -2   0   6 1123.29   26.90
  -2   0   6 1084.09   30.00
  -1   0   6    0.60    1.10
  -1   0   6    1.50    1.70
   0   0   6  419.76   14.10
   0   0   6  425.26   13.00
   1   0   6    2.40    1.50
   1   0   6    0.70    1.20
   2   0   6   96.99    6.00
   2   0   6  111.19    6.30
   3   0   6    2.90    2.00
   3   0   6   -0.40    0.70
  -3   0  -6    2.90    1.30
   4   0   6  692.83   21.10
   4   0   6  675.23   21.90
  -4   0  -6  657.13   18.40
  -5   0  -6    3.00    1.70
   5   0   6   -0.30    1.50
   5   0   6    5.50    2.80
  -6   0  -6 3920.31   92.09
   6   0   6 3976.80   96.29
  -7   0  -6   -0.80    2.10
   7   0   6    1.30    2.40
  -8   0  -6   42.50    6.00
   8   0   6   44.90    6.80
  -9   0  -6    4.40    3.10
   9   0   6   11.10    4.80
  10   0   6  154.98   14.20
 -10   0  -6  119.69   11.30
 -11   0  -6    5.10    7.30
  11   0   6    1.60    3.60
  12   0   6  176.28   17.50
 -14  -1   6  107.89   14.20
 -14   1   6  114.59   14.30
 -13  -1   6   18.30    6.40
 -13   1   6   18.90    6.40
 -12  -1   6    8.70    4.30
 -12   1   6    5.80    4.70
 -12   1   6    9.90    4.60
 -11  -1   6  172.88   15.50
 -11  -1   6  147.29   10.20
 -11   1   6  167.78   11.80
 -11   1   6  178.38   12.80
 -10  -1   6    2.50    2.80
 -10  -1   6    0.60    2.90
 -10   1   6   -0.80    2.80
 -10   1   6    0.20    2.80
  -9  -1   6   94.09   10.10
  -9  -1   6   88.99    8.30
   9  -1  -6   96.39    8.40
   9   1  -6   82.09    5.30
  -9   1   6   96.29    9.70
   8  -1  -6  925.21   23.20
  -8  -1   6  970.70   28.70
  -8  -1   6  945.31   30.50
  -8   1   6  935.81   30.00
   8   1  -6  901.21   24.30
   7  -1  -6  833.22   20.10
  -7  -1   6  830.92   27.00
  -7  -1   6  885.01   26.20
   7   1  -6  838.42   21.80
  -7   1   6  800.02   26.90
  -6  -1   6  110.99    7.40
  -6  -1   6   98.99    6.90
   6   1  -6  101.99    4.90
  -6   1   6  103.39    7.90
  -5  -1   6  441.46   16.00
  -5  -1   6  467.05   16.20
   5   1  -6  448.26   13.40
  -5   1   6  466.05   17.20
  -4  -1   6   11.90    2.90
  -4   1   6   10.20    3.00
   4   1  -6   12.40    2.10
  -3  -1   6  291.67   11.50
   3   1  -6  306.07   10.00
  -3   1   6  294.67   12.40
  -2  -1   6   53.39    5.00
  -2   1   6   47.30    2.70
  -2   1   6   52.09    5.60
   2   1  -6   49.99    4.20
  -1  -1   6  683.03   20.50
  -1  -1   6  712.13   19.20
  -1   1   6  700.43   18.30
  -1   1   6  708.83   21.20
   0  -1   6 1112.49   29.90
   0  -1   6 1147.49   25.50
   0  -1   6 1083.79   28.80
   0   1   6 1125.09   28.40
   0   1   6 1133.29   30.10
   1  -1   6   35.10    4.30
   1  -1   6   34.50    3.80
   1   1   6   39.90    4.10
   1   1   6   35.10    4.10
   2  -1   6   21.70    3.60
   2  -1   6   16.80    3.00
   2   1   6   25.70    3.80
   2   1   6   10.30    2.40
  -3  -1  -6  772.52   20.60
   3  -1   6  743.73   22.70
   3  -1   6  714.53   22.50
  -3   1  -6  722.63   18.30
   3   1   6  744.33   21.90
   3   1   6  786.22   23.10
   4  -1   6    8.00    2.70
  -4  -1  -6    9.90    2.30
   4  -1   6    2.40    1.40
  -4   1  -6    4.80    1.60
   4   1   6    8.90    2.50
   4   1   6    5.40    2.50
   5  -1   6    9.80    3.00
  -5  -1  -6   15.00    3.00
   5  -1   6   10.00    2.60
   5   1   6   11.20    2.70
   5   1   6    8.40    3.40
  -5   1  -6   13.00    2.40
  -6  -1  -6   99.69    6.90
   6  -1   6  109.29    9.70
   6   1   6  113.79    6.80
  -6   1  -6  100.09    6.30
   6   1   6  101.69    9.50
   7  -1   6 1336.97   39.30
  -7  -1  -6 1276.87   36.30
  -7   1  -6 1311.17   35.60
   7   1   6 1314.87   39.50
   8  -1   6   14.60    4.20
  -8  -1  -6    8.10    3.10
  -8   1  -6    9.30    3.60
   8   1   6   15.00    4.70
   9  -1   6  311.87   16.50
  -9  -1  -6  288.27   14.50
  -9   1  -6  290.77   14.20
   9   1   6  285.37   16.20
  10  -1   6   17.20    5.80
 -10  -1  -6   14.90    4.90
 -10   1  -6   14.40    5.00
  10   1   6   20.10    6.10
 -11  -1  -6   13.20    5.20
  11  -1   6   19.80    6.20
  11   1   6    9.80    4.80
  12  -1   6   43.10    9.30
  12   1   6   45.20    9.00
 -14  -2   6    7.90    6.50
 -14   2   6   24.80    8.10
 -13  -2   6   13.80    5.40
 -13   2   6   11.50    5.50
 -12  -2   6   85.99   11.00
 -12   2   6   76.29   10.10
 -12   2   6   88.99   11.40
 -11  -2   6   92.39   11.10
 -11   2   6   99.09   10.80
 -10  -2   6  144.59   10.70
 -10  -2   6  133.69    8.60
  10   2  -6  108.59    7.20
 -10   2   6  122.39   11.70
  -9  -2   6  408.76   18.50
  -9  -2   6  423.36   16.00
   9   2  -6  402.16   14.10
  -9   2   6  410.76   18.60
   8  -2  -6  369.06   11.10
  -8  -2   6  393.86   15.00
  -8  -2   6  385.86   17.00
  -8   2   6  387.16   17.50
   8   2  -6  390.56   13.40
  -7  -2   6  240.88   12.20
  -7  -2   6  231.78   10.80
   7   2  -6  239.68    9.60
  -7   2   6  225.08   12.50
  -6  -2   6   56.99    5.70
  -6  -2   6   50.99    6.00
  -6   2   6   45.10    6.10
   6   2  -6   55.59    5.20
  -5  -2   6   78.09    5.80
  -5  -2   6   79.09    6.00
  -5   2   6   78.69    8.10
   5   2  -6   89.39    5.70
  -4  -2   6   30.30    4.00
  -4  -2   6   42.10    4.90
   4   2  -6   39.60    4.00
  -4   2   6   43.80    6.10
  -3  -2   6    3.10    1.50
  -3  -2   6    6.10    2.10
  -3   2   6    3.30    2.30
   3   2  -6    8.80    2.30
  -3   2   6    8.00    1.00
  -2  -2   6   16.80    3.00
  -2  -2   6   16.00    2.40
  -2   2   6    8.50    2.80
   2   2  -6   17.40    3.10
  -2   2   6   14.30    1.80
  -1  -2   6  254.67    8.00
  -1  -2   6  270.47   10.20
  -1  -2   6  256.57   10.40
  -1   2   6  272.37   11.30
  -1   2   6  271.37    8.80
   0  -2   6 1427.66   32.40
   0  -2   6 1433.56   36.80
   0  -2   6 1402.36   36.00
   0   2   6 1426.86   37.00
   0   2   6 1390.26   35.10
   1  -2   6  409.46   14.80
   1  -2   6  452.85   14.70
   1   2   6  439.46   14.50
   1   2   6  416.06   14.00
   2  -2   6   18.20    3.30
   2  -2   6   19.50    3.50
   2   2   6   17.00    3.30
   2   2   6   20.20    3.20
   3  -2   6  366.56   13.90
  -3  -2  -6  362.36   12.60
   3  -2   6  346.67   13.50
   3   2   6  365.46   14.00
   3   2   6  337.97   12.30
  -3   2  -6  340.67    9.40
   4  -2   6 1128.69   32.50
  -4  -2  -6 1142.49   30.60
   4  -2   6 1097.39   31.80
   4   2   6 1136.89   32.90
  -4   2  -6 1141.29   27.70
   4   2   6 1139.29   30.50
  -5  -2  -6   28.30    4.10
   5  -2   6   26.10    4.20
   5  -2   6   25.50    4.90
   5   2   6   29.50    5.10
  -5   2  -6   33.50    3.60
   5   2   6   27.90    3.80
   6  -2   6   58.99    7.00
  -6  -2  -6   68.79    6.80
   6   2   6   63.59    5.70
  -6   2  -6   69.19    5.00
   6   2   6   65.39    7.80
  -7  -2  -6    7.30    3.10
   7  -2   6    2.00    2.40
  -7   2  -6    1.30    2.20
   7   2   6    3.10    3.00
  -8  -2  -6   59.29    7.30
   8  -2   6   64.39    8.20
  -8   2  -6   68.99    7.00
   8   2   6   62.79    8.70
  -9  -2  -6    4.70    3.30
   9  -2   6    4.30    3.60
  -9   2  -6    0.20    3.00
   9   2   6    1.00    3.10
 -10  -2  -6    4.10    3.60
  10  -2   6    5.50    4.20
 -10   2  -6    5.30    3.50
  10   2   6    4.50    3.70
 -11  -2  -6    7.30    4.80
  11  -2   6    9.70    5.10
  11   2   6    9.30    5.60
  12  -2   6    7.80    5.70
  12   2   6    7.50    5.30
 -14  -3   6    8.20    6.30
 -14   3   6    4.60    5.70
 -13  -3   6   52.99    9.90
 -13   3   6   40.70    8.70
 -13   3   6   51.79    9.20
 -12  -3   6   42.60    8.20
 -12   3   6   37.80    8.00
 -11  -3   6    8.40    4.40
 -11   3   6    8.90    4.70
 -10  -3   6  165.98    9.30
 -10  -3   6  172.28   12.30
 -10   3   6  176.98   12.50
  10   3  -6  174.78    9.70
  -9  -3   6   49.90    5.80
  -9  -3   6   53.69    8.20
   9   3  -6   43.30    5.20
  -9   3   6   47.10    7.60
  -8  -3   6  270.37   11.60
  -8  -3   6  298.07   14.70
   8   3  -6  250.97   11.50
  -8   3   6  273.17    8.60
  -8   3   6  263.97   14.40
  -7  -3   6  198.28    9.50
  -7  -3   6  208.98   11.40
  -7   3   6  213.78   12.30
   7   3  -6  190.98   10.00
  -6  -3   6  462.55   17.70
  -6  -3   6  474.85   16.00
   6   3  -6  469.95   17.00
  -6   3   6  478.55   19.10
  -5  -3   6  403.96   14.40
  -5  -3   6  415.56   15.50
  -5   3   6  413.96   17.10
   5   3  -6  432.86   15.20
  -4  -3   6  167.68    8.10
  -4  -3   6  163.68    8.20
  -4   3   6  161.38    9.80
   4   3  -6  187.68    8.60
  -3  -3   6  123.59    6.50
  -3  -3   6  127.79    6.90
  -3   3   6  131.69    8.40
  -3   3   6  136.19    4.60
   3   3  -6  136.29    7.20
  -2  -3   6  290.87   11.30
  -2  -3   6  310.17   10.30
  -2   3   6  305.87   13.10
  -2   3   6  294.07    9.20
  -1  -3   6 2907.31   69.89
  -1  -3   6 3012.00   66.99
   1   3  -6 2993.10   70.59
  -1   3   6 2943.81   67.49
  -1   3   6 2798.22   70.99
   0  -3   6  416.16   11.90
   0  -3   6  400.76   14.60
   0  -3   6  405.56   14.50
   0   3   6  412.86   14.90
   0   3   6  405.76   13.30
   1  -3   6    7.60    2.70
   1  -3   6    8.20    2.50
   1   3   6    5.50    2.20
   1   3   6    6.30    2.20
   2  -3   6  303.77   12.50
   2  -3   6  320.97   12.90
   2   3   6  317.77   12.60
   2   3   6  319.67   11.70
   3  -3   6   14.90    3.40
  -3  -3  -6   20.40    3.70
   3  -3   6    6.20    2.50
   3   3   6   21.90    3.20
   3   3   6   17.50    3.70
   4  -3   6   46.60    5.90
  -4  -3  -6   52.59    5.80
   4  -3   6   47.90    5.80
   4   3   6   58.09    5.40
   4   3   6   40.40    5.70
   5  -3   6  390.66   16.10
  -5  -3  -6  363.06   14.60
   5   3   6  353.86   15.90
  -5   3  -6  388.16   12.40
   5   3   6  365.86   13.00
   6  -3   6   70.99    8.20
  -6  -3  -6   62.79    6.70
   6   3   6   55.99    5.00
  -6   3  -6   66.39    5.10
   6   3   6   55.89    7.40
  -7  -3  -6   49.60    6.40
   7  -3   6   38.60    6.40
   7   3   6   29.40    6.00
  -7   3  -6   39.20    5.20
  -8  -3  -6   43.40    6.60
   8  -3   6   48.80    7.30
  -8   3  -6   41.00    5.70
   8   3   6   65.79    9.30
  -9  -3  -6    7.60    4.10
   9  -3   6    6.40    3.90
  -9   3  -6    7.30    3.70
   9   3   6    4.40    3.60
  10  -3   6   54.59    9.40
 -10  -3  -6   46.20    7.80
  10   3   6   60.09   10.10
 -11  -3  -6    3.40    4.80
  11  -3   6    0.90    3.90
  11   3   6    3.70    4.40
  12  -3   6   55.49   10.20
 -12  -3  -6   50.19   15.00
  12   3   6   70.49   11.70
 -14  -4   6   28.70    8.50
 -14   4   6   35.70    9.00
 -13  -4   6   75.79   11.80
 -13   4   6   76.39   11.80
 -12  -4   6   85.39   11.40
 -12   4   6   93.79   11.60
 -11  -4   6   36.00    7.30
 -11   4   6   39.80    8.30
 -10  -4   6    2.00    3.50
  10   4  -6    7.00    3.60
 -10   4   6   -1.40    3.50
  -9  -4   6   33.70    6.90
  -9  -4   6   31.70    4.60
  -9   4   6   23.30    5.80
   9   4  -6   29.10    5.10
  -8  -4   6   20.50    3.60
  -8  -4   6   19.70    4.80
   8   4  -6   19.80    4.50
  -8   4   6   20.60    5.40
  -7  -4   6  925.01   27.00
  -7  -4   6  980.50   30.80
  -7   4   6 1003.00   32.20
   7   4  -6  912.01   29.80
  -7   4   6  986.00   23.00
  -6  -4   6   20.40    4.10
  -6  -4   6   25.60    3.80
  -6   4   6   20.10    4.90
   6   4  -6   22.80    4.30
  -5  -4   6   68.09    6.20
  -5  -4   6   63.59    6.50
   5   4  -6   69.59    7.00
  -5   4   6   68.89    7.90
  -5   4   6   60.89    2.90
  -4  -4   6  335.57   12.50
  -4  -4   6  330.77   13.00
  -4   4   6  360.16   15.40
   4   4  -6  330.57   13.20
  -4   4   6  340.97    9.60
  -3  -4   6   39.10    4.60
  -3  -4   6   45.50    4.70
  -3   4   6   49.10    6.30
  -3   4   6   42.10    3.10
  -2  -4   6   17.40    2.90
  -2  -4   6   12.30    2.70
  -2   4   6   13.10    3.70
   2   4  -6   17.50    3.60
  -2   4   6   22.40    2.80
  -1  -4   6 1000.10   28.20
  -1  -4   6 1010.10   26.20
   1   4  -6 1029.50   29.30
  -1   4   6  958.60   29.20
  -1   4   6  975.60   26.40
   0  -4   6  210.68    9.90
   0   4   6  197.98    9.90
   0   4   6  189.18    8.70
   0   4  -6  195.78   10.10
   1  -4   6   17.70    3.70
   1  -4   6   15.20    3.50
   1   4   6   20.30    3.80
   2  -4   6   37.30    5.00
   2  -4   6   35.70    5.00
   2   4   6   48.20    5.80
   2   4   6   46.70    5.00
   3  -4   6   68.79    7.30
   3  -4   6   60.39    6.50
   3   4   6   63.89    6.90
   3   4   6   61.29    4.80
   4  -4   6   63.69    6.70
   4  -4   6   74.49    7.40
  -4  -4  -6   74.49    7.50
   4   4   6   58.49    7.00
   4   4   6   81.39    5.30
   5  -4   6   28.80    5.20
  -5  -4  -6   27.00    4.80
   5   4   6   22.80    5.10
   5   4   6   21.00    3.50
  -6  -4  -6   68.09    7.60
   6  -4   6   63.79    7.60
   6   4   6   53.69    8.00
   6   4   6   59.79    4.50
   7  -4   6  222.08   13.30
  -7  -4  -6  235.48   12.90
  -7   4  -6  225.18   10.70
   7   4   6  241.08   14.30
   8  -4   6   25.40    5.50
  -8  -4  -6   18.30    5.00
  -8   4  -6   20.90    4.50
   8   4   6   21.30    5.80
  -9  -4  -6   61.69    8.60
   9  -4   6   67.79    9.70
   9   4   6   58.99    9.10
  -9   4  -6   56.79    7.40
  10  -4   6   12.50    5.40
 -10  -4  -6    4.10    4.70
  10   4   6    4.90    4.90
  11  -4   6   13.90    5.70
 -11  -4  -6    0.30    4.50
  11   4   6    8.60    5.60
 -12  -4  -6   68.49   11.10
  12  -4   6   62.69   10.60
  12   4   6   82.29   12.90
 -14  -5   6    6.20    6.20
 -14   5   6   11.50    7.10
 -13  -5   6   25.40    7.90
 -13   5   6   13.20    6.80
 -12  -5   6  100.69   12.60
 -12   5   6  131.29   14.40
 -11  -5   6  176.08   16.20
 -11   5   6  171.18   15.50
  11   5  -6  175.68   12.00
 -10  -5   6  187.38   13.50
  10   5  -6  200.68   12.30
 -10   5   6  184.58   13.60
  -9  -5   6   13.40    3.30
  -9  -5   6   14.00    5.00
   9   5  -6    7.60    3.80
  -9   5   6   14.60    5.00
  -8  -5   6   56.19    5.60
  -8  -5   6   49.70    7.10
  -8   5   6   41.60    7.50
   8   5  -6   52.89    7.70
  -7  -5   6  130.69    9.50
  -7  -5   6  141.39    7.70
  -7   5   6  144.29    5.70
   7   5  -6  141.49   12.30
  -7   5   6  156.18   11.00
  -6  -5   6   12.80    3.70
  -6  -5   6    6.00    2.20
  -6   5   6    7.30    1.60
   6   5  -6   11.20    3.70
  -6   5   6    6.30    3.50
  -5  -5   6   57.59    6.30
  -5  -5   6   64.99    6.10
  -5   5   6   57.99    7.20
  -5   5   6   61.89    3.60
   5   5  -6   64.69    7.10
  -4  -5   6    5.20    2.40
  -4  -5   6    8.50    2.50
  -4   5   6    7.80    1.90
  -4   5   6   12.40    3.90
   4   5  -6   -0.60    1.20
  -3  -5   6  326.97   12.70
  -3  -5   6  331.07   12.70
   3   5  -6  299.07   13.60
  -3   5   6  341.57   15.00
  -3   5   6  334.07   11.20
  -2  -5   6  222.38    9.50
  -2  -5   6  199.18    9.70
   2   5  -6  224.38   11.30
  -2   5   6  225.18   11.50
  -2   5   6  217.98    8.90
  -1  -5   6   22.10    3.90
  -1  -5   6   29.70    4.20
  -1   5   6   23.50    4.30
  -1   5   6   31.50    4.10
   1   5  -6   26.90    4.80
   0  -5   6   50.19    5.90
   0   5   6   40.40    4.80
   0   5   6   44.60    5.70
   0   5  -6   45.20    5.70
   1  -5   6  872.41   26.20
  -1   5  -6  859.91   27.30
   1   5   6  847.92   26.00
   2  -5   6   52.49    6.30
   2  -5   6   51.09    6.60
   2   5   6   40.50    5.00
   2   5   6   47.00    6.00
   3  -5   6  530.85   19.50
   3  -5   6  511.85   18.60
   3   5   6  491.15   19.30
   3   5   6  511.55   16.40
  -4  -5  -6  645.14   22.70
   4  -5   6  683.03   23.50
   4   5   6  627.34   23.20
   4   5   6  643.14   19.10
   5  -5   6  214.18   12.10
  -5  -5  -6  209.88   12.00
   5   5   6  214.18    8.90
   5   5   6  228.68   13.20
  -6  -5  -6   23.90    5.30
   6  -5   6   19.60    4.80
   6   5   6   20.20    5.00
   6   5   6   28.60    3.30
  -7  -5  -6   24.30    5.60
   7  -5   6   23.20    5.30
   7   5   6   20.90    6.00
  -8  -5  -6   36.60    6.80
   8  -5   6   57.09    8.30
  -8   5  -6   50.59    6.70
   8   5   6   50.19    9.20
  -9  -5  -6  157.68   12.30
   9  -5   6  148.49   14.00
  -9   5  -6  134.09   10.60
   9   5   6  160.38   15.70
  10  -5   6  152.68   15.20
 -10  -5  -6  118.69   13.00
  10   5   6  109.39   13.70
 -11  -5  -6   57.79    9.90
  11  -5   6   83.79   11.80
  11   5   6   76.99   12.00
  12  -5   6   -0.30    4.60
 -12  -5  -6    2.90    6.20
  12   5   6    3.10    6.20
 -14  -6   6    5.20    5.50
 -14   6   6    4.60    7.00
 -13  -6   6   44.80    9.80
 -13   6   6   38.80    9.30
 -12  -6   6   29.00    7.60
 -12   6   6   43.70    9.50
 -11  -6   6    8.70    4.50
 -11   6   6   18.60    6.40
  11   6  -6    6.10    4.90
 -10  -6   6    6.80    4.30
 -10   6   6   20.00    6.10
  10   6  -6    6.90    3.80
  -9  -6   6   52.89    8.20
   9   6  -6   76.89    9.40
  -9   6   6   66.39    9.80
  -8  -6   6   43.60    5.00
  -8  -6   6   44.80    7.10
  -8   6   6   49.70    7.80
   8   6  -6   43.40    7.80
  -7  -6   6    2.20    2.90
  -7  -6   6    3.80    2.10
  -7   6   6    4.20    1.80
  -7   6   6    5.20    3.80
   7   6  -6   -1.00    3.00
  -6  -6   6  131.39    9.20
  -6  -6   6  131.49    7.50
  -6   6   6  133.09   10.20
   6   6  -6  140.39   12.10
  -6   6   6  135.49    6.10
  -5  -6   6 1451.95   38.40
  -5  -6   6 1441.76   40.90
  -5   6   6 1461.15   42.60
  -5   6   6 1464.35   35.70
  -4  -6   6  145.39    8.60
  -4  -6   6  135.29    7.70
   4   6  -6  139.89    9.20
  -4   6   6  140.99    6.70
  -4   6   6  133.89    9.50
  -3  -6   6 1104.89   31.70
  -3  -6   6 1116.09   32.10
  -3   6   6 1160.68   34.70
  -3   6   6 1140.19   30.20
   3   6  -6 1175.08   34.30
  -2  -6   6   52.59    5.90
  -2   6   6   54.89    5.60
  -2   6   6   62.19    7.00
   2   6  -6   63.89    7.50
  -1  -6   6   24.40    4.30
  -1  -6   6   16.10    3.60
  -1   6   6   31.00    5.20
   1   6  -6   16.90    4.70
  -1   6   6   37.40    4.90
   0  -6   6  651.83   21.90
   0   6  -6  722.33   24.40
   0   6   6  686.73   22.80
   0   6   6  690.13   22.20
   1  -6   6  107.79    7.50
   1   6   6  112.29    8.00
  -1   6  -6   97.09    9.00
   1   6   6  109.49    7.40
   2  -6   6    6.80    2.90
  -2   6  -6   12.60    4.20
   2   6   6    8.30    3.40
   2   6   6    9.20    2.90
   3  -6   6  102.69    7.80
   3  -6   6  121.89    9.30
   3   6   6  137.79    9.80
   3   6   6  117.89    7.00
   4  -6   6  177.58   11.10
  -4  -6  -6  207.08   12.00
   4   6   6  183.48    8.30
   4   6   6  145.69   10.60
  -5  -6  -6   21.70    5.20
   5  -6   6   16.40    4.30
   5   6   6   20.40    3.10
   5   6   6   16.50    4.80
   6  -6   6   49.10    7.60
  -6  -6  -6   34.30    6.40
   6   6   6   20.70    5.40
   7  -6   6  175.18   12.50
  -7  -6  -6  196.48   12.70
   7   6   6  158.08   14.50
  -8  -6  -6  157.28   12.40
   8  -6   6  167.88   12.70
   8   6   6  187.48   16.90
  -9  -6  -6  510.75   23.50
   9  -6   6  537.95   24.30
   9   6   6  498.65   24.90
  10  -6   6    5.90    4.90
 -10  -6  -6    4.90    5.20
  10   6   6    4.40    5.40
 -11  -6  -6    3.00    5.30
  11  -6   6   -0.20    4.40
  11   6   6    7.70    6.00
 -12  -6  -6   22.60    8.10
  12  -6   6   46.60   10.00
  12   6   6   56.79   12.40
 -13  -7   6    3.20    5.50
 -13   7   6    8.70    6.30
 -12  -7   6    6.20    5.20
 -12   7   6   16.60    6.60
 -11  -7   6   73.89   11.00
 -11   7   6   96.19   12.70
  11   7  -6   73.09   10.30
 -10  -7   6   50.69    9.00
 -10   7   6   60.19    9.60
  10   7  -6   56.29    9.30
  -9  -7   6   -0.80    3.10
  -9   7   6   -1.30    3.40
   9   7  -6    3.60    4.80
  -8  -7   6   86.39    6.30
  -8  -7   6   74.19    9.10
  -8   7   6   83.99   10.50
   8   7  -6   66.79   10.00
  -7  -7   6   61.89    6.10
  -7  -7   6   57.09    7.70
  -7   7   6   60.09    5.20
  -7   7   6   63.19    8.80
  -6  -7   6 1335.67   36.00
  -6  -7   6 1350.36   40.10
  -6   7   6 1343.17   40.90
  -6   7   6 1330.47   33.90
   6   7  -6 1312.47   41.20
  -5  -7   6  222.18   10.50
  -5  -7   6  245.28   12.60
  -5   7   6  225.48    9.30
  -5   7   6  225.68   13.00
   5   7  -6  226.08   13.10
  -4  -7   6   97.89    7.60
  -4  -7   6  106.99    7.10
  -4   7   6   95.09    6.10
   4   7  -6   96.19    9.40
  -4   7   6  100.49    9.70
  -3  -7   6  642.74   21.20
  -3  -7   6  649.83   22.40
  -3   7   6  661.93   20.40
  -3   7   6  665.73   23.50
   3   7  -6  664.93   23.90
  -2  -7   6 1544.35   41.10
   2   7  -6 1510.85   44.00
  -2   7   6 1523.25   43.20
  -2   7   6 1529.75   40.70
  -1  -7   6  117.39    7.70
  -1  -7   6  108.19    8.10
  -1   7   6  101.79    7.50
  -1   7   6  111.59    8.50
   1   7  -6  107.79   10.00
   0  -7   6    1.10    2.10
   0   7   6    2.90    2.60
   0   7  -6    3.70    3.10
   0   7   6    5.50    2.60
   1  -7   6   13.40    3.50
   1   7   6    6.00    2.80
  -1   7  -6    4.50    3.50
   1   7   6    6.80    3.40
   2  -7   6   95.49    7.60
   2   7   6  104.19    9.90
  -2   7  -6   93.59    9.70
   2   7   6  112.89    7.70
  -3   7  -6   45.10    7.20
   3   7   6   41.10    6.90
   3   7   6   50.09    5.80
   4   7   6  255.57   10.60
   4   7   6  258.57   14.70
  -4   7  -6  260.87   14.60
   5  -7   6   45.60    7.40
  -5  -7  -6   36.70    6.60
   5   7   6   42.40    7.40
   5   7   6   42.50    4.40
   6  -7   6   44.40    7.20
  -6  -7  -6   50.59    7.90
   6   7   6   51.59    8.30
   7  -7   6   26.30    5.80
  -7  -7  -6   27.10    6.60
   7   7   6   25.30    6.40
   8  -7   6    2.60    3.50
  -8  -7  -6    0.40    3.80
   8   7   6    5.00    4.30
   9  -7   6    2.60    4.70
  -9  -7  -6   10.00    5.10
   9   7   6   -1.50    4.90
 -10  -7  -6   90.09   12.40
  10  -7   6   88.49   11.50
  10   7   6   81.99   13.20
 -11  -7  -6   22.80    7.60
  11  -7   6   16.10    7.10
  11   7   6   19.50    8.90
 -12  -7  -6   45.20   10.30
  12   7   6   44.00   11.50
 -13  -8   6   16.00    7.30
 -13   8   6    3.30    6.40
 -12  -8   6   50.09   10.20
 -12   8   6   43.30    9.60
 -11  -8   6   46.60    9.70
 -11   8   6   57.49   10.60
  11   8  -6   39.00    8.80
 -10  -8   6   38.30    8.20
  10   8  -6   51.79    9.30
 -10   8   6   41.60    8.40
  -9  -8   6   35.60    7.40
  -9   8   6   19.50    5.80
   9   8  -6   -2.60    3.70
  -8  -8   6  135.89    9.10
  -8  -8   6  136.89   13.10
  -8   8   6  153.88   11.80
   8   8  -6  120.09   13.70
  -7  -8   6    4.10    3.10
  -7  -8   6   16.70    3.50
  -7   8   6    1.70    2.00
  -7   8   6    0.30    3.10
   7   8  -6    0.90    3.50
  -6  -8   6   11.30    4.10
  -6  -8   6   12.80    3.20
  -6   8   6   14.10    4.40
   6   8  -6    8.70    4.60
  -6   8   6   13.90    3.00
  -5  -8   6  527.35   21.00
  -5  -8   6  536.15   18.30
  -5   8   6  526.55   21.30
   5   8  -6  543.45   22.50
  -5   8   6  510.85   17.10
  -4  -8   6  412.36   15.80
  -4  -8   6  435.96   18.20
  -4   8   6  451.65   15.60
  -4   8   6  411.96   18.20
   4   8  -6  445.46   19.30
  -3  -8   6 1848.81   51.09
  -3  -8   6 1886.41   48.60
  -3   8   6 1851.81   51.29
  -3   8   6 1891.11   48.00
   3   8  -6 1833.22   52.49
  -2  -8   6  156.68   10.20
  -2  -8   6  140.29    8.60
   2   8  -6  128.79   11.50
  -2   8   6  123.19    9.10
  -2   8   6  134.59    8.60
  -1  -8   6   77.49    7.60
  -1   8   6   86.29    8.20
  -1   8   6   82.79    8.40
   1   8  -6   71.29    8.70
   0  -8   6   10.90    3.30
   0   8   6    9.90    3.70
   0   8   6    7.60    3.20
   0   8  -6   15.20    4.80
   1  -8   6  526.15   20.00
   1   8   6  565.34   20.40
   1   8   6  585.44   21.70
  -1   8  -6  569.34   23.00
   2   8   6  233.58   13.30
   2   8   6  237.48   11.80
  -2   8  -6  250.17   14.40
   3   8   6  331.97   16.60
  -3   8  -6  323.97   16.80
   3   8   6  306.17   13.40
   4   8   6  251.17   10.90
   4   8   6  287.97   15.90
  -4   8  -6  230.18   14.60
  -5   8  -6   25.90    6.00
   5   8   6   36.60    7.30
  -6  -8  -6   65.09    9.30
   6   8   6   77.89   11.30
  -6   8  -6   51.49    8.40
  -7  -8  -6   70.09    9.90
   7  -8   6   65.99   10.10
   7   8   6   81.89   11.50
  -8  -8  -6    1.60    4.30
   8  -8   6    5.20    4.50
   8   8   6    7.90    4.80
   9  -8   6  209.18   18.00
  -9  -8  -6  187.48   17.50
   9   8   6  185.08   17.90
  10  -8   6    4.20    5.60
 -10  -8  -6    3.60    5.80
  10   8   6    4.40    6.10
 -11  -8  -6  232.48   21.20
  11  -8   6  231.38   17.70
  11   8   6  315.27   26.40
 -13  -9   6   71.79   13.10
 -13   9   6   69.29   13.00
 -12  -9   6  227.28   17.80
  12   9  -6  185.28   18.50
 -12   9   6  197.98   19.00
 -11  -9   6    7.40    6.20
 -11   9   6   26.10    7.70
  11   9  -6    1.10    5.20
 -10  -9   6  517.65   25.60
 -10   9   6  519.35   25.20
  -9  -9   6  390.06   20.70
  -9   9   6  327.47   18.80
   9   9  -6  354.16   21.60
  -8  -9   6   88.99   10.80
  -8   9   6   96.69   11.00
   8   9  -6   92.59   12.40
  -7  -9   6  218.28   10.20
  -7  -9   6  190.08   13.30
   7   9  -6  210.68   15.60
  -7   9   6  193.48   13.30
  -7   9   6  219.38   10.30
  -6  -9   6  128.29   12.30
  -6  -9   6  113.49    7.50
  -6   9   6   97.49   10.60
  -6   9   6  126.89    7.70
   6   9  -6   98.39   11.30
  -5  -9   6  165.58    9.10
  -5  -9   6  158.48   11.40
   5   9  -6  174.58   12.50
  -5   9   6  161.18    9.00
  -5   9   6  159.58   11.20
  -4  -9   6  161.38    9.00
  -4  -9   6  140.79   10.40
   4   9  -6  136.09   12.50
  -4   9   6  158.68   10.70
  -4   9   6  130.79    8.30
  -3  -9   6   31.80    4.90
  -3  -9   6   32.50    6.30
   3   9  -6   31.70    6.60
  -3   9   6   29.40    5.20
  -3   9   6   38.50    5.50
  -2  -9   6  233.28   11.70
  -2  -9   6  266.27   14.30
   2   9  -6  240.48   14.50
  -2   9   6  241.08   13.00
  -2   9   6  238.68   12.10
  -1  -9   6  151.08    9.20
  -1   9   6  143.39    9.70
   1   9  -6  141.59   12.60
  -1   9   6  158.18   10.20
   0  -9   6  211.98   11.70
   0   9   6  225.98   12.70
   0   9   6  230.48   12.30
   0   9  -6  258.67   15.30
   1   9   6 1129.39   36.10
   1   9   6 1148.89   34.30
  -1   9  -6 1159.78   38.20
  -2   9  -6 1312.57   41.40
   2   9   6 1282.97   37.00
   2   9   6 1267.67   39.70
   3   9   6   48.60    6.20
  -3   9  -6   64.99    9.00
   3   9   6   57.59    8.40
   4   9   6  379.36   18.90
   4   9   6  320.87   13.50
  -4   9  -6  331.37   18.00
  -5   9  -6  104.49   12.40
   5   9   6   88.69   11.20
  -6  -9  -6   91.19   11.50
   6   9   6  101.29   12.30
  -6   9  -6   82.29   10.90
  -7  -9  -6   73.49   11.20
  -7   9  -6   79.29   11.30
   7   9   6   58.79   10.10
  -8  -9  -6   22.50    7.20
  -8   9  -6   34.00    8.30
   8   9   6   30.50    8.50
  -9  -9  -6   24.50    7.80
   9   9   6   18.00    7.50
  -9   9  -6   20.40    7.90
 -10  -9  -6   49.99   10.40
  10   9   6   65.89   12.80
 -10   9  -6   59.79   12.30
 -11  -9  -6   40.10   10.40
 -11   9  -6   76.19   13.60
  11   9   6   42.70   11.50
 -12 -10   6   17.40    7.10
 -12  10   6   20.10    7.60
  12  10  -6    0.30    5.40
 -11 -10   6   29.80    8.50
 -11  10   6   35.00    8.60
  11  10  -6   10.80    8.00
 -10 -10   6  209.38   16.40
 -10  10   6  227.68   16.60
  10  10  -6  224.98   20.80
  -9 -10   6  140.79   15.50
  -9  10   6  129.09   13.60
   9  10  -6  150.48   16.40
  -8 -10   6   -1.10    3.50
   8  10  -6    7.00    5.30
  -8  10   6    0.30    3.60
  -7 -10   6    7.30    4.20
  -7 -10   6    6.60    2.90
  -7  10   6    3.10    3.90
  -7  10   6   13.60    4.20
   7  10  -6    8.10    6.10
  -6 -10   6   10.40    4.40
  -6 -10   6   16.90    3.80
  -6  10   6   16.10    4.00
  -6  10   6   10.10    4.40
   6  10  -6   18.30    5.80
  -5 -10   6   43.20    7.60
  -5 -10   6   45.90    5.90
  -5  10   6   40.40    5.50
   5  10  -6   44.10    7.90
  -5  10   6   31.80    6.30
  -4 -10   6  325.07   17.10
  -4 -10   6  302.57   13.50
   4  10  -6  322.37   18.10
  -4  10   6  308.07   15.90
  -4  10   6  312.67   13.90
  -3 -10   6   25.50    4.60
  -3 -10   6   21.10    5.30
   3  10  -6   23.20    6.20
  -3  10   6   18.70    5.00
  -3  10   6   28.10    5.20
  -2 -10   6   61.19    7.10
  -2  10   6   49.50    6.80
  -2  10   6   51.59    7.20
   2  10  -6   53.89    8.30
  -1  10   6    6.40    3.30
  -1  10   6    1.80    3.40
   1  10  -6    0.10    3.30
   0  10   6    7.40    3.70
   0  10  -6    5.50    4.20
   0  10   6    4.90    3.10
  -1  10  -6  287.87   16.60
   1  10   6  262.07   13.40
   1  10   6  264.77   15.10
   2  10   6  115.09   11.70
  -2  10  -6  130.09   12.80
   2  10   6  128.19    9.60
  -3  10  -6   13.50    5.20
   3  10   6   29.70    5.20
   3  10   6   25.20    6.60
   4  10   6   44.70    6.20
   4  10   6   43.70    8.70
  -4  10  -6   31.30    7.20
   5  10   6  727.23   30.10
  -5  10  -6  759.42   30.60
  -6  10  -6   59.99   10.20
   6  10   6   62.09   10.60
  -7 -10  -6    9.90    5.60
   7  10   6   17.50    6.70
  -7  10  -6    8.60    5.50
  -8 -10  -6    9.30    6.20
   8  10   6   22.50    8.50
  -8  10  -6   18.90    7.90
  -9 -10  -6  234.18   18.20
  -9  10  -6  254.77   22.20
   9  10   6  256.67   19.40
 -10 -10  -6   52.59   11.10
 -10  10  -6   52.09   11.90
  10  10   6   58.89   12.20
 -12 -11   6   61.59   12.00
  12  11  -6   97.79   14.90
 -12  11   6   70.39   12.30
 -11 -11   6   43.10   10.00
 -11  11   6   42.30    9.40
  11  11  -6   52.19   12.10
 -10 -11   6  213.78   20.20
 -10  11   6  227.98   17.00
  10  11  -6  186.08   19.80
  -9 -11   6   36.80    8.70
  -9  11   6   35.10    8.50
   9  11  -6   48.60   11.00
  -8 -11   6   -0.20    3.00
   8  11  -6    7.10    5.90
  -8  11   6    0.60    3.30
  -7 -11   6   36.10    7.70
   7  11  -6   20.50    8.00
  -7  11   6   19.20    6.00
  -6 -11   6  227.48   15.50
  -6  11   6  226.78   15.00
   6  11  -6  256.57   17.50
  -6  11   6  245.88   12.70
  -5 -11   6    2.60    3.50
  -5  11   6    7.50    3.80
   5  11  -6    5.10    4.30
  -5  11   6    3.50    3.10
  -4 -11   6   24.10    5.90
  -4  11   6   36.30    6.60
   4  11  -6   27.40    7.30
  -4  11   6   32.20    5.60
  -3 -11   6   68.49    9.70
  -3  11   6   63.09    7.90
   3  11  -6   46.00    8.50
  -3  11   6   55.79    8.00
  -2  11   6   18.20    5.10
  -2  11   6   20.70    5.10
   2  11  -6   13.50    5.40
  -1  11   6   74.79    9.10
  -1  11   6   58.59    7.80
   1  11  -6   45.40    8.50
   0  11  -6   16.10    6.00
   0  11   6    3.10    3.30
   0  11   6    9.90    3.80
   1  11   6   24.00    6.10
  -1  11  -6    5.60    4.80
   1  11   6    9.60    4.30
   2  11   6   45.40    6.70
   2  11   6   36.40    7.10
  -2  11  -6   39.30    8.20
  -3  11  -6  146.49   14.40
   3  11   6  122.09    9.40
   3  11   6  130.09   12.80
  -4  11  -6  769.62   31.40
   4  11   6  769.02   30.80
   5  11   6  386.26   21.30
  -5  11  -6  361.46   20.60
  -6  11  -6   31.00    8.10
   6  11   6   37.30    8.90
  -7  11  -6    7.60    6.30
   7  11   6    8.70    5.70
  -8 -11  -6  467.35   25.90
   8  11   6  481.15   27.00
  -8  11  -6  526.75   27.40
  -9 -11  -6    9.10    6.70
  -9  11  -6   10.50    6.90
   9  11   6   13.60    7.80
 -10 -11  -6    2.70    6.80
  10  11   6   15.60    9.00
 -10  11  -6   10.90    8.20
 -11 -12   6    1.30    5.90
 -11  12   6    2.00    4.90
  11  12  -6    5.30    8.10
 -10 -12   6   70.39   11.90
 -10  12   6   74.19   12.30
  10  12  -6   73.49   13.70
  -9 -12   6    4.90    5.30
  -9  12   6    9.70    5.80
   9  12  -6   14.90    8.50
  -8 -12   6   33.80    8.10
   8  12  -6   49.60   10.60
  -8  12   6   56.99    9.50
  -7 -12   6  134.09   15.50
   7  12  -6  120.19   15.60
  -7  12   6  111.59   12.40
  -6 -12   6  583.24   27.50
   6  12  -6  626.94   29.60
  -6  12   6  655.03   27.20
  -6  12   6  628.74   23.20
  -5 -12   6    5.00    4.50
  -5  12   6   11.70    4.70
  -5  12   6    5.90    4.20
   5  12  -6   -0.50    4.50
  -4 -12   6   10.40    5.00
  -4  12   6   21.50    5.30
  -4  12   6   12.70    4.70
   4  12  -6   14.80    6.60
  -3  12   6   39.00    7.30
  -3  12   6   37.00    6.70
   3  12  -6   35.50    8.10
  -2  12   6  456.25   20.00
  -2  12   6  460.25   20.20
   2  12  -6  459.75   23.50
  -1  12   6  171.78   12.30
   1  12  -6  196.18   14.80
  -1  12   6  180.78   12.20
   0  12   6   44.20    7.00
   0  12  -6   51.79    9.00
   0  12   6   48.10    8.20
   1  12   6    4.40    4.40
   1  12   6    3.30    3.50
  -1  12  -6    1.60    4.60
   2  12   6  291.57   14.80
  -2  12  -6  313.47   19.10
   2  12   6  318.57   18.10
   3  12   6   11.60    5.90
  -3  12  -6   17.10    5.90
   3  12   6    7.70    4.10
   4  12   6   11.70    5.90
  -4  12  -6    4.60    5.30
  -5  12  -6  179.78   17.30
   5  12   6  171.38   16.60
   6  12   6    1.90    5.50
  -6  12  -6    4.30    5.10
   7  12   6   79.99   12.90
  -7  12  -6   78.19   12.50
  -8  12  -6   79.59   12.80
   8  12   6   65.69   11.90
  -9 -12  -6   11.20    7.00
  -9  12  -6   30.00    9.40
   9  12   6   30.00   10.40
 -11 -13   6  104.09   15.90
 -11  13   6   92.39   14.70
  11  13  -6   93.79   15.60
 -10 -13   6   13.90    7.60
  10  13  -6   22.20    9.10
 -10  13   6    8.10    6.70
  -9 -13   6  128.19   15.70
   9  13  -6  120.79   17.30
  -9  13   6  104.89   13.60
  -8 -13   6    4.60    5.20
  -8  13   6    3.10    5.20
   8  13  -6    2.50    7.20
  -7 -13   6   48.20   10.10
  -7  13   6   42.40    8.80
   7  13  -6   50.59   11.00
  -6 -13   6   32.00    8.30
   6  13  -6   46.60   10.20
  -6  13   6   30.30    6.40
  -6  13   6   26.30    6.90
  -5 -13   6  178.68   17.40
   5  13  -6  163.18   17.10
  -5  13   6  130.29   13.50
  -5  13   6  154.68   13.10
  -4 -13   6   46.50    9.00
  -4  13   6   34.40    7.20
  -4  13   6   39.10    7.10
   4  13  -6   46.20   10.30
  -3  13   6   93.69   10.90
   3  13  -6   79.99   12.60
  -3  13   6   90.79   10.50
  -2  13   6  197.08   13.30
   2  13  -6  181.38   17.50
  -2  13   6  182.48   12.80
  -1  13   6  101.29   10.60
   1  13  -6   93.69   12.90
  -1  13   6  102.89   11.90
   0  13   6   48.00    8.40
   0  13  -6   42.50    8.70
   0  13   6   60.19    8.30
  -1  13  -6   53.79    9.80
   1  13   6   53.09    7.70
   1  13   6   42.00    8.10
   2  13   6   31.20    7.60
   2  13   6   26.00    5.90
  -2  13  -6   25.30    7.60
   3  13   6  182.18   17.40
  -3  13  -6  178.68   17.60
  -4  13  -6   82.79   11.90
   4  13   6  104.59   13.00
   5  13   6    5.40    5.80
  -5  13  -6   16.50    6.90
  -6  13  -6   14.20    7.00
   6  13   6   13.80    6.60
  -7  13  -6   25.10    8.90
   7  13   6   38.00   10.30
   8  13   6   -4.20    6.20
  -8  13  -6   -1.30    6.80
   9  13   6    5.20    9.50
  -9  13  -6    7.90    8.00
 -10 -14   6    9.30    7.70
 -10  14   6    1.20    6.10
  10  14  -6    1.20    8.90
  -9 -14   6    2.00    5.60
  -9  14   6    6.90    5.70
   9  14  -6   10.00    9.90
  -8 -14   6   62.29   11.60
  -8  14   6   64.49   11.50
   8  14  -6   69.39   14.90
  -7 -14   6   24.00    8.50
  -7  14   6   18.10    6.80
   7  14  -6   42.30   10.40
  -6 -14   6   42.90    9.40
  -6  14   6   35.10    7.40
   6  14  -6   32.20   10.00
  -6  14   6   37.30    8.10
  -5 -14   6   79.39   12.80
  -5  14   6   49.70    8.50
   5  14  -6   58.29   11.50
  -5  14   6   56.19    9.30
  -4  14   6  117.49   12.70
  -4  14   6  118.29   12.40
   4  14  -6  108.69   14.90
  -3  14   6   12.40    5.60
   3  14  -6   21.50    7.90
  -3  14   6   17.90    6.40
   2  14  -6  117.29   15.40
  -2  14   6  133.49   13.40
  -2  14   6  112.09   11.80
  -1  14   6   23.10    6.00
   1  14  -6   12.70    6.70
  -1  14   6   23.50    6.70
   0  14  -6    3.50    5.30
   0  14   6   14.60    5.80
   0  14   6    3.60    4.20
   1  14   6  107.49   12.90
  -1  14  -6  128.59   15.30
   1  14   6  131.29   12.70
   2  14   6    5.40    4.90
  -2  14  -6    4.00    6.10
   2  14   6   11.10    6.40
   3  14   6  126.19   14.30
  -3  14  -6  159.68   17.10
  -4  14  -6   68.99   11.30
   4  14   6   91.39   13.00
  -5  14  -6  154.68   17.10
   5  14   6  129.39   15.60
   6  14   6   60.89   11.60
  -6  14  -6   64.89   12.50
  -7  14  -6   27.30    8.70
   7  14   6   18.70    8.40
  -8  14  -6    8.60    8.40
   8  14   6   12.10    8.40
  -9 -15   6   17.00    9.20
  -9  15   6   26.00    8.10
   9  15  -6    9.80   10.80
  -8 -15   6   83.39   14.00
  -8  15   6   84.49   13.00
   8  15  -6   96.29   16.90
  -7 -15   6  120.39   16.40
   7  15  -6  118.79   17.40
  -7  15   6  109.09   14.20
  -6 -15   6    2.20    5.00
  -6  15   6    1.20    4.80
   6  15  -6   -1.80    5.70
  -5  15   6   51.99   10.00
   5  15  -6   31.30   10.20
  -5  15   6   36.40    7.90
  -4  15   6    4.50    5.00
  -4  15   6    3.80    4.50
   4  15  -6   13.20    7.10
  -3  15   6   54.29    9.40
   3  15  -6   40.20   10.50
  -3  15   6   44.50    9.00
  -2  15   6   29.80    7.50
  -2  15   6   20.70    6.60
   2  15  -6   23.60    8.40
  -1  15   6   91.49   11.30
   1  15  -6   57.39   11.00
  -1  15   6   64.29   10.60
   0  15  -6  252.37   19.20
   0  15   6  221.38   19.40
   0  15   6  245.18   15.60
  -1  15  -6   88.89   13.60
   1  15   6   68.49    9.40
   1  15   6   71.09   11.70
  -2  15  -6  159.08   17.10
   2  15   6  152.58   16.60
   2  15   6  180.08   13.20
   3  15   6  136.99   15.50
  -3  15  -6  155.28   17.10
  -4  15  -6   90.79   13.40
   4  15   6   74.39   11.80
   5  15   6   21.40    8.60
  -5  15  -6   11.80    7.70
   6  15   6   -3.40    6.40
  -6  15  -6    2.80    6.30
  -7  15  -6   12.00    7.90
   7  15   6   22.30    9.50
  -8 -16   6    1.60    6.70
  -8  16   6    6.10    6.50
   8  16  -6    2.60    9.10
  -7 -16   6   -0.40    5.50
  -7  16   6    5.70    6.30
   7  16  -6   16.70   10.00
   6  16  -6   38.00   11.20
  -6  16   6   35.10    9.40
   5  16  -6   15.10    9.30
  -5  16   6    5.20    6.00
  -5  16   6    9.10    5.80
  -4  16   6   -1.90    4.90
  -4  16   6    7.70    5.60
   4  16  -6    3.30    6.80
  -3  16   6  179.08   16.70
   3  16  -6  159.28   18.70
  -3  16   6  181.88   16.80
  -2  16   6   37.80    8.20
   2  16  -6   64.19   12.40
  -2  16   6   74.59   11.00
   1  16  -6    4.20    6.40
  -1  16   6    2.40    5.40
  -1  16   6    3.40    4.60
   0  16   6   26.90    8.10
   0  16   6   49.20    8.70
   0  16  -6   34.10   10.00
   1  16   6  114.79   14.90
  -1  16  -6   83.39   13.00
   1  16   6  106.09   12.10
   2  16   6  113.79   14.80
  -2  16  -6   88.59   13.70
  -3  16  -6  147.29   17.40
   3  16   6  103.99   15.10
   4  16   6   61.99   11.90
  -4  16  -6   57.29   12.10
  -5  16  -6    3.30    7.00
   5  16   6    8.10    6.80
  -6  16  -6   -1.50    6.40
   6  16   6    2.10    7.20
  -7  17   6   76.19   13.50
   7  17  -6  106.09   18.60
   6  17  -6   15.40    9.40
  -6  17   6   15.80    7.80
   5  17  -6  206.48   22.80
  -5  17   6  189.38   17.70
  -5  17   6  197.68   20.00
  -4  17   6   38.80    9.60
   4  17  -6   24.50   10.60
  -4  17   6   43.90    9.50
   3  17  -6  102.49   15.90
  -3  17   6  140.89   15.80
  -3  17   6  132.29   15.30
   2  17  -6    6.90    9.40
  -2  17   6   28.20    7.80
  -2  17   6   25.50    8.30
  -1  17   6  216.68   20.00
   1  17  -6  153.58   19.40
  -1  17   6  188.48   17.10
   0  17   6   17.20    8.00
   0  17  -6   14.80    8.90
   0  17   6   18.20    7.00
   1  17   6    2.50    5.10
   1  17   6    0.40    6.10
  -1  17  -6    7.70    8.10
   2  17   6  329.67   22.40
  -2  17  -6  385.56   25.50
   3  17   6   11.50    7.30
  -3  17  -6    0.10    7.20
  -4  17  -6    9.90    7.00
   4  17   6   11.60    7.70
   5  17   6    4.30    7.90
  -5  17  -6    9.60    8.80
  -5  18   6  118.29   16.30
   5  18  -6  107.39   17.80
  -5  18   6   86.49   20.60
  -4  18   6  590.64   30.30
   4  18  -6  608.74   36.20
  -4  18   6  639.44   30.40
  -3  18   6   75.49   12.40
  -3  18   6   69.19   11.90
   3  18  -6   57.89   13.60
  -2  18   6    0.70    6.30
   2  18  -6   -1.50    8.50
  -2  18   6    1.90    5.50
   1  18  -6    4.20    7.00
  -1  18   6    3.30    5.90
  -1  18   6   -1.50    6.30
   0  18   6   63.19   11.10
   0  18  -6   51.39   12.80
   0  18   6   66.69   12.70
  -1  18  -6   -0.90    7.00
   1  18   6    2.90    6.50
   2  18   6    2.20    7.30
  -2  18  -6    4.60    7.60
  -3  18  -6   37.40   10.70
   3  18   6   28.00    9.90
   2  19  -6   13.40   10.10
  -2  19   6    9.90    7.30
  -2  19   6    4.20    6.90
  -1  19   6   46.20   11.30
   1  19  -6   25.60   12.50
  -1  19   6   50.69   11.80
   0  19  -6    6.40    8.40
   0  19   6    0.00    7.00
   0  19   6    7.40    8.00
 -14   0   7    5.90    5.20
 -13   0   7   82.49   11.30
 -12   0   7    1.30    3.60
 -12   0   7   -4.30    2.70
 -11   0   7   11.00    4.80
 -11   0   7    6.90    4.10
 -10   0   7    8.80    3.70
 -10   0   7    6.00    3.60
  -9   0   7  114.09   11.20
  -9   0   7  141.99    9.70
  -8   0   7    0.20    2.30
   8   0  -7    3.10    1.20
  -8   0   7    2.80    2.50
   7   0  -7   29.10    2.00
  -7   0   7   32.60    5.60
  -6   0   7    2.00    2.20
  -5   0   7   70.19    7.10
  -4   0   7    7.00    2.90
   4   0  -7   13.40    1.80
  -3   0   7  230.28   10.70
   3   0  -7  229.78    8.10
  -2   0   7    0.20    1.60
  -2   0   7    8.10    1.90
  -1   0   7  114.19    7.00
  -1   0   7  119.39    5.60
   0   0   7   -1.30    1.10
   0   0   7    1.70    1.80
   1   0   7  189.28    8.50
   1   0   7  190.58    9.10
   2   0   7    1.10    1.70
   2   0   7    0.10    1.40
   3   0   7  211.48   10.20
  -3   0  -7  212.18    7.40
   3   0   7  237.88   10.70
   4   0   7   -1.30    1.80
  -4   0  -7    2.80    1.60
   4   0   7    1.10    1.50
   5   0   7  111.79    8.20
  -5   0  -7  111.39    6.00
   5   0   7  105.29    7.20
  -6   0  -7    3.20    2.30
   6   0   7    3.10    2.50
   6   0   7    2.80    2.40
  -7   0  -7  504.25   17.60
   7   0   7  502.45   20.80
  -8   0  -7   14.90    3.80
   8   0   7   19.50    5.20
   9   0   7   35.20    7.20
  -9   0  -7   34.00    5.60
  10   0   7    1.20    3.70
  11   0   7    9.60    5.00
  12   0   7    5.00    5.70
 -14  -1   7  145.19   15.70
 -14   1   7  123.19   15.10
 -13  -1   7   45.90    9.10
 -13   1   7   35.20    7.80
 -12  -1   7   26.40    6.80
 -12   1   7   21.70    6.40
 -12   1   7   15.40    5.30
 -11  -1   7   82.99   10.10
 -11  -1   7   85.69    9.00
 -11   1   7   79.29    9.40
 -11   1   7   96.39   11.10
 -10  -1   7  102.79    9.50
 -10  -1   7  117.89   12.20
 -10   1   7  103.69   10.40
 -10   1   7   92.99   10.50
  -9  -1   7  122.39   11.30
  -9  -1   7  114.69    8.70
  -9   1   7  117.39   11.00
  -8  -1   7  309.37   15.00
  -8  -1   7  320.17   14.20
  -8   1   7  306.47   14.90
   8   1  -7  300.27    9.90
  -7  -1   7   76.49    7.70
  -7  -1   7   68.19    7.40
  -7   1   7   66.59    7.50
   7   1  -7   66.49    3.90
  -6  -1   7   73.59    7.30
  -6  -1   7   66.49    7.00
   6   1  -7   78.99    4.30
  -6   1   7   72.49    8.00
  -5  -1   7  741.33   23.60
  -5  -1   7  732.13   23.00
  -5   1   7  748.23   24.70
   5   1  -7  774.42   20.20
  -4  -1   7   23.00    4.20
  -4   1   7   12.80    3.50
   4   1  -7   23.90    2.90
  -3  -1   7  134.49    7.70
   3   1  -7  116.49    6.10
  -3   1   7  129.19    4.80
  -3   1   7  130.09    8.00
  -2  -1   7  287.97   10.50
  -2  -1   7  302.87   12.10
  -2   1   7  315.17   12.90
  -2   1   7  314.37    9.40
  -1  -1   7  615.54   18.00
  -1  -1   7  630.14   19.70
  -1   1   7  625.04   17.20
  -1   1   7  636.84   20.30
   0  -1   7  492.05   16.70
   0  -1   7  486.35   15.50
   0  -1   7  505.65   12.20
   0   1   7  494.95   16.70
   0   1   7  505.25   15.30
   1  -1   7  270.07   10.90
   1  -1   7  309.17   12.10
   1   1   7  275.67   11.40
   1   1   7  279.87   10.80
   2  -1   7  268.97   11.30
   2  -1   7  274.17   11.80
   2   1   7  273.57   11.20
   2   1   7  279.27   11.40
   3  -1   7    1.70    1.90
   3  -1   7   -0.10    1.60
   3   1   7    3.00    2.30
  -3   1  -7    5.10    1.30
   3   1   7    0.10    1.20
   4  -1   7  331.87   14.20
   4  -1   7  331.97   13.80
  -4  -1  -7  344.37   11.90
   4   1   7  332.47   13.50
   4   1   7  324.57   14.20
  -4   1  -7  327.87   10.20
   5  -1   7    0.40    1.60
   5  -1   7    7.40    3.20
  -5  -1  -7    7.50    2.30
   5   1   7    4.80    3.10
  -5   1  -7    8.40    2.10
   5   1   7    9.70    3.00
   6  -1   7  984.40   29.10
  -6  -1  -7  933.31   27.30
   6  -1   7  977.50   31.10
   6   1   7  954.00   28.00
  -6   1  -7  931.01   26.20
   6   1   7  941.31   30.90
   7  -1   7   30.40    5.90
  -7  -1  -7   27.10    4.70
   7   1   7   21.60    4.90
  -7   1  -7   21.10    3.80
   8  -1   7  185.48   12.30
  -8  -1  -7  173.08   10.50
   8   1   7  179.68   12.50
  -8   1  -7  187.58   10.20
  -9  -1  -7    9.70    3.70
   9  -1   7    6.50    3.90
   9   1   7   17.10    5.70
  10  -1   7   86.79   11.20
  10   1   7   70.09   10.20
  11  -1   7   11.20    5.50
  11   1   7   16.20    6.10
  12  -1   7   30.00    8.10
  12   1   7   41.60    9.60
 -14  -2   7   65.89   10.90
 -14   2   7   53.89   10.10
 -13  -2   7   86.59   12.00
 -13   2   7  102.19   12.50
 -13   2   7   74.79   10.90
 -12  -2   7    6.20    4.30
 -12   2   7    4.10    4.30
 -12   2   7   -1.20    3.10
 -11  -2   7   25.50    5.00
 -11  -2   7   30.50    6.80
 -11   2   7   13.20    5.00
 -10  -2   7   26.90    5.10
 -10  -2   7   23.10    5.80
 -10   2   7   26.20    6.10
  -9  -2   7   26.80    4.90
  -9  -2   7   14.80    4.60
   9   2  -7   17.00    3.00
  -9   2   7   26.40    5.80
  -8  -2   7  281.97   14.40
  -8  -2   7  281.17   12.80
   8   2  -7  287.97   10.70
  -8   2   7  292.47   15.10
  -7  -2   7   58.19    6.30
  -7  -2   7   55.29    6.80
   7   2  -7   59.69    5.20
  -7   2   7   60.69    7.70
  -6  -2   7   10.60    3.30
  -6  -2   7   11.90    3.20
  -6   2   7    4.30    2.90
   6   2  -7    9.30    2.70
  -5  -2   7   37.20    4.90
  -5  -2   7   43.00    5.40
   5   2  -7   36.50    4.20
  -5   2   7   29.50    5.30
  -4  -2   7 1119.49   31.00
  -4  -2   7 1086.89   30.10
   4   2  -7 1107.49   29.00
  -4   2   7 1110.29   32.90
  -3  -2   7   82.89    6.00
  -3  -2   7   72.79    4.80
  -3   2   7   86.79    8.20
  -3   2   7   85.99    3.40
   3   2  -7   88.39    5.90
  -2  -2   7   86.89    4.60
  -2  -2   7   77.99    5.80
   2   2  -7   80.19    5.60
  -2   2   7   84.39    6.60
  -2   2   7   90.79    4.20
  -1  -2   7  560.24   18.00
  -1  -2   7  534.15   17.00
  -1  -2   7  518.55   14.30
  -1   2   7  547.15   18.70
  -1   2   7  552.64   15.60
   0  -2   7 2025.90   50.59
   0  -2   7 1981.70   49.40
   0  -2   7 2001.40   45.00
   0   2   7 2035.30   48.60
   0   2   7 1965.30   50.59
   1  -2   7   19.00    3.20
   1  -2   7   18.90    3.60
   1   2   7   22.20    3.80
   1   2   7   15.60    3.10
   2  -2   7  407.76   15.40
   2  -2   7  376.76   14.50
   2   2   7  395.86   14.60
   3  -2   7  177.78    9.40
   3  -2   7  180.08    9.90
   3   2   7  176.68    8.80
   3   2   7  182.78    9.80
   4  -2   7   -0.30    1.70
  -4  -2  -7    2.40    2.10
   4  -2   7    0.60    1.60
   4   2   7    2.20    2.30
   4   2   7   -1.20    1.60
  -4   2  -7    0.50    1.00
   5  -2   7  384.46   16.40
   5  -2   7  394.56   15.70
  -5  -2  -7  390.16   14.50
  -5   2  -7  368.66   12.00
   5   2   7  364.86   14.40
   5   2   7  391.56   16.70
   6  -2   7   55.79    7.70
  -6  -2  -7   62.89    6.50
  -6   2  -7   63.99    4.80
   6   2   7   56.89    5.90
   6   2   7   53.29    7.50
   7  -2   7   11.60    4.00
  -7  -2  -7   11.80    3.70
  -7   2  -7   11.50    3.10
   7   2   7   10.70    4.30
  -8  -2  -7   26.00    5.20
   8  -2   7   27.60    6.00
   8   2   7   16.70    5.20
  -8   2  -7   26.20    4.60
  -9  -2  -7   16.90    5.10
   9  -2   7   11.10    4.90
   9   2   7   18.10    5.80
  10  -2   7    2.30    3.80
 -10  -2  -7    8.10    4.30
  10   2   7   10.30    4.90
  11  -2   7   14.20    5.90
  11   2   7   10.80    5.70
  12  -2   7   34.60    8.60
  12   2   7   36.90    8.90
 -14  -3   7   -1.70    5.00
 -14   3   7    3.80    5.60
 -13  -3   7   56.59   10.00
 -13   3   7   52.89    9.50
 -13   3   7   74.89   11.30
 -12  -3   7   19.00    6.40
 -12   3   7   39.30    8.10
 -11  -3   7    0.30    3.00
 -11   3   7   -0.20    4.00
 -10  -3   7  281.07   16.10
 -10  -3   7  330.87   13.90
 -10   3   7  301.87   16.80
  -9  -3   7   17.00    4.00
  -9  -3   7   24.50    5.40
   9   3  -7   25.30    4.20
  -9   3   7   28.10    6.60
  -8  -3   7  257.77   12.00
  -8  -3   7  274.47   14.20
   8   3  -7  270.47   11.70
  -8   3   7  270.57   14.80
  -7  -3   7  960.50   30.40
  -7  -3   7  949.80   28.10
   7   3  -7  963.00   28.20
  -7   3   7  945.91   31.70
  -6  -3   7   75.29    6.90
  -6  -3   7   67.49    7.10
  -6   3   7   58.99    7.50
   6   3  -7   75.09    7.00
  -5  -3   7  218.18   10.30
  -5  -3   7  229.88   10.90
   5   3  -7  248.78   10.60
  -5   3   7  227.08   12.50
  -4  -3   7  300.87   11.80
  -4  -3   7  286.17   12.00
   4   3  -7  312.57   11.90
  -4   3   7  284.77   13.90
  -3  -3   7   10.10    2.20
  -3  -3   7   10.50    2.80
  -3   3   7   12.10    3.50
   3   3  -7   13.60    3.20
  -3   3   7   14.40    1.80
  -2  -3   7   13.60    3.00
  -2  -3   7   11.00    2.20
  -2   3   7   12.10    3.50
   2   3  -7    3.10    1.90
  -2   3   7    7.30    1.70
  -1  -3   7  273.37   11.70
  -1  -3   7  285.47    9.20
  -1   3   7  283.97   12.70
  -1   3   7  279.27   10.00
   1   3  -7  282.47   11.90
   0  -3   7  432.46   15.40
   0  -3   7  440.16   12.30
   0  -3   7  431.76   15.80
   0   3   7  415.36   15.80
   0   3   7  411.86   14.10
   1  -3   7   54.79    5.90
   1  -3   7   36.00    4.90
   1   3   7   33.80    4.60
   1   3   7   41.10    5.00
   2  -3   7  336.47   13.60
   2  -3   7  329.17   13.90
   2   3   7  328.47   12.80
   2   3   7  335.37   13.50
   3  -3   7  580.14   20.20
   3  -3   7  621.94   20.80
   3   3   7  620.34   20.80
  -3   3  -7  556.14   14.10
   3   3   7  571.24   18.50
  -4  -3  -7  110.99    7.30
   4  -3   7  104.99    9.60
   4  -3   7  102.19    7.50
   4   3   7  107.09    6.80
   4   3   7  107.89    8.00
  -4   3  -7  105.29    4.60
   5  -3   7   23.60    4.70
   5  -3   7   29.10    5.20
  -5  -3  -7   34.30    5.20
  -5   3  -7   31.80    3.40
   5   3   7   32.80    4.60
   5   3   7   32.90    5.90
   6  -3   7  179.68   11.30
  -6  -3  -7  176.88   10.20
  -6   3  -7  173.38    8.00
   6   3   7  155.68    8.40
   6   3   7  170.58   11.20
  -7  -3  -7  221.68   12.10
   7  -3   7  219.68   13.10
  -7   3  -7  199.88    9.60
   7   3   7  188.78   13.00
  -8  -3  -7   41.00    6.90
   8  -3   7   46.10    7.40
  -8   3  -7   49.30    6.40
   8   3   7   65.99    9.50
  -9  -3  -7   15.30    5.00
   9  -3   7   12.10    5.10
   9   3   7    9.80    4.80
 -10  -3  -7    7.90    5.00
  10  -3   7    0.50    3.60
  10   3   7   -0.30    4.20
  11  -3   7    6.00    5.30
  11   3   7   -1.00    4.40
  12  -3   7    1.40    5.30
  12   3   7    1.70    5.50
 -14  -4   7   -4.90    4.40
 -14   4   7    9.60    6.30
 -13  -4   7   16.40    6.30
 -13   4   7   27.30    8.00
 -12  -4   7  465.75   23.30
 -12   4   7  435.86   22.80
 -11  -4   7   18.80    5.90
 -11   4   7   17.00    5.90
 -10  -4   7   46.20    6.10
 -10  -4   7   36.40    7.30
  10   4  -7   39.80    6.10
 -10   4   7   37.60    7.50
  -9  -4   7   90.59    8.00
  -9  -4   7   80.39    9.60
  -9   4   7   78.99    9.90
   9   4  -7   89.99    8.50
  -8  -4   7  427.86   15.80
  -8  -4   7  417.26   18.50
   8   4  -7  421.46   17.00
  -8   4   7  412.96   19.40
  -7  -4   7  609.44   20.00
  -7  -4   7  621.74   22.60
  -7   4   7  636.14   24.10
   7   4  -7  563.24   21.50
  -6  -4   7  802.42   26.20
  -6  -4   7  830.32   24.50
  -6   4   7  784.82   28.00
   6   4  -7  813.62   26.00
  -5  -4   7   73.39    6.70
  -5  -4   7   87.99    7.90
   5   4  -7   62.49    6.50
  -5   4   7   65.99    8.00
  -4  -4   7   29.10    4.30
  -4  -4   7   24.10    3.90
  -4   4   7   23.00    2.10
   4   4  -7   28.50    4.50
  -4   4   7   16.10    4.20
  -3  -4   7  359.96   13.60
  -3   4   7  361.26   15.70
  -3   4   7  343.47   10.50
   3   4  -7  340.97   14.00
  -2  -4   7  319.47   11.40
  -2  -4   7  326.27   13.00
   2   4  -7  339.17   14.00
  -2   4   7  329.47   10.90
  -2   4   7  321.07   14.40
  -1  -4   7   19.00    2.90
  -1  -4   7   24.80    4.20
  -1   4   7   20.50    4.40
   1   4  -7   18.70    4.00
  -1   4   7   22.00    3.30
   0  -4   7  131.19    8.10
   0   4   7  134.59    8.40
   0   4  -7  124.39    8.10
   0   4   7  119.19    6.90
   1  -4   7   34.30    5.20
   1  -4   7   27.10    4.90
   1   4   7   24.50    4.00
   1   4   7   22.60    4.10
   2  -4   7 1672.93   44.60
   2  -4   7 1624.24   44.30
   2   4   7 1629.04   42.80
   2   4   7 1658.73   44.10
   3  -4   7 1111.19   33.20
   3  -4   7 1135.79   33.20
   3   4   7 1127.39   33.50
   3   4   7 1133.19   30.90
  -4  -4  -7   20.20    4.30
   4  -4   7   16.30    4.30
   4  -4   7    8.20    3.10
   4   4   7    9.30    2.80
   4   4   7    5.50    3.40
   5  -4   7  648.44   23.80
  -5  -4  -7  687.53   23.30
   5   4   7  685.53   20.80
   5   4   7  653.53   24.50
  -5   4  -7  645.54   18.60
   6  -4   7  102.79   10.00
  -6  -4  -7  116.69    8.90
  -6   4  -7   97.49    6.20
   6   4   7  100.59    6.50
   6   4   7   95.19    9.90
   7  -4   7   48.40    7.40
  -7  -4  -7   62.59    8.00
  -7   4  -7   53.99    5.90
   7   4   7   60.79    9.10
  -8  -4  -7  244.48   13.90
   8  -4   7  220.18   14.40
   8   4   7  233.38   15.20
   9  -4   7  132.49   13.20
  -9  -4  -7  136.29   12.50
   9   4   7  146.59   14.40
  10  -4   7   88.39   11.20
 -10  -4  -7  108.39   11.90
  10   4   7  102.69   13.70
  11  -4   7  131.39   14.80
  11   4   7  145.89   15.70
  12  -4   7    6.30    6.40
  12   4   7    5.50    6.90
 -14  -5   7   17.40    7.80
 -14   5   7    6.20    6.50
 -13  -5   7   42.00    9.70
 -13   5   7   48.40   10.10
 -12  -5   7  328.67   20.00
 -12   5   7  364.46   20.60
 -11  -5   7  141.79   14.30
 -11   5   7  166.58   15.80
 -10  -5   7  202.78   13.80
 -10   5   7  205.38   14.80
  10   5  -7  172.78   11.60
  -9  -5   7   24.90    5.50
  -9  -5   7   31.30    4.80
   9   5  -7   23.40    5.50
  -9   5   7   23.70    6.10
  -8  -5   7   44.50    7.40
  -8  -5   7   52.09    6.10
  -8   5   7   31.00    6.60
   8   5  -7   50.39    7.60
  -7  -5   7 1002.80   29.40
  -7  -5   7 1002.90   32.80
  -7   5   7 1115.29   35.50
   7   5  -7 1034.00   33.20
  -6  -5   7  386.86   14.70
  -6  -5   7  402.86   16.70
  -6   5   7  396.46   18.40
   6   5  -7  385.26   16.60
  -5  -5   7  517.85   17.50
  -5  -5   7  507.25   18.60
  -5   5   7  477.45   20.30
  -5   5   7  496.35   13.40
   5   5  -7  517.15   19.10
  -4  -5   7  292.27   12.30
  -4  -5   7  291.27   12.40
  -4   5   7  316.57    9.70
  -4   5   7  323.07   15.30
   4   5  -7  282.27   13.10
  -3  -5   7   51.79    5.60
   3   5  -7   53.09    6.50
  -3   5   7   53.29    4.00
  -3   5   7   71.09    8.30
  -2  -5   7  174.08    9.40
  -2  -5   7  168.08    8.30
  -2   5   7  188.38   10.90
   2   5  -7  165.38   10.00
  -2   5   7  169.18    7.70
  -1  -5   7  190.88    8.80
  -1  -5   7  175.38    9.60
  -1   5   7  173.88   10.30
   1   5  -7  175.38   10.40
  -1   5   7  175.08    8.40
   0  -5   7  107.99    7.60
   0   5   7  105.79    7.00
   0   5  -7  112.79    8.30
   0   5   7   94.99    7.50
   1  -5   7    7.60    2.80
   1   5   7   11.90    3.50
  -1   5  -7   12.10    3.60
   2  -5   7  106.69    8.10
   2  -5   7   96.29    7.50
   2   5   7  109.49    8.00
   2   5   7  114.09    7.40
   3  -5   7   52.79    6.90
   3  -5   7   48.70    6.40
   3   5   7   66.49    7.50
   3   5   7   68.49    6.30
   4  -5   7   45.70    6.70
   4  -5   7   40.10    6.00
   4   5   7   33.80    5.80
   4   5   7   35.40    4.50
   5  -5   7   70.59    8.50
  -5  -5  -7   57.59    7.30
   5   5   7   40.50    6.60
   5   5   7   50.99    5.30
   6  -5   7   16.50    4.90
  -6  -5  -7   16.20    4.80
   6   5   7   10.40    2.90
   6   5   7   14.80    5.00
   7  -5   7  761.32   27.90
  -7  -5  -7  690.73   26.20
   7   5   7  722.33   28.50
  -7   5  -7  685.13   22.20
  -8  -5  -7  698.03   26.70
   8  -5   7  665.03   27.10
   8   5   7  679.43   28.10
   9  -5   7  418.76   20.90
  -9  -5  -7  383.46   19.70
   9   5   7  402.56   21.80
 -10  -5  -7    3.70    4.80
  10  -5   7    2.10    4.50
  10   5   7    6.80    5.50
 -11  -5  -7    1.70    5.30
  11  -5   7    4.00    5.30
  11   5   7    8.50    6.60
  12  -5   7   54.49   10.10
  12   5   7   83.49   14.20
 -13  -6   7   67.49   11.00
 -13   6   7   80.29   12.90
 -12  -6   7   77.79   11.80
 -12   6   7   62.09   10.80
 -11  -6   7   14.90    5.60
 -11   6   7   23.10    6.90
 -10  -6   7   36.40    7.90
  10   6  -7   33.00    6.80
 -10   6   7   35.50    7.90
  -9  -6   7  247.48   15.10
  -9  -6   7  242.18   11.20
  -9   6   7  254.57   16.10
   9   6  -7  237.28   14.80
  -8  -6   7    7.00    3.60
  -8  -6   7    7.40    2.70
   8   6  -7    3.90    3.90
  -8   6   7    0.20    3.30
  -7  -6   7  109.69    7.40
  -7  -6   7  111.99   10.60
  -7   6   7  109.69   11.50
   7   6  -7  107.79   10.70
  -6  -6   7  809.42   26.80
  -6  -6   7  764.32   24.00
  -6   6   7  790.42   20.30
   6   6  -7  767.22   27.30
  -6   6   7  783.12   28.50
  -5  -6   7  454.75   17.70
  -5  -6   7  437.96   16.30
  -5   6   7  456.55   13.60
  -5   6   7  446.26   19.70
  -4  -6   7   10.40    3.00
  -4  -6   7    8.90    2.80
  -4   6   7   13.70    4.40
   4   6  -7   14.20    4.00
  -4   6   7    9.50    2.40
  -3  -6   7    4.70    2.40
  -3  -6   7    0.10    1.20
  -3   6   7   12.10    3.80
  -3   6   7    8.50    2.30
   3   6  -7    6.70    3.10
  -2  -6   7   38.20    5.40
  -2  -6   7   40.00    5.30
  -2   6   7   51.49    5.20
   2   6  -7   39.50    6.00
  -2   6   7   33.90    5.80
  -1  -6   7  195.78   10.40
  -1  -6   7  203.78   10.10
  -1   6   7  212.68   11.60
  -1   6   7  194.48    9.60
   1   6  -7  193.88   11.50
   0  -6   7  439.06   17.00
   0   6   7  435.16   17.40
   0   6  -7  428.36   18.10
   0   6   7  456.25   16.60
   1  -6   7    9.30    3.10
   1   6   7    1.70    2.30
   1   6   7   -0.80    1.30
  -1   6  -7    6.00    3.10
   2  -6   7    7.90    3.50
   2   6   7   12.00    3.60
  -2   6  -7    5.40    3.30
   2   6   7    2.00    2.70
   3  -6   7    4.60    2.40
   3  -6   7    9.40    3.60
   3   6   7    8.30    2.90
   3   6   7   16.20    4.40
   4  -6   7   12.00    4.20
   4   6   7   13.40    4.70
   4   6   7   17.00    3.60
  -5  -6  -7  109.29   10.50
   5  -6   7  102.29   10.40
   5   6   7   84.09   10.00
   5   6   7  107.29    6.70
   6  -6   7   83.49    9.70
  -6  -6  -7   85.09    9.90
   6   6   7   63.39    8.80
   7  -6   7  264.37   15.50
  -7  -6  -7  240.48   15.10
   7   6   7  225.28   15.40
  -8  -6  -7    7.20    4.60
   8  -6   7   12.90    5.60
   8   6   7   12.40    6.00
   9  -6   7  312.87   19.30
  -9  -6  -7  316.47   18.60
   9   6   7  337.17   20.30
  10  -6   7  293.17   19.00
 -10  -6  -7  317.77   19.40
  10   6   7  338.07   21.50
  11  -6   7   68.09   11.40
 -11  -6  -7   65.99   10.90
  11   6   7   76.69   13.80
 -13  -7   7   53.89   11.10
 -13   7   7   57.99   11.30
 -12  -7   7    5.30    5.80
 -12   7   7    3.30    4.90
 -11  -7   7   -0.80    3.60
  11   7  -7    8.40    7.50
 -11   7   7    2.10    4.90
 -10  -7   7   77.19   10.80
  10   7  -7   92.29   11.70
 -10   7   7   86.19   11.40
  -9  -7   7   15.30    4.90
  -9   7   7   25.40    6.70
   9   7  -7    9.20    4.90
  -8  -7   7  284.97   15.90
  -8  -7   7  295.57   12.70
   8   7  -7  277.57   17.20
  -8   7   7  302.37   17.10
  -7  -7   7   86.29    9.80
  -7  -7   7   82.69    7.50
   7   7  -7   95.69   10.90
  -7   7   7   78.69    9.80
  -6  -7   7  399.06   17.90
  -6  -7   7  412.66   15.90
  -6   7   7  420.96   19.50
  -6   7   7  407.76   13.10
  -5  -7   7 1812.32   47.70
  -5  -7   7 1773.52   49.60
  -5   7   7 1800.42   51.99
  -5   7   7 1810.32   44.40
   5   7  -7 1859.81   51.49
  -4  -7   7  238.18   11.90
  -4  -7   7  212.98   11.00
  -4   7   7  226.58    9.70
  -4   7   7  246.28   13.80
   4   7  -7  218.18   12.90
  -3  -7   7  891.91   28.20
  -3  -7   7  911.11   28.10
   3   7  -7  924.61   30.60
  -3   7   7  930.01   26.40
  -3   7   7  918.41   30.70
  -2  -7   7    2.60    2.30
  -2  -7   7    1.80    2.30
   2   7  -7    2.00    2.50
  -2   7   7    0.70    2.10
  -2   7   7    3.10    3.10
  -1  -7   7   92.49    8.50
  -1  -7   7   82.79    8.40
  -1   7   7   84.29    7.80
   1   7  -7   83.59    8.90
  -1   7   7   95.59    9.70
   0  -7   7  120.09    8.50
   0   7  -7  158.68   10.70
   0   7   7  159.48    9.30
   0   7   7  120.49    8.80
   1  -7   7  151.78    9.40
   1   7   7  139.89    9.10
   1   7   7  166.58   10.10
  -1   7  -7  141.79   10.50
   2  -7   7   33.10    5.70
   2   7   7   30.60    5.20
  -2   7  -7   27.00    5.50
   2   7   7   44.40    6.80
   3   7   7   -1.30    2.40
  -3   7  -7    2.30    3.60
   3   7   7   -0.20    2.30
   4  -7   7  483.85   21.00
   4   7   7  470.65   16.50
   4   7   7  481.15   21.10
   5  -7   7   41.40    7.20
   5   7   7   49.30    8.30
   5   7   7   56.29    5.70
  -6  -7  -7    8.40    4.20
   6  -7   7    6.20    4.00
   6   7   7    3.30    3.50
   7  -7   7  144.79   13.90
  -7  -7  -7  131.29   13.30
   7   7   7  155.88   15.40
   8  -7   7   93.29   12.10
  -8  -7  -7   63.89    9.90
   8   7   7   60.79   10.20
  -9  -7  -7  310.47   18.90
   9  -7   7  268.37   17.80
   9   7   7  294.37   19.50
 -10  -7  -7   -1.60    4.60
  10  -7   7    2.00    4.10
  10   7   7    1.90    5.70
  11  -7   7   81.19   12.20
 -11  -7  -7   95.69   13.70
  11   7   7  105.09   15.70
 -13  -8   7    7.40    5.30
 -13   8   7    3.90    6.10
 -12  -8   7   63.49   11.20
 -12   8   7   26.50    8.60
 -11  -8   7   31.90    7.70
  11   8  -7   23.30    7.60
 -11   8   7   25.20    7.40
 -10  -8   7  184.48   14.40
 -10   8   7  154.18   15.10
  10   8  -7  146.59   15.00
  -9  -8   7   21.70    6.10
  -9   8   7   22.70    6.60
   9   8  -7   16.10    6.60
  -8  -8   7    1.70    2.60
  -8  -8   7    3.10    3.40
  -8   8   7    4.40    3.70
   8   8  -7   -1.60    3.90
  -7  -8   7  262.47   12.00
  -7  -8   7  252.47   14.70
   7   8  -7  175.08   15.90
  -7   8   7  248.68   15.20
  -6  -8   7  327.97   16.60
  -6  -8   7  356.26   14.70
   6   8  -7  357.46   18.70
  -6   8   7  348.97   12.60
  -6   8   7  332.07   17.50
  -5  -8   7  202.68   10.70
  -5  -8   7  193.98   12.00
   5   8  -7  192.38   13.10
  -5   8   7  210.28   13.40
  -5   8   7  206.88    9.40
  -4  -8   7  163.68   10.60
  -4  -8   7  181.68   10.00
  -4   8   7  156.78   11.40
   4   8  -7  181.88   12.20
  -4   8   7  178.28    9.00
  -3  -8   7   48.60    6.00
  -3  -8   7   38.00    6.20
  -3   8   7   31.90    4.90
   3   8  -7   20.80    5.20
  -3   8   7   37.80    6.50
  -2  -8   7  148.49    9.10
  -2  -8   7  137.69    9.80
  -2   8   7  144.59    8.90
   2   8  -7  135.19   12.10
  -2   8   7  134.69   11.90
  -1  -8   7    7.90    3.10
  -1   8   7    8.00    3.50
  -1   8   7    3.60    2.60
   1   8  -7    2.30    3.30
   0  -8   7  118.59    8.50
   0   8   7  131.89    9.00
   0   8   7  146.79    9.90
   0   8  -7  118.29   11.30
   1  -8   7 1235.58   37.40
  -1   8  -7 1350.16   40.90
   1   8   7 1295.07   38.50
   1   8   7 1239.58   37.30
   2  -8   7  247.88   13.20
   2   8   7  245.68   12.50
  -2   8  -7  243.98   14.30
   2   8   7  238.48   13.60
  -3   8  -7  191.68   13.30
   3   8   7  192.38   12.80
   3   8   7  177.48   10.30
   4   8   7   72.59    9.60
   4   8   7   89.79    7.90
  -4   8  -7   94.39   10.70
  -5   8  -7   12.70    4.70
   5   8   7   17.50    5.70
  -6  -8  -7   29.30    6.80
   6  -8   7   19.00    5.50
   6   8   7   37.70    7.70
  -6   8  -7   24.80    7.00
  -7  -8  -7  102.09   12.10
   7  -8   7  116.39   13.10
   7   8   7  101.89   13.00
  -8  -8  -7    4.80    4.80
   8  -8   7    1.10    4.30
   8   8   7    6.30    5.10
  -9  -8  -7    5.70    5.60
   9  -8   7    4.70    5.20
   9   8   7    2.30    5.40
  10  -8   7    5.00    6.00
 -10  -8  -7    3.70    5.80
  10   8   7    4.80    7.10
  11  -8   7    7.50    6.80
 -11  -8  -7    6.40    7.00
  11   8   7    8.00    7.30
 -13  -9   7  101.19   14.50
 -13   9   7  106.59   15.10
 -12  -9   7   -2.40    4.60
 -12   9   7    1.60    5.70
 -11  -9   7    8.90    5.20
  11   9  -7    4.70    5.50
 -11   9   7    8.50    5.50
 -10  -9   7  410.26   22.40
 -10   9   7  383.36   21.90
  10   9  -7  361.46   22.60
  -9  -9   7   64.49    9.70
  -9   9   7   61.99   10.00
  -8  -9   7   20.90    6.20
   8   9  -7   12.60    6.50
  -8   9   7   22.80    6.10
  -7  -9   7  129.79    8.40
  -7  -9   7  151.68   13.90
  -7   9   7  108.39   12.10
   7   9  -7  128.29   13.90
  -6  -9   7   26.80    4.80
  -6  -9   7   19.90    5.60
  -6   9   7   25.40    6.20
  -6   9   7   20.50    3.90
   6   9  -7   20.40    6.70
  -5  -9   7   47.40    7.50
  -5  -9   7   48.50    6.10
   5   9  -7   45.10    7.90
  -5   9   7   48.50    5.60
  -5   9   7   52.79    8.30
  -4  -9   7   96.89   10.10
  -4  -9   7   97.69    7.40
  -4   9   7   76.89    9.30
  -4   9   7   82.49    7.60
   4   9  -7   86.69    9.90
  -3  -9   7  436.76   17.20
  -3  -9   7  428.26   19.20
  -3   9   7  434.36   16.90
   3   9  -7  437.56   20.40
  -3   9   7  448.56   19.70
  -2  -9   7  128.89    8.90
   2   9  -7  130.79   12.70
  -2   9   7  140.69   10.50
  -2   9   7  144.89    9.50
  -1  -9   7    0.90    2.40
  -1   9   7    5.30    3.20
  -1   9   7    7.30    3.10
   1   9  -7    4.90    4.00
   0  -9   7  166.88   10.40
   0   9   7  162.08   10.80
   0   9  -7  192.88   13.10
   0   9   7  163.48   10.80
   1  -9   7  469.15   19.30
   1   9   7  461.15   19.00
  -1   9  -7  489.65   22.00
   1   9   7  492.25   20.20
  -2   9  -7   66.59    9.00
   2   9   7   76.29    8.20
   2   9   7   69.89    8.80
   3   9   7   94.79    8.90
  -3   9  -7   85.19    9.90
   3   9   7   90.09   10.80
   4   9   7   16.60    5.10
   4   9   7   16.50    4.50
  -4   9  -7    7.50    4.70
  -5   9  -7    4.00    4.50
   5   9   7    7.60    4.50
  -6   9  -7   27.80    7.50
   6   9   7   28.60    7.00
  -7  -9  -7    4.90    4.40
   7   9   7    1.50    4.90
  -7   9  -7    3.50    5.90
  -8  -9  -7   42.60    9.10
   8   9   7   53.29   10.80
  -8   9  -7   51.19   10.50
  -9  -9  -7   -2.40    4.70
  -9   9  -7    4.30    6.00
   9   9   7   -5.60    4.90
 -10  -9  -7   21.30    8.40
 -10   9  -7   16.20    8.00
  10   9   7   17.00    8.40
 -12 -10   7   79.59   13.30
 -12  10   7   76.69   12.70
 -11 -10   7   21.00    6.80
  11  10  -7    3.30    5.70
 -11  10   7   37.30    9.10
 -10 -10   7  143.49   16.00
 -10  10   7   98.79   13.60
  10  10  -7   91.79   14.50
  -9 -10   7  567.04   26.80
  -9  10   7  575.14   27.00
   9  10  -7  579.74   29.50
  -8 -10   7    6.20    4.80
   8  10  -7    7.10    6.00
  -8  10   7    9.50    5.50
  -7 -10   7   22.00    4.50
  -7 -10   7   27.30    7.00
   7  10  -7   31.00    8.40
  -7  10   7   19.70    5.80
  -6 -10   7   59.39    8.60
  -6 -10   7   75.69    7.80
  -6  10   7   82.69    7.60
  -6  10   7   67.29    9.40
   6  10  -7   67.89   10.50
  -5 -10   7   43.80    7.70
  -5 -10   7   30.30    5.00
  -5  10   7   41.00    5.60
   5  10  -7   50.49    9.00
  -5  10   7   29.30    6.30
  -4 -10   7   27.00    5.10
  -4 -10   7   32.20    6.70
   4  10  -7   33.30    7.40
  -4  10   7   30.60    5.20
  -4  10   7   23.50    6.00
  -3 -10   7   44.10    6.30
  -3 -10   7   62.29    8.90
  -3  10   7   54.69    7.00
  -3  10   7   46.70    7.60
   3  10  -7   57.49    9.00
  -2 -10   7   31.90    5.40
  -2  10   7   25.30    5.80
   2  10  -7   30.10    7.30
  -2  10   7   26.50    5.50
  -1 -10   7  257.37   13.30
  -1  10   7  261.07   13.90
  -1  10   7  282.57   14.90
   1  10  -7  272.47   16.20
   0  10  -7   24.80    5.90
   0  10   7   13.00    4.80
   0  10   7   14.50    4.80
   1  10   7   79.79    9.00
   1  10   7   92.69   10.20
  -1  10  -7  102.69   11.70
   2  10   7  253.67   13.40
   2  10   7  259.67   15.10
  -2  10  -7  245.08   15.90
   3  10   7   61.09    9.10
  -3  10  -7   63.59    9.60
   3  10   7   67.69    7.90
   4  10   7  342.97   18.80
  -4  10  -7  294.07   18.30
  -5  10  -7  701.13   29.10
   5  10   7  607.54   27.70
  -6  10  -7   36.10    8.40
   6  10   7   31.90    7.70
  -7  10  -7   11.20    6.10
   7  10   7    6.30    5.50
  -8 -10  -7    3.40    5.00
   8  10   7    0.00    5.40
  -8  10  -7    9.90    6.60
  -9 -10  -7   13.40    6.90
   9  10   7   10.90    8.10
  -9  10  -7   13.20    8.30
 -10 -10  -7   -5.40    6.10
  10  10   7    8.30    7.80
 -10  10  -7   21.90    9.40
 -12 -11   7    2.90    6.10
 -12  11   7    6.50    6.90
 -11 -11   7    1.00    5.10
  11  11  -7    6.70    8.10
 -11  11   7    3.90    5.60
 -10 -11   7   64.29   11.40
 -10  11   7   73.39   11.30
  10  11  -7   85.19   14.30
  -9 -11   7   21.80    7.40
  -9  11   7    6.10    5.10
   9  11  -7   22.50    8.20
  -8 -11   7    1.50    4.10
  -8  11   7    4.20    4.30
   8  11  -7   -1.30    5.30
  -7 -11   7   23.00    6.90
  -7 -11   7    9.40    4.80
  -7  11   7    3.80    4.10
   7  11  -7   10.40    6.50
  -6 -11   7   38.30    7.80
  -6 -11   7   20.50    4.60
  -6  11   7   27.10    5.00
   6  11  -7   23.00    7.90
  -6  11   7   15.20    6.00
  -5 -11   7   84.99    8.40
  -5 -11   7   85.69   11.40
  -5  11   7   89.59    8.70
   5  11  -7   79.59   11.20
  -5  11   7   64.49    9.10
  -4 -11   7   41.50    8.40
  -4 -11   7   25.90    4.80
  -4  11   7   31.90    5.30
   4  11  -7   28.30    7.30
  -4  11   7   26.10    6.40
  -3 -11   7  145.29   14.20
  -3 -11   7  106.19    9.80
   3  11  -7  112.39   13.00
  -3  11   7  118.19   11.80
  -3  11   7  132.99   10.00
  -2  11   7  264.67   15.00
  -2  11   7  307.67   15.20
   2  11  -7  235.68   16.40
  -1  11   7   95.59   10.10
   1  11  -7  102.19   12.50
  -1  11   7  101.49   10.60
   0  11   7  183.28   12.00
   0  11   7  184.98   12.50
   0  11  -7  172.28   15.60
   1  11   7   82.39   10.30
  -1  11  -7   78.49   11.10
   1  11   7   73.29    8.80
  -2  11  -7  208.18   15.40
   2  11   7  183.18   11.90
   2  11   7  197.58   13.70
   3  11   7  117.29   12.50
   3  11   7  124.69    9.50
  -3  11  -7  106.29   12.20
   4  11   7  153.48   14.80
  -4  11  -7  135.99   14.10
  -5  11  -7  404.06   22.50
   5  11   7  391.96   21.80
  -6  11  -7   23.30    8.20
   6  11   7   22.30    7.70
   7  11   7   72.59   12.50
  -7  11  -7   75.19   12.20
   8  11   7   44.70   10.50
  -8  11  -7   42.20    9.90
  -9 -11  -7    5.90    6.20
   9  11   7    7.50    7.60
  -9  11  -7   11.30    8.00
 -10 -11  -7   24.10    8.90
 -10  11  -7   47.60   12.60
 -11 -12   7   70.69   12.50
  11  12  -7   85.99   15.60
 -11  12   7   81.69   13.30
 -10 -12   7   14.70    7.10
  10  12  -7    2.00    8.20
 -10  12   7   17.60    7.40
  -9 -12   7   19.70    7.30
  -9  12   7    5.10    5.50
   9  12  -7    6.30    6.40
  -8 -12   7   17.10    6.00
   8  12  -7    9.10    7.30
  -8  12   7    7.70    4.90
  -7 -12   7    8.20    5.40
   7  12  -7    9.20    7.30
  -7  12   7    4.80    4.70
  -6 -12   7   11.60    5.50
   6  12  -7   14.80    6.80
  -6  12   7    9.80    5.60
  -6  12   7   18.50    5.30
  -5 -12   7   14.10    5.70
  -5  12   7   18.10    4.90
  -5  12   7   18.90    5.80
   5  12  -7   13.70    6.40
  -4 -12   7  104.89   12.50
   4  12  -7   74.99   11.20
  -4  12   7   76.89    9.00
  -4  12   7   85.99   10.60
  -3  12   7  936.01   31.40
   3  12  -7  898.51   35.90
  -3  12   7  955.60   33.60
  -2  12   7   29.50    6.70
  -2  12   7   35.10    7.00
   2  12  -7   29.00    7.40
  -1  12   7  107.19   11.20
   1  12  -7  113.59   13.70
  -1  12   7  111.59   11.60
   0  12  -7   65.09   10.70
   0  12   7   67.99    9.70
   0  12   7   77.99    9.80
   1  12   7  211.58   13.10
  -1  12  -7  189.88   17.30
   1  12   7  221.28   14.80
  -2  12  -7    4.10    4.80
   2  12   7    4.80    4.30
   2  12   7    1.40    4.30
   3  12   7  175.58   11.30
   3  12   7  165.58   15.20
  -3  12  -7  175.28   16.80
  -4  12  -7   25.90    7.60
   4  12   7   28.60    7.50
   5  12   7  116.09   14.20
  -5  12  -7   94.19   13.20
  -6  12  -7   10.00    6.30
   6  12   7   15.90    7.30
  -7  12  -7    6.00    6.70
   7  12   7    6.40    6.50
  -8  12  -7    8.80    7.10
   8  12   7   -0.80    5.90
  -9  12  -7   -1.40    6.80
   9  12   7    1.60    6.20
 -10 -13   7   37.30   10.10
 -10  13   7   37.40    9.70
  10  13  -7   25.80   11.10
  -9 -13   7   34.30    8.80
  -9  13   7   23.60    7.70
   9  13  -7   38.90   10.80
  -8 -13   7   86.39   12.80
  -8  13   7   74.79   11.50
   8  13  -7   74.19   13.60
  -7 -13   7   30.90    8.40
  -7  13   7   28.70    7.70
   7  13  -7   20.60    8.60
  -6 -13   7   -1.60    4.10
   6  13  -7    5.20    6.80
  -6  13   7    5.40    4.50
  -5 -13   7   47.90    9.60
   5  13  -7   52.89   10.90
  -5  13   7   51.69    8.90
  -5  13   7   52.39    8.00
  -4 -13   7   18.60    6.60
  -4  13   7   11.60    4.90
  -4  13   7   24.70    6.80
   4  13  -7   13.90    7.70
   3  13  -7   21.40    7.50
  -3  13   7   13.80    5.50
  -3  13   7    6.80    4.60
  -2  13   7 1307.47   42.30
  -2  13   7 1259.87   41.20
   2  13  -7 1316.87   46.60
   1  13  -7  310.77   20.00
  -1  13   7  338.67   17.70
  -1  13   7  348.47   18.50
   0  13   7   60.49    9.30
   0  13  -7   51.29    9.80
   0  13   7   60.29    9.10
   1  13   7    8.30    5.50
   1  13   7    8.70    5.00
  -1  13  -7    8.20    5.60
  -2  13  -7   74.19   11.50
   2  13   7  110.29   11.00
   2  13   7   82.59   11.30
  -3  13  -7   72.49   11.20
   3  13   7   74.79   11.10
   4  13   7   52.89   10.00
  -4  13  -7   53.69   10.50
   5  13   7   31.00    8.30
  -5  13  -7   39.40    9.00
   6  13   7   92.49   13.50
  -6  13  -7   87.39   13.70
   7  13   7    5.60    7.00
  -7  13  -7   -1.90    5.80
  -8  13  -7    9.70    8.20
   8  13   7    4.20    7.60
 -10 -14   7   26.70    8.50
 -10  14   7   30.70   10.20
  10  14  -7   35.80   12.70
  -9 -14   7   24.80    9.30
   9  14  -7   12.50    9.50
  -9  14   7   30.80    8.80
  -8 -14   7  136.89   16.60
   8  14  -7  133.79   18.30
  -8  14   7  115.89   14.40
  -7 -14   7   11.10    7.00
   7  14  -7    5.60    8.20
  -7  14   7    6.40    5.80
  -6 -14   7    6.60    5.90
  -6  14   7   12.10    5.80
   6  14  -7    7.30    7.80
  -5 -14   7   97.69   13.20
   5  14  -7  103.09   19.10
  -5  14   7  120.79   12.00
  -5  14   7  129.39   14.60
  -4  14   7    2.90    3.70
   4  14  -7   -6.70    5.30
  -4  14   7    3.40    4.30
  -3  14   7  106.99   11.80
  -3  14   7  100.79   12.10
   3  14  -7   99.79   13.90
  -2  14   7   80.39   10.70
  -2  14   7   82.49   10.70
   2  14  -7   53.09   10.70
  -1  14   7   10.90    4.60
   1  14  -7    6.20    5.50
  -1  14   7    8.10    5.00
   0  14   7    2.10    4.20
   0  14  -7    3.20    6.60
   0  14   7    5.60    4.80
   1  14   7    5.10    4.50
  -1  14  -7    1.50    5.40
   1  14   7    5.10    5.20
   2  14   7   -0.20    4.20
  -2  14  -7    1.30    4.70
   2  14   7   -0.80    4.50
   3  14   7   14.20    6.00
  -3  14  -7   15.60    6.80
  -4  14  -7  737.13   33.20
   4  14   7  674.53   31.20
   5  14   7   73.89   12.20
  -5  14  -7   71.19   12.90
   6  14   7   13.20    7.30
  -6  14  -7   20.80    8.80
  -7  14  -7   12.80    7.90
   7  14   7   19.60    9.20
   8  14   7   36.80   10.80
  -8  14  -7   28.20   10.10
  -9 -15   7  100.39   16.40
   9  15  -7  103.19   18.30
  -9  15   7   89.99   14.00
  -8 -15   7   20.50    8.50
   8  15  -7   24.40    9.60
  -8  15   7   21.00    8.00
  -7 -15   7   38.20    9.70
   7  15  -7   22.20   10.80
  -7  15   7   14.70    6.60
  -6 -15   7   25.90    8.60
   6  15  -7   16.40    8.70
  -6  15   7   20.10    7.20
  -5  15   7    3.20    5.30
  -5  15   7    6.70    5.50
   5  15  -7   -4.50    6.40
   4  15  -7  134.09   17.10
  -4  15   7  130.19   14.70
  -4  15   7  148.09   14.20
  -3  15   7   21.40    6.70
   3  15  -7   23.90    8.10
  -3  15   7   12.40    5.80
   2  15  -7   50.49   11.40
  -2  15   7   48.70    9.10
  -2  15   7   52.89    9.40
  -1  15   7   21.20    7.20
   1  15  -7   14.70    8.50
  -1  15   7   17.00    6.30
   0  15   7   98.69   11.80
   0  15  -7   97.59   14.30
   0  15   7   99.59   12.60
   1  15   7   10.20    5.90
  -1  15  -7   -0.90    5.80
   1  15   7    9.50    5.50
  -2  15  -7   62.19   11.90
   2  15   7   43.40    9.60
   3  15   7   98.09   13.50
  -3  15  -7  113.89   14.80
  -4  15  -7  208.78   20.40
   4  15   7  250.27   21.80
   5  15   7   -1.70    6.70
  -5  15  -7   -1.10    7.00
   6  15   7    9.50    6.60
  -6  15  -7   -1.70    6.40
   7  15   7   25.50    9.30
  -7  15  -7   16.90    9.00
  -8 -16   7   78.19   14.10
   8  16  -7   45.80   12.70
  -8  16   7   38.70   10.50
  -7 -16   7   25.00    8.90
  -7  16   7   13.30    7.70
   7  16  -7   33.00   12.20
  -6  16   7    8.60    6.60
   6  16  -7    1.30    8.20
  -5  16   7    3.80    6.30
  -5  16   7    4.50    5.50
   5  16  -7   -2.70    7.30
   4  16  -7   52.69   12.70
  -4  16   7   55.69   10.40
  -4  16   7   50.89    9.70
  -3  16   7   37.00    8.40
   3  16  -7   20.10    9.30
  -3  16   7   41.40    9.20
  -2  16   7   26.10    7.80
  -2  16   7   35.50    8.90
   2  16  -7   45.10   10.80
  -1  16   7  109.39   13.90
  -1  16   7  101.09   12.40
   1  16  -7   90.89   14.60
   0  16  -7   15.40    8.20
   0  16   7   34.30    7.70
   0  16   7   17.80    6.90
   1  16   7   31.20    8.50
  -1  16  -7   34.70   10.50
   1  16   7   19.70    6.60
  -2  16  -7  175.18   19.60
   2  16   7  180.38   17.90
  -3  16  -7   18.00    9.00
   3  16   7    5.40    6.80
   4  16   7   28.40    9.20
  -4  16  -7   20.40    9.70
   5  16   7   57.19   11.60
  -5  16  -7   62.99   12.90
   6  16   7  182.08   19.90
  -6  16  -7  193.18   21.20
   6  17  -7   -3.00   10.20
  -6  17   7   -1.20    6.00
   5  17  -7    9.50    8.00
  -5  17   7    4.70    5.70
  -4  17   7  261.17   19.40
   4  17  -7  226.78   23.30
  -4  17   7  285.47   18.80
   3  17  -7  120.49   17.70
  -3  17   7  119.69   14.60
  -3  17   7  100.89   13.60
  -2  17   7    4.30    6.00
  -2  17   7    4.90    5.90
   2  17  -7    3.10    7.10
  -1  17   7    0.20    5.40
   1  17  -7   -1.00    7.70
  -1  17   7    2.00    5.40
   0  17   7    5.80    6.00
   0  17   7   -1.70    5.50
   0  17  -7    7.50    7.70
   1  17   7    7.50    7.00
  -1  17  -7    6.10    7.00
   2  17   7   -3.30    5.60
  -2  17  -7    0.60    7.30
  -3  17  -7   27.60   10.30
   3  17   7   14.90    7.50
   4  17   7   -4.70    6.20
  -4  17  -7    3.70    7.40
  -4  18   7    1.00    6.90
  -4  18   7    7.90    7.00
   4  18  -7    4.80    8.80
  -3  18   7  101.59   14.60
  -3  18   7  118.79   15.40
   3  18  -7   95.49   17.40
  -2  18   7   -2.90    6.00
   2  18  -7   -3.80    8.50
  -2  18   7   -6.00    5.80
  -1  18   7   12.90    7.30
   1  18  -7   12.80    9.70
  -1  18   7   21.80    8.90
   0  18  -7   20.20   10.30
   0  18   7   23.60    8.80
   0  18   7   16.80    7.20
   1  18   7    5.20    7.10
  -1  18  -7    7.20    9.10
  -2  18  -7   13.70    9.50
   2  18   7    5.00    7.50
 -14   0   8   33.00    8.60
 -13   0   8    7.20    5.00
 -12   0   8   38.00    7.10
 -12   0   8   40.80    7.80
 -11   0   8    7.90    4.20
 -11   0   8   15.10    5.70
 -10   0   8   41.50    7.30
 -10   0   8   46.40    7.40
  -9   0   8    6.10    3.60
  -9   0   8    9.10    3.60
  -8   0   8    6.80    3.50
  -7   0   8   -0.60    2.10
  -6   0   8    1.20    2.30
   5   0  -8   -0.30    1.30
  -5   0   8    4.70    2.80
  -4   0   8  936.51   29.10
   4   0  -8  967.60   24.20
  -3   0   8   -0.30    1.90
  -2   0   8  430.06   16.30
  -2   0   8  448.56   13.60
  -1   0   8    3.80    1.60
  -1   0   8    2.20    1.90
   0   0   8   90.69    6.50
   0   0   8   79.79    5.30
   1   0   8    0.40    1.50
   1   0   8   -1.60    1.50
   2   0   8  413.46   15.70
   2   0   8  416.86   15.30
   3   0   8    0.10    1.70
   3   0   8    4.00    2.40
   4   0   8   65.89    7.30
  -4   0  -8   69.79    4.50
   5   0   8    2.90    2.40
   5   0   8    2.50    2.60
  -5   0  -8    1.10    1.60
   6   0   8   23.30    4.80
   6   0   8   17.00    4.30
  -6   0  -8   25.50    4.00
   7   0   8    2.50    3.60
  -7   0  -8    1.20    2.50
   8   0   8  184.38   12.90
   9   0   8   -0.60    3.80
  10   0   8 1208.98   42.20
  11   0   8    1.10    4.70
  12   0   8  148.59   16.70
 -14  -1   8   23.80    7.50
 -14   1   8   27.00    8.10
 -13  -1   8   45.40    9.30
 -13   1   8   49.70    8.80
 -12  -1   8   48.20    8.90
 -12   1   8   61.39    8.90
 -12   1   8   53.49    9.10
 -11  -1   8  372.86   16.90
 -11  -1   8  364.66   20.40
 -11   1   8  353.26   17.70
 -11   1   8  332.87   18.30
 -10  -1   8   32.90    5.90
 -10  -1   8   34.20    6.60
 -10   1   8   27.00    5.60
 -10   1   8   28.80    6.20
  -9  -1   8  210.58   12.80
  -9  -1   8  202.88   11.70
  -9   1   8  196.58   12.30
  -8  -1   8    7.70    3.20
  -8  -1   8    5.90    3.20
   8   1  -8   10.20    2.70
  -8   1   8   16.10    4.60
  -7  -1   8  168.78   10.10
  -7  -1   8  178.78   10.40
   7   1  -8  163.38    6.00
  -7   1   8  153.78   10.40
  -6  -1   8  300.57   13.60
  -6  -1   8  296.67   13.20
  -6   1   8  307.77   14.50
   6   1  -8  281.77    9.70
  -5  -1   8 1207.28   33.90
  -5  -1   8 1194.38   34.90
  -5   1   8 1251.87   36.40
   5   1  -8 1232.68   30.60
  -4  -1   8 1475.55   39.80
   4  -1  -8 1366.76   33.70
  -4   1   8 1456.55   40.70
   4   1  -8 1498.55   36.10
  -3  -1   8  162.78    9.10
   3   1  -8  169.58    7.70
  -3   1   8  166.98    6.30
  -3   1   8  173.18   10.00
  -2  -1   8   82.79    6.40
  -2  -1   8   84.39    5.20
  -2   1   8   77.49    4.30
  -2   1   8   85.79    8.00
  -1  -1   8   25.10    3.40
  -1  -1   8   25.90    4.20
  -1   1   8   22.20    2.90
  -1   1   8   29.90    4.90
   0  -1   8  447.06   15.10
   0  -1   8  473.05   16.70
   0  -1   8  450.65   11.30
   0   1   8  452.65   16.50
   0   1   8  445.46   14.60
   1  -1   8  282.87   12.50
   1  -1   8  296.87   11.80
   1   1   8  300.17   11.70
   1   1   8  304.07   12.60
   2  -1   8   24.20    4.40
   2  -1   8   20.10    3.80
   2   1   8   19.50    3.80
   2   1   8   19.30    3.80
   3  -1   8  111.79    8.00
   3  -1   8  116.29    7.80
   3   1   8  117.79    7.90
  -4  -1  -8  214.38    8.90
   4  -1   8  221.08   11.50
   4  -1   8  204.38   11.20
   4   1   8  220.78   11.60
  -4   1  -8  225.78    7.60
   4   1   8  227.88   11.30
  -5  -1  -8   64.69    5.80
   5  -1   8   55.39    7.10
  -5   1  -8   57.19    4.10
   5   1   8   71.49    7.80
   5   1   8   62.99    7.80
  -6  -1  -8   56.99    5.90
   6  -1   8   49.40    6.60
   6  -1   8   48.20    7.10
   6   1   8   44.60    6.10
  -6   1  -8   50.89    4.90
   6   1   8   57.79    7.90
  -7  -1  -8   35.40    5.10
   7  -1   8   31.30    6.20
   7   1   8   41.90    7.30
   7   1   8   44.00    5.90
  -7   1  -8   35.50    5.10
   8  -1   8   10.70    4.60
  -8  -1  -8   20.90    5.00
   8   1   8   19.00    5.60
   9  -1   8  172.68   13.10
   9   1   8  199.98   17.20
  10  -1   8   10.20    5.80
  10   1   8   24.50    7.10
  11  -1   8   23.90    7.10
  11   1   8   20.70    6.90
  12  -1   8    2.70    5.70
  12   1   8    6.10    6.70
 -14  -2   8   -2.10    4.30
 -14   2   8    5.40    5.40
 -13  -2   8    6.60    4.20
 -13   2   8    6.60    4.60
 -13   2   8    7.00    5.40
 -12  -2   8    3.40    4.30
 -12   2   8    6.00    4.40
 -12   2   8    0.80    3.40
 -11  -2   8  105.39   10.00
 -11  -2   8  103.59   11.90
 -11   2   8  128.69   12.80
 -10  -2   8  111.49   11.40
 -10  -2   8  123.09    8.90
 -10   2   8  103.89   11.50
  -9  -2   8   34.20    5.60
  -9  -2   8   31.90    6.20
  -9   2   8   24.30    5.90
  -8  -2   8   29.70    5.70
  -8  -2   8   31.10    5.40
   8   2  -8   40.20    4.10
  -8   2   8   31.90    5.80
  -7  -2   8   67.49    7.60
  -7  -2   8   70.49    7.60
  -7   2   8   62.49    8.20
   7   2  -8   65.39    5.00
  -6  -2   8   56.19    6.30
  -6  -2   8   54.89    6.30
  -6   2   8   47.90    6.80
   6   2  -8   48.60    5.00
  -5  -2   8 2039.80   52.89
  -5  -2   8 2098.69   52.49
  -5   2   8 1988.90   54.79
   5   2  -8 2055.89   49.90
  -4  -2   8  167.78    9.20
  -4  -2   8  167.38    8.40
  -4   2   8  165.18   10.40
   4   2  -8  166.48    8.00
  -3  -2   8   50.09    5.00
  -3  -2   8   41.90    5.40
  -3   2   8   45.80    2.90
  -3   2   8   59.89    7.40
   3   2  -8   43.90    5.00
  -2  -2   8  178.48    9.30
  -2  -2   8  182.88    7.20
  -2   2   8  171.68   10.10
   2   2  -8  171.98    8.70
  -2   2   8  173.28    6.70
  -1  -2   8  912.21   27.30
  -1  -2   8  902.01   22.70
  -1  -2   8  915.41   26.10
  -1   2   8  962.70   28.50
  -1   2   8  916.51   24.50
   0  -2   8   29.70    4.20
   0  -2   8   31.20    2.00
   0  -2   8   29.30    4.60
   0   2   8   28.10    4.50
   0   2   8   28.50    3.90
   1  -2   8    1.00    1.80
   1  -2   8    4.40    2.20
   1   2   8   10.90    3.00
   1   2   8    2.70    1.80
   2  -2   8  484.65   17.30
   2  -2   8  452.05   17.60
   2   2   8  502.75   17.30
   2   2   8  461.65   16.80
   3  -2   8   94.09    8.60
   3  -2   8   72.89    7.30
   3   2   8   75.69    7.50
   3   2   8   96.39    6.80
   4  -2   8   74.39    7.80
   4  -2   8   72.59    7.70
   4   2   8   71.59    7.90
   4   2   8   67.19    7.20
  -4   2  -8   66.79    3.30
   5  -2   8    2.10    2.60
   5  -2   8   -0.40    2.10
  -5  -2  -8    3.00    2.40
   5   2   8    2.10    3.00
   5   2   8    3.50    2.60
  -5   2  -8    5.90    1.70
   6  -2   8   81.89    9.30
  -6  -2  -8   97.89    7.20
   6   2   8   90.19    8.20
  -6   2  -8   80.99    5.30
   6   2   8   94.19   10.10
   7  -2   8    4.30    3.30
  -7  -2  -8    5.60    3.30
   7   2   8   -1.40    2.70
   7   2   8    1.60    2.40
   8  -2   8  343.77   17.90
  -8  -2  -8  338.67   15.60
   8   2   8  302.47   17.30
   9  -2   8   35.20    7.70
   9   2   8   24.90    7.20
  10  -2   8  205.28   18.10
  10   2   8  192.08   14.70
  11  -2   8   18.70    6.60
  11   2   8    4.90    6.30
  12  -2   8   34.40    8.90
  12   2   8   56.59   11.50
 -14  -3   8   -1.90    4.40
 -14   3   8    1.70    5.40
 -13  -3   8    2.20    4.40
 -13   3   8    9.40    5.90
 -13   3   8    4.90    5.00
 -12  -3   8  146.59   15.20
 -12   3   8  154.68   15.00
 -11  -3   8   10.90    4.90
 -11  -3   8    0.70    4.60
 -11   3   8    7.50    4.80
 -10  -3   8    7.90    4.10
 -10  -3   8   11.60    3.80
 -10   3   8   11.10    5.20
  -9  -3   8  153.08    9.50
  -9  -3   8  147.79   11.00
  -9   3   8  133.69   12.70
  -8  -3   8  236.88   13.30
  -8  -3   8  267.47   12.50
  -8   3   8  269.27   15.00
   8   3  -8  243.88   11.10
  -7  -3   8   49.70    6.10
  -7  -3   8   58.59    7.30
  -7   3   8   51.79    7.70
   7   3  -8   47.70    5.80
  -6  -3   8  171.88    9.90
  -6  -3   8  157.58    9.20
   6   3  -8  171.78    9.30
  -6   3   8  175.38   11.30
  -5  -3   8   63.79    6.60
  -5  -3   8   65.19    6.60
   5   3  -8   63.89    6.10
  -5   3   8   51.29    7.40
  -4  -3   8  411.26   15.40
  -4  -3   8  366.66   14.10
  -4   3   8  400.06   10.10
  -4   3   8  382.36   16.90
   4   3  -8  429.06   14.90
  -3  -3   8  162.18    7.70
  -3  -3   8  166.58    9.10
   3   3  -8  164.38    9.10
  -3   3   8  157.68   10.20
  -3   3   8  173.38    6.10
  -2  -3   8  267.07   11.80
  -2  -3   8  269.07    9.50
  -2   3   8  254.87    9.10
  -2   3   8  253.77   13.00
  -1  -3   8   78.59    7.30
  -1  -3   8   75.09    4.10
  -1   3   8   69.29    4.70
  -1   3   8   80.19    8.00
   1   3  -8   70.19    6.60
   0  -3   8  450.05   16.80
   0  -3   8  430.36   12.30
   0  -3   8  428.96   15.90
   0   3   8  452.35   15.00
   0   3   8  446.36   17.00
   1  -3   8  214.18   10.50
   1  -3   8  221.18   11.10
   1   3   8  204.48    9.80
   1   3   8  229.48   10.90
   2  -3   8 1694.33   46.30
   2  -3   8 1698.23   45.40
   2   3   8 1697.93   45.00
   3  -3   8 1102.29   32.80
   3  -3   8 1119.19   33.20
   3   3   8 1108.19   32.90
   3   3   8 1071.49   31.20
   4  -3   8   24.60    5.10
   4  -3   8   18.90    4.40
   4   3   8   17.40    3.80
   4   3   8   19.50    4.30
  -4   3  -8   17.90    1.90
  -5  -3  -8  606.64   20.30
   5  -3   8  568.54   21.40
   5  -3   8  563.64   21.90
   5   3   8  570.14   19.90
   5   3   8  603.94   22.60
  -5   3  -8  544.45   15.70
   6  -3   8    8.50    3.80
  -6  -3  -8    6.60    3.40
  -6   3  -8    8.80    3.00
   6   3   8    6.40    4.10
   6   3   8    7.20    2.70
   7  -3   8   23.40    5.30
  -7  -3  -8   18.40    4.80
   7   3   8   19.80    4.90
   7   3   8   18.40    4.90
   8  -3   8   39.30    7.90
  -8  -3  -8   45.40    7.00
   8   3   8   38.40    7.80
  -9  -3  -8   15.00    7.80
   9  -3   8   30.50    7.30
   9   3   8   19.20    6.10
  10  -3   8   20.90    6.60
  10   3   8    9.10    4.80
  11  -3   8   64.39   11.00
  11   3   8   49.50   10.10
 -14  -4   8   13.60    6.70
 -14   4   8   19.70    8.20
 -14   4   8   18.20    7.00
 -13  -4   8  208.88   16.30
 -13   4   8  206.98   18.90
 -12  -4   8   41.80    8.60
 -12   4   8   40.50    8.60
 -11  -4   8  233.18   15.60
 -11   4   8  224.68   15.90
 -10  -4   8  292.47   16.70
 -10  -4   8  296.57   13.60
 -10   4   8  299.17   17.50
  -9  -4   8   53.79    6.60
  -9  -4   8   43.70    7.40
  -9   4   8   49.80    8.20
   9   4  -8   55.09    6.70
  -8  -4   8  460.65   19.70
  -8  -4   8  444.16   17.00
   8   4  -8  451.85   17.90
  -8   4   8  437.66   20.60
  -7  -4   8 1409.36   40.60
  -7  -4   8 1386.96   38.10
  -7   4   8 1391.66   42.70
   7   4  -8 1301.87   38.90
  -6  -4   8   20.20    4.50
  -6  -4   8   20.10    4.00
   6   4  -8   14.60    4.10
  -6   4   8   22.00    5.30
  -5  -4   8   27.80    4.60
  -5  -4   8   14.10    3.40
  -5   4   8   19.30    5.10
   5   4  -8   19.00    4.00
  -4  -4   8   60.29    6.10
  -4  -4   8   65.09    6.60
   4   4  -8   66.59    6.90
  -4   4   8   69.09    3.30
  -4   4   8   53.99    7.20
  -3  -4   8  220.68   10.70
  -3  -4   8  224.48    9.60
  -3   4   8  217.58    7.70
  -3   4   8  197.48   11.70
   3   4  -8  196.08   10.70
  -2  -4   8  192.38   10.00
  -2  -4   8  191.18    8.20
   2   4  -8  206.08   10.70
  -2   4   8  200.38    8.00
  -2   4   8  173.98   10.60
  -1  -4   8   10.70    3.10
  -1  -4   8    9.20    2.20
  -1   4   8   10.50    2.50
   1   4  -8   16.90    3.70
  -1   4   8    2.90    2.80
   0  -4   8  303.77   13.60
   0  -4   8  316.57   13.80
   0   4   8  309.87   12.20
   0   4  -8  321.77   13.90
   0   4   8  297.97   13.90
   1  -4   8  629.44   22.30
   1  -4   8  647.74   22.00
   1   4   8  666.73   22.00
   1   4   8  632.94   20.90
   2  -4   8  918.31   28.80
   2  -4   8  855.41   28.00
   2   4   8  916.21   27.30
   2   4   8  925.81   28.20
   3  -4   8  499.65   19.40
   3  -4   8  514.05   19.70
   3   4   8  550.94   20.10
   3   4   8  508.15   17.90
   4  -4   8   25.80    5.20
   4  -4   8   27.80    5.30
   4   4   8   27.60    4.40
   4   4   8   29.50    5.30
  -4   4  -8   30.70    2.70
  -5  -4  -8   33.00    5.40
   5  -4   8   14.90    4.00
   5  -4   8   29.20    5.50
   5   4   8   25.20    4.50
   5   4   8   24.10    5.60
  -5   4  -8   21.40    2.70
  -6  -4  -8    0.00    3.00
   6  -4   8   -0.10    2.70
   6   4   8    3.00    2.70
   6   4   8    1.80    3.00
  -7  -4  -8  426.66   18.70
   7  -4   8  424.56   20.00
   7   4   8  404.16   20.00
   8  -4   8   87.79   11.40
  -8  -4  -8   76.39    9.30
   8   4   8   61.79    9.90
   9  -4   8   35.00    7.60
  -9  -4  -8   63.59    9.30
   9   4   8   48.20    8.90
  10  -4   8    2.60    4.20
  10   4   8   -7.30    3.70
  11  -4   8    2.50    5.40
  11   4   8    5.30    6.20
 -14  -5   8  172.78   18.80
 -14   5   8  220.18   20.50
 -13  -5   8  174.98   17.90
 -13   5   8  216.78   19.90
 -12  -5   8  421.06   23.20
 -12   5   8  471.55   24.40
 -11  -5   8    2.10    4.00
 -11   5   8   -1.00    4.00
 -10  -5   8   54.99    9.10
 -10  -5   8   52.79    7.20
 -10   5   8   54.89    9.50
  -9  -5   8   41.40    5.80
  -9  -5   8   45.90    7.50
   9   5  -8   41.70    7.00
  -9   5   8   36.60    7.50
  -8  -5   8  168.78   11.70
  -8  -5   8  162.78    9.40
  -8   5   8  168.48   12.50
   8   5  -8  150.98   11.50
  -7  -5   8  465.55   17.20
  -7  -5   8  438.86   18.90
  -7   5   8  453.25   20.90
   7   5  -8  445.96   19.00
  -6  -5   8  106.59    7.50
  -6  -5   8  116.19    8.60
   6   5  -8  132.69    9.70
  -6   5   8  111.19   11.50
  -5  -5   8   42.90    5.80
  -5  -5   8   39.20    5.70
  -5   5   8   35.50    2.40
   5   5  -8   42.10    5.80
  -5   5   8   28.60    5.70
  -4  -5   8   21.40    4.00
  -4  -5   8   25.60    4.10
   4   5  -8   12.80    3.80
  -4   5   8   22.00    2.60
  -4   5   8   27.00    6.00
  -3  -5   8  113.59    7.70
  -3  -5   8  130.19    7.30
  -3   5   8  111.49    5.70
  -3   5   8  102.69   10.10
  -2  -5   8  392.76   15.90
  -2  -5   8  404.46   14.20
  -2   5   8  412.26   13.70
   2   5  -8  455.05   17.60
  -2   5   8  372.86   16.90
  -1  -5   8  292.27   11.50
  -1  -5   8  289.17   13.30
   1   5  -8  299.37   14.10
  -1   5   8  295.67   14.20
  -1   5   8  267.07   11.30
   0  -5   8  375.26   15.80
   0   5   8  383.56   14.40
   0   5  -8  376.56   16.20
   0   5   8  356.26   15.90
   1  -5   8   82.09    8.60
   1  -5   8   84.39    8.20
   1   5   8   62.49    7.30
   1   5   8   74.49    7.10
  -1   5  -8   69.69    7.70
   2  -5   8  600.24   21.60
   2  -5   8  559.34   21.30
   2   5   8  605.14   20.60
   2   5   8  571.14   20.80
   3  -5   8    7.70    3.10
   3  -5   8    5.50    3.00
   3   5   8   13.40    3.40
   3   5   8    9.00    3.50
   4  -5   8    8.00    3.00
   4  -5   8    6.50    3.40
   4   5   8    4.40    3.40
   4   5   8    5.80    2.70
   5  -5   8  370.26   17.40
   5   5   8  373.76   14.50
   5   5   8  372.46   17.90
  -6  -5  -8  169.38   11.30
   6  -5   8  154.18   11.60
   6   5   8  162.58   12.20
   6   5   8  172.48   11.90
   7  -5   8  553.34   23.90
  -7  -5  -8  576.04   23.40
   7   5   8  544.55   24.40
   8  -5   8   44.00    8.60
  -8  -5  -8   50.59    8.40
   8   5   8   34.20    8.30
  -9  -5  -8  151.18   14.40
   9  -5   8  167.38   16.10
   9   5   8  153.78   15.50
  10  -5   8   42.20    8.40
  10   5   8   42.20    9.50
  11  -5   8   58.99   11.20
  11   5   8   47.10   10.00
 -13  -6   8   10.50    6.20
 -13   6   8   23.40    8.20
 -12  -6   8   42.40    9.40
 -12   6   8   58.49   10.90
 -11  -6   8   12.40    5.50
 -11   6   8   29.50    7.60
 -10  -6   8  236.58   15.80
 -10   6   8  246.68   16.70
  10   6  -8  273.87   18.80
  -9  -6   8    2.30    2.70
  -9  -6   8    7.50    4.50
   9   6  -8   -0.10    4.60
  -9   6   8    2.80    4.00
  -8  -6   8   11.40    4.20
  -8  -6   8   11.30    3.30
  -8   6   8   10.20    5.20
   8   6  -8    3.10    4.00
  -7  -6   8   22.10    4.30
  -7  -6   8   23.80    5.20
  -7   6   8   24.10    6.10
   7   6  -8   20.30    5.50
  -6  -6   8  124.09    8.30
  -6  -6   8  130.99    9.20
   6   6  -8  126.79   11.10
  -6   6   8  109.49    4.90
  -6   6   8  106.49   10.90
  -5  -6   8  636.04   21.80
  -5  -6   8  648.54   22.50
  -5   6   8  662.33   25.50
  -5   6   8  633.44   17.40
   5   6  -8  682.03   23.90
  -4  -6   8    5.30    2.40
  -4  -6   8    5.80    2.80
  -4   6   8    0.10    2.80
  -4   6   8    0.00    1.40
   4   6  -8    0.10    2.30
  -3  -6   8    4.60    2.60
  -3  -6   8    1.60    1.80
  -3   6   8    5.60    2.20
   3   6  -8    7.40    3.60
  -3   6   8    9.70    3.80
  -2  -6   8   77.79    6.00
  -2  -6   8   65.39    7.10
  -2   6   8   64.99    8.20
  -2   6   8   63.09    5.80
   2   6  -8   79.59    8.50
  -1  -6   8  258.47   12.90
  -1  -6   8  275.07   12.00
  -1   6   8  273.87   13.80
  -1   6   8  244.58   11.20
   1   6  -8  288.17   14.30
   0  -6   8   18.30    4.10
   0   6  -8   20.30    4.50
   0   6   8   11.40    3.90
   0   6   8   34.70    5.10
   1  -6   8  582.04   21.60
  -1   6  -8  617.64   23.10
   1   6   8  596.34   21.30
   2  -6   8    2.80    2.70
   2   6   8    5.10    2.60
  -2   6  -8    0.00    3.40
   2   6   8    1.90    2.30
   3  -6   8    8.00    3.10
   3  -6   8    8.10    3.80
   3   6   8    6.80    3.00
   3   6   8    7.60    3.50
   4  -6   8  519.45   21.40
   4  -6   8  519.85   20.80
   4   6   8  515.35   18.00
   4   6   8  504.65   21.40
   5  -6   8   46.80    7.30
   5   6   8   60.39    6.40
   5   6   8   59.79    8.70
   6  -6   8   15.90    5.10
  -6  -6  -8    9.60    4.20
   6   6   8   -0.30    3.40
  -7  -6  -8  344.47   17.90
   7  -6   8  345.17   18.60
   7   6   8  296.17   18.20
  -8  -6  -8  348.07   18.90
   8  -6   8  326.17   18.70
   8   6   8  341.57   19.90
   9  -6   8  204.18   15.20
  -9  -6  -8  211.78   15.50
   9   6   8  214.18   20.00
  10  -6   8   16.90    6.80
 -10  -6  -8   26.60   10.60
  10   6   8   18.30    7.80
  11  -6   8    9.90    5.50
  11   6   8   15.70    8.00
 -13  -7   8   51.69   10.60
 -13   7   8   59.89   11.80
 -12  -7   8   13.00    6.10
 -12   7   8    4.20    6.10
 -11  -7   8   14.90    5.70
 -11   7   8   24.00    7.80
 -10  -7   8   32.00    7.60
 -10   7   8   32.70    7.80
  10   7  -8   36.70    7.90
  -9  -7   8  260.47   15.80
  -9  -7   8  251.47   12.30
  -9   7   8  257.07   16.80
   9   7  -8  221.18   15.80
  -8  -7   8    3.90    3.70
  -8  -7   8    1.50    2.30
  -8   7   8    1.70    4.10
   8   7  -8    2.70    4.70
  -7  -7   8   24.00    5.40
  -7  -7   8   31.10    5.10
   7   7  -8   15.40    5.70
  -7   7   8   30.40    7.10
  -6  -7   8  281.57   14.40
  -6  -7   8  276.27   12.90
  -6   7   8  296.97   16.40
   6   7  -8  271.47   14.90
  -6   7   8  250.77    9.90
  -5  -7   8  216.08   12.00
  -5  -7   8  212.48   11.10
   5   7  -8  132.99   12.00
  -5   7   8  222.08   13.90
  -5   7   8  218.08    8.60
  -4  -7   8  115.69    8.30
  -4  -7   8  113.59    8.20
   4   7  -8  110.99   10.30
  -4   7   8  126.29    6.80
  -4   7   8  120.49   11.70
  -3  -7   8    0.30    2.20
  -3  -7   8   -0.20    1.90
   3   7  -8    2.60    3.00
  -3   7   8    0.90    2.80
  -3   7   8    1.10    1.90
  -2  -7   8  522.55   19.40
  -2  -7   8  549.05   20.10
   2   7  -8  537.15   21.90
  -2   7   8  511.75   21.20
  -2   7   8  520.45   17.90
  -1  -7   8  116.09    8.50
  -1  -7   8  135.89    9.00
   1   7  -8  128.79   11.40
  -1   7   8  127.09    9.60
  -1   7   8  128.09    8.00
   0  -7   8 1741.63   49.30
   0   7   8 1777.42   49.99
   0   7   8 1875.51   48.90
   0   7  -8 1890.91   52.29
   1  -7   8  610.34   22.60
  -1   7  -8  622.64   24.20
   1   7   8  639.74   22.80
   2  -7   8  116.99    9.20
  -2   7  -8  119.39   11.40
   2   7   8  112.79   10.50
   2   7   8  125.59    9.10
   3  -7   8  456.05   19.00
  -3   7  -8  439.06   20.20
   3   7   8  400.06   16.50
   3   7   8  439.56   19.50
   4  -7   8   27.50    6.00
   4   7   8   40.20    6.90
   4   7   8   30.00    4.80
   5  -7   8   83.99   10.10
   5   7   8   83.29   10.30
   5   7   8   90.09    7.90
   6  -7   8    4.60    4.40
   6   7   8    7.80    4.30
  -7  -7  -8    9.80    5.00
   7  -7   8   15.80    5.80
   7   7   8    6.80    5.30
   8  -7   8    1.00    3.40
  -8  -7  -8    9.20    5.20
   8   7   8   11.40    6.20
  -9  -7  -8   18.60    7.10
   9  -7   8   11.50    5.70
   9   7   8   13.80    7.10
 -10  -7  -8    0.50    5.70
  10  -7   8    2.10    5.50
  10   7   8   -0.50    5.70
  11  -7   8   10.80    6.70
  11   7   8   14.90    8.30
 -13  -8   8   11.90    6.70
 -13   8   8    3.80    6.50
 -12  -8   8   19.50    6.80
 -12   8   8   14.10    7.50
 -11  -8   8   -4.50    3.10
 -11   8   8   -6.10    3.50
 -10  -8   8    3.50    4.00
 -10   8   8    7.40    5.50
  10   8  -8   24.60    7.80
  -9  -8   8    7.20    4.60
   9   8  -8    8.50    6.20
  -9   8   8    2.60    4.50
  -8  -8   8  265.87   12.90
  -8  -8   8  278.07   16.20
   8   8  -8  255.17   17.20
  -8   8   8  253.87   16.50
  -7  -8   8   65.19    8.40
  -7  -8   8   63.19    7.30
  -7   8   8   70.09    9.70
  -6  -8   8  143.59   10.60
  -6  -8   8  139.99    9.30
  -6   8   8  156.78   10.80
   6   8  -8  168.38   14.20
  -6   8   8  142.39   13.40
  -5  -8   8   97.09    9.20
  -5  -8   8   82.29    9.40
  -5   8   8   78.69    6.00
   5   8  -8   96.29   10.70
  -5   8   8   71.79    9.40
  -4  -8   8   59.79    7.50
  -4  -8   8   50.59    6.60
  -4   8   8   46.70    7.40
   4   8  -8   61.49    8.40
  -4   8   8   62.09    6.20
  -3  -8   8   11.20    3.60
   3   8  -8   14.20    5.20
  -3   8   8   12.60    3.40
  -3   8   8   10.70    4.00
  -2  -8   8    9.00    3.60
  -2  -8   8   15.20    4.00
  -2   8   8    8.30    3.20
   2   8  -8   18.70    5.70
  -2   8   8   13.60    4.40
  -1  -8   8   41.60    6.10
   1   8  -8   41.60    7.00
  -1   8   8   47.30    6.20
  -1   8   8   47.30    7.30
   0  -8   8  693.23   24.70
   0   8   8  704.13   24.40
   0   8   8  711.93   25.70
   0   8  -8  735.93   27.50
   1  -8   8  594.54   22.60
  -1   8  -8  591.24   24.30
   1   8   8  607.94   22.70
   2  -8   8   10.10    4.00
   2   8   8   12.00    4.40
   2   8   8    9.70    4.00
  -2   8  -8    7.80    3.90
  -3   8  -8   10.70    4.90
   3   8   8    7.20    3.20
   3   8   8    4.30    3.40
   4   8   8   12.60    4.70
   4   8   8   16.60    4.00
  -4   8  -8   16.00    5.70
   5   8   8  486.45   23.10
  -5   8  -8  529.35   24.30
   6  -8   8   13.50    5.40
   6   8   8   16.10    5.90
  -6   8  -8   16.00    6.10
   7  -8   8   25.10    7.20
   7   8   8   23.80    7.00
   8  -8   8   18.60    6.80
  -8  -8  -8   36.50    8.50
   8   8   8   33.50    8.70
  -9  -8  -8    7.20    6.00
   9  -8   8    3.50    4.90
   9   8   8    8.40    6.50
  10  -8   8   22.80    8.60
 -10  -8  -8   18.00    7.70
  10   8   8   22.20    8.20
 -12  -9   8   28.90    8.20
 -12   9   8   19.90    7.90
 -11  -9   8   32.20    8.20
 -11   9   8   33.00    8.40
 -10  -9   8   62.79   10.50
  10   9  -8   45.60    9.90
 -10   9   8   37.70    8.50
  -9  -9   8  101.19   12.10
  -9   9   8  102.49   12.90
   9   9  -8   95.59   13.00
  -8  -9   8   13.60    5.50
  -8  -9   8   19.20    4.30
  -8   9   8   16.00    5.90
   8   9  -8    2.00    3.90
  -7  -9   8    6.90    4.30
  -7  -9   8    5.90    3.10
  -7   9   8    5.20    4.10
   7   9  -8    5.50    5.20
  -6  -9   8  505.65   19.50
  -6  -9   8  513.85   22.20
  -6   9   8  540.55   23.90
   6   9  -8  499.75   23.30
  -5  -9   8   60.49    7.10
  -5  -9   8   93.79   10.20
   5   9  -8   77.09   10.40
  -5   9   8   65.49    6.50
  -5   9   8   68.29    9.30
  -4  -9   8   33.40    5.70
  -4  -9   8   42.00    7.00
  -4   9   8   30.30    6.50
   4   9  -8   29.90    6.90
  -4   9   8   28.90    4.80
  -3  -9   8  244.58   12.70
   3   9  -8  259.07   15.80
  -3   9   8  271.57   12.50
  -3   9   8  239.08   14.60
  -2  -9   8   80.39    8.40
  -2  -9   8   97.89   10.70
  -2   9   8   91.39    8.80
  -2   9   8  113.39   11.30
   2   9  -8   83.39   10.10
  -1  -9   8   88.49    9.30
  -1   9   8   69.89    8.80
  -1   9   8   85.49    8.70
   1   9  -8   90.29   10.90
   0  -9   8  126.49    9.50
   0   9   8  142.69   10.30
   0   9   8  144.59   10.20
   0   9  -8  135.49   12.90
   1  -9   8  250.27   13.70
  -1   9  -8  247.98   15.20
   1   9   8  249.78   13.80
   1   9   8  260.87   13.70
   2   9   8  124.69   11.90
   2   9   8  123.79    9.60
  -2   9  -8  107.09   11.40
  -3   9  -8   23.80    6.60
   3   9   8   31.90    7.00
   3   9   8   34.50    6.10
  -4   9  -8  143.39   13.90
   4   9   8  125.29    9.00
   4   9   8  134.69   13.10
  -5   9  -8  452.35   23.40
   5   9   8  485.95   23.70
  -6   9  -8   87.39   12.00
   6   9   8   85.49   11.50
   7   9   8   51.39    9.70
  -7   9  -8   53.99   10.20
   8   9   8   48.40   10.10
  -8   9  -8   80.99   12.60
  -9  -9  -8   18.50    7.50
  -9   9  -8    6.10    7.10
   9   9   8   11.30    8.10
 -10  -9  -8   50.19   11.20
 -10   9  -8   68.79   13.80
  10   9   8   70.09   12.80
 -12 -10   8   13.60    7.40
 -12  10   8   10.30    7.00
 -11 -10   8   24.20    7.90
 -11  10   8   17.50    8.10
  11  10  -8   13.10    8.60
 -10 -10   8  406.36   22.60
  10  10  -8  277.47   21.60
 -10  10   8  425.16   23.60
  -9 -10   8   77.89   11.80
  -9  10   8   82.19   12.00
   9  10  -8   49.00   10.30
  -8 -10   8    2.40    4.10
  -8  10   8   -1.00    3.50
   8  10  -8   -1.30    4.50
  -7 -10   8  355.66   19.20
  -7 -10   8  355.66   15.50
  -7  10   8  336.87   19.60
   7  10  -8  352.86   21.00
  -6 -10   8  106.89    9.50
  -6 -10   8   99.99   11.50
   6  10  -8   93.49   11.80
  -6  10   8   99.79   12.10
  -5 -10   8  104.09   11.30
  -5 -10   8   86.69    8.60
   5  10  -8   81.59   10.80
  -5  10   8  103.19   11.70
  -5  10   8  103.99    7.80
  -4 -10   8  111.59    8.70
  -4 -10   8  101.29   11.20
  -4  10   8   98.39   11.30
   4  10  -8   97.49   11.70
  -4  10   8  110.99    8.20
  -3 -10   8    9.00    3.80
  -3 -10   8   12.40    4.50
  -3  10   8   15.10    5.00
  -3  10   8   22.30    4.80
   3  10  -8   18.40    6.00
  -2 -10   8   43.30    6.40
   2  10  -8   33.20    7.20
  -2  10   8   45.30    6.60
  -2  10   8   48.90    7.90
  -1 -10   8   18.10    4.30
  -1  10   8   21.10    5.50
  -1  10   8   20.80    5.00
   1  10  -8   24.20    6.80
   0 -10   8  220.68   12.80
   0  10  -8  216.78   15.10
   0  10   8  227.98   13.10
   0  10   8  242.88   14.10
   1  10   8   93.59   10.40
  -1  10  -8   91.99   11.00
   1  10   8  104.59   10.70
  -2  10  -8   83.99   10.90
   2  10   8  109.69   10.20
   2  10   8  110.09   11.40
   3  10   8   24.90    6.00
   3  10   8   22.40    5.50
  -3  10  -8   14.70    5.40
   4  10   8  513.95   24.10
  -4  10  -8  498.35   24.50
  -5  10  -8   77.49   11.10
   5  10   8  116.99   13.40
   6  10   8   24.20    7.90
  -6  10  -8   41.20    9.60
  -7  10  -8   39.50   10.00
   7  10   8   40.60    9.30
   8  10   8   17.70    7.30
  -8  10  -8   18.10    8.10
  -9  10  -8  143.09   17.40
   9  10   8  115.09   15.50
 -10 -10  -8    9.30    7.00
  10  10   8    8.30    8.10
 -10  10  -8   -7.60    7.40
 -11 -11   8   19.70    7.60
  11  11  -8   -6.50    6.40
 -11  11   8   10.30    6.90
 -10 -11   8   92.19   13.50
 -10  11   8   64.09   11.50
  10  11  -8   99.59   15.70
  -9 -11   8  101.39   13.70
   9  11  -8   89.09   14.10
  -9  11   8  101.89   13.10
  -8 -11   8   -1.40    8.60
  -8  11   8    7.50    4.70
   8  11  -8    8.50    6.50
  -7 -11   8   15.00    4.10
  -7 -11   8   22.90    6.70
  -7  11   8   20.20    6.30
   7  11  -8   18.80    7.30
  -6 -11   8  151.38   10.20
  -6 -11   8  149.29   14.40
  -6  11   8  157.08   15.10
   6  11  -8  150.08   15.50
  -5 -11   8   11.80    4.10
  -5 -11   8    2.90    3.90
  -5  11   8   10.30    4.10
   5  11  -8    7.10    5.20
  -5  11   8   18.40    6.00
  -4 -11   8  237.48   12.90
  -4 -11   8  241.68   15.80
  -4  11   8  218.68   14.70
   4  11  -8  270.07   17.60
  -4  11   8  225.18   12.50
  -3 -11   8  449.36   19.00
  -3 -11   8  494.95   22.50
   3  11  -8  468.55   23.60
  -3  11   8  459.15   19.20
  -3  11   8  459.75   21.70
  -2 -11   8   41.30    6.70
  -2  11   8   41.90    7.60
   2  11  -8   34.90    7.70
  -2  11   8   41.30    6.80
  -1 -11   8   81.09    9.10
  -1  11   8   82.49   10.00
   1  11  -8   55.09    9.20
  -1  11   8   61.49    8.30
   0  11  -8   11.20    5.60
   0  11   8    4.30    4.20
   0  11   8    3.00    3.60
   1  11   8  103.09   10.70
  -1  11  -8  101.39   12.40
   1  11   8  105.59   11.60
   2  11   8    1.90    4.20
   2  11   8    5.20    4.00
  -2  11  -8    1.40    4.40
   3  11   8   93.59   10.00
  -3  11  -8   59.09    9.90
   3  11   8   70.19   10.40
   4  11   8   80.49   11.00
  -4  11  -8   87.89   12.60
  -5  11  -8  121.89   14.30
   5  11   8  167.68   16.60
  -6  11  -8   35.30    9.10
   6  11   8   39.70    9.60
  -7  11  -8    4.80    6.50
   7  11   8   -2.50    5.30
   8  11   8   90.99   14.40
  -8  11  -8   90.79   14.80
  -9  11  -8    0.00    6.70
   9  11   8   14.20    7.90
 -11 -12   8   10.10    6.60
  11  12  -8   11.90   10.10
 -11  12   8   11.50    7.30
 -10 -12   8    5.60    6.00
 -10  12   8    4.10    5.80
  10  12  -8   14.90   10.10
  -9 -12   8    9.70    5.60
  -9  12   8   12.90    6.00
   9  12  -8   -1.10    6.90
  -8 -12   8  161.58   17.00
   8  12  -8  125.69   16.50
  -8  12   8  105.99   13.30
  -7 -12   8    3.40    4.80
   7  12  -8   16.60    7.10
  -7  12   8    0.90    3.90
  -6 -12   8   79.29    8.60
  -6 -12   8   87.69   12.20
   6  12  -8   74.79   12.80
  -6  12   8   55.49    9.40
  -5 -12   8   82.59   11.70
  -5 -12   8   93.19    9.60
  -5  12   8   97.79    9.70
  -5  12   8   90.19   11.30
   5  12  -8  100.19   13.40
  -4 -12   8   78.09   10.80
  -4 -12   8   62.09    7.80
  -4  12   8   76.69   10.90
  -4  12   8   71.79    8.60
   4  12  -8   63.39   10.30
  -3 -12   8   75.99    8.90
   3  12  -8   94.09   12.80
  -3  12   8   45.40    7.60
  -3  12   8   68.59   10.00
   2  12  -8 1229.78   44.40
  -2  12   8 1225.88   41.40
  -2  12   8 1327.77   40.30
   1  12  -8   88.59   11.90
  -1  12   8   64.89    8.90
  -1  12   8   73.39    9.80
   0  12   8   91.39   10.60
   0  12   8   79.19    9.90
   0  12  -8   55.79    9.90
   1  12   8   39.20    7.60
   1  12   8   36.50    7.20
  -1  12  -8   22.50    7.30
   2  12   8    8.40    4.70
  -2  12  -8   12.60    5.90
   2  12   8   12.90    5.20
   3  12   8   43.90    8.60
  -3  12  -8   92.49   12.20
   4  12   8   -0.30    4.30
  -4  12  -8    3.10    5.70
   5  12   8   16.00    6.90
  -5  12  -8    8.70    5.40
   6  12   8   74.59   11.90
  -6  12  -8   58.39   11.70
  -7  12  -8   22.40    8.60
   7  12   8   11.70    7.60
  -8  12  -8   40.10   11.10
   8  12   8   49.80   11.90
 -10 -13   8   16.00    8.00
  10  13  -8   17.90   10.10
 -10  13   8   11.80    6.80
  -9 -13   8   -3.10    4.20
  -9  13   8    4.00    5.70
   9  13  -8    7.60    7.90
  -8 -13   8   24.50    7.60
   8  13  -8   23.90   10.20
  -8  13   8   17.10    7.00
  -7 -13   8  118.49   15.00
  -7  13   8  101.59   13.80
   7  13  -8   89.69   14.50
  -6 -13   8    6.60    5.80
   6  13  -8    4.80    7.50
  -6  13   8    8.20    5.20
  -5 -13   8  203.78   19.10
   5  13  -8  186.28   18.90
  -5  13   8  181.18   17.00
  -5  13   8  190.58   12.40
  -4 -13   8  114.69   13.80
  -4  13   8  120.89   13.50
  -4  13   8  112.59   11.10
   4  13  -8  115.59   14.60
  -3  13   8 1064.29   38.20
   3  13  -8 1090.79   41.50
  -3  13   8 1043.70   35.40
  -2  13   8  104.49   12.40
  -2  13   8   95.19   11.10
   2  13  -8   93.09   12.60
  -1  13   8   18.90    5.90
   1  13  -8   11.40    6.00
  -1  13   8   22.00    6.30
   0  13   8  104.89   12.00
   0  13   8  114.09   12.00
   0  13  -8   83.59   11.80
  -1  13  -8    1.80    5.20
   1  13   8    1.00    4.60
   1  13   8   -0.20    4.00
   2  13   8    6.10    4.60
  -2  13  -8    3.00    5.20
   2  13   8    5.60    4.40
   3  13   8   17.20    6.50
  -3  13  -8   11.00    5.80
  -4  13  -8  255.07   18.80
   4  13   8  245.88   17.70
   5  13   8   20.40    7.30
  -5  13  -8    2.70    6.10
  -6  13  -8   27.40    8.70
   6  13   8   32.80   10.10
  -7  13  -8    4.40    7.70
   7  13   8    7.20    6.60
   8  13   8    7.10    8.20
  -8  13  -8    1.10    7.30
  -9 -14   8  158.08   17.90
  -9  14   8  161.88   17.90
   9  14  -8  158.58   21.10
  -8 -14   8   12.20    7.00
  -8  14   8    9.20    6.40
   8  14  -8   17.90    9.80
  -7 -14   8   24.40    8.30
   7  14  -8   22.40    9.30
  -7  14   8   32.10    8.70
  -6 -14   8   16.30    7.30
  -6  14   8   31.40    8.70
   6  14  -8   24.90    9.70
  -5 -14   8    5.10    5.10
   5  14  -8    5.00    7.40
  -5  14   8   -0.20    4.40
  -4  14   8   40.90    9.20
   4  14  -8   36.60   10.50
  -4  14   8   38.20    7.70
  -3  14   8   12.00    5.80
   3  14  -8    2.30    6.60
  -3  14   8   16.50    6.60
  -2  14   8  101.79   12.00
   2  14  -8  116.49   15.10
  -2  14   8  132.39   14.20
  -1  14   8   94.99   11.80
   1  14  -8   81.39   12.90
  -1  14   8   79.99   10.70
   0  14   8   57.69    9.50
   0  14  -8   40.20    9.80
   0  14   8   54.29    9.50
   1  14   8   17.40    6.30
   1  14   8   28.20    7.50
  -1  14  -8   20.80    7.40
   2  14   8   10.40    5.90
   2  14   8    9.60    5.50
  -2  14  -8   18.30    7.40
   3  14   8  203.38   18.10
  -3  14  -8  173.48   17.70
   4  14   8   21.00    7.80
  -4  14  -8   19.60    7.70
  -5  14  -8   57.49   11.50
   5  14   8   39.40    9.40
   6  14   8    9.50    7.10
  -6  14  -8   13.70    8.40
   7  14   8   -3.70    5.60
  -7  14  -8   -2.20    7.50
  -8 -15   8   77.49   13.30
  -8  15   8  112.09   15.50
   8  15  -8   94.49   16.10
  -7 -15   8   63.99   12.50
   7  15  -8   73.09   15.30
  -7  15   8   83.19   13.40
  -6 -15   8    3.40    5.50
   6  15  -8    4.40    7.00
  -6  15   8    1.70    5.40
   5  15  -8  101.99   16.10
  -5  15   8   92.59   13.50
  -4  15   8   17.50    6.70
  -4  15   8   14.60    7.10
   4  15  -8   11.50    8.20
  -3  15   8   39.80    9.00
   3  15  -8   38.10   10.30
  -3  15   8   32.30    7.60
  -2  15   8   27.40    7.30
   2  15  -8   38.50   10.20
  -2  15   8   18.00    6.40
  -1  15   8   96.59   12.10
  -1  15   8   91.19   12.20
   1  15  -8   96.59   13.60
   0  15   8    3.40    5.10
   0  15  -8   11.50    7.50
   0  15   8    8.30    5.70
  -1  15  -8   -0.10    4.90
   1  15   8    2.70    5.50
   1  15   8   -1.90    4.30
   2  15   8    6.50    5.10
  -2  15  -8   -0.90    7.00
  -3  15  -8   10.40    7.40
   3  15   8    5.30    5.70
   4  15   8  180.58   18.40
  -4  15  -8  176.28   18.90
  -5  15  -8  105.89   15.00
   5  15   8  120.79   15.10
   6  15   8  274.37   24.20
  -6  15  -8  225.58   22.30
  -7 -16   8   22.70    8.80
  -7  16   8   16.70    8.50
   7  16  -8    8.80   10.80
  -6  16   8   10.30    6.80
   6  16  -8   28.00   11.30
  -5  16   8   16.90    7.20
   5  16  -8    8.40    7.30
  -4  16   8   65.99   11.80
   4  16  -8   55.19   13.00
  -4  16   8   74.19   10.90
  -3  16   8   22.40    7.80
   3  16  -8   18.80    9.80
  -3  16   8   15.00    6.50
   2  16  -8   80.19   14.70
  -2  16   8   78.69   11.80
  -2  16   8   75.29   11.90
   1  16  -8    6.80    7.90
  -1  16   8    9.10    6.40
  -1  16   8    3.60    5.40
   0  16  -8    3.30    7.40
   0  16   8   -5.90    4.40
   0  16   8    7.80    6.00
   1  16   8    7.10    5.70
  -1  16  -8   -7.10    5.70
   1  16   8    0.80    5.50
  -2  16  -8   13.00    7.70
   2  16   8   24.60    7.50
  -3  16  -8    6.60    7.80
   3  16   8   21.10    7.70
   4  16   8   23.90    8.80
  -4  16  -8   37.90   10.40
   5  16   8  171.58   18.50
  -5  16  -8  175.48   19.60
   6  17  -8   -8.30    8.40
  -6  17   8    4.10    7.70
   5  17  -8   11.40    9.50
  -5  17   8    1.00    7.10
  -4  17   8   15.70    8.20
   4  17  -8   33.30   11.90
  -4  17   8   30.30   12.00
   3  17  -8   -6.50    6.80
  -3  17   8    1.20    6.50
  -3  17   8    1.20    6.00
  -2  17   8   10.20    6.50
   2  17  -8   11.70    9.60
  -2  17   8   13.10    7.20
  -1  17   8  161.28   16.90
  -1  17   8  178.28   18.40
   1  17  -8  164.68   19.40
   0  17   8   18.90    7.80
   0  17  -8   36.40   10.40
   0  17   8   22.60    7.90
  -1  17  -8    8.40    7.60
   1  17   8    1.30    5.90
   2  17   8   -3.40    5.90
  -2  17  -8    4.30    7.80
  -3  17  -8   82.09   15.10
   3  17   8   81.39   13.20
  -3  18   8   -0.70    6.90
  -3  18   8    3.10    7.80
   3  18  -8   10.00    9.50
  -2  18   8   83.49   13.70
  -2  18   8   72.09   13.10
   2  18  -8   67.99   14.10
  -1  18   8   15.50    7.90
  -1  18   8    2.80    6.90
   1  18  -8    7.60   10.50
   0  18   8  267.37   20.30
   0  18  -8  231.98   24.10
   1  18   8   23.70    9.10
  -1  18  -8   38.70   11.90
 -14   0   9    4.20    4.90
 -13   0   9   14.00    6.30
 -12   0   9    4.20    4.00
 -12   0   9   -2.50    3.60
 -11   0   9 1041.30   34.50
 -11   0   9 1007.20   36.10
 -10   0   9    4.70    3.80
 -10   0   9    5.30    3.90
  -9   0   9  508.95   21.10
  -9   0   9  513.95   21.50
  -8   0   9    2.50    3.00
  -7   0   9  180.58   11.30
  -6   0   9   10.60    4.00
   5   0  -9 1350.06   32.10
  -5   0   9 1336.97   39.20
  -4   0   9   -0.40    2.20
   4   0  -9   22.40    3.30
  -3   0   9   65.89    7.10
  -3   0   9   69.09    4.60
  -2   0   9    4.40    1.70
  -2   0   9    4.70    2.70
  -1   0   9   34.60    5.60
  -1   0   9   20.50    3.40
   0   0   9    5.30    2.20
   0   0   9    1.60    2.20
   1   0   9  619.14   21.40
   1   0   9  652.93   20.50
   2   0   9    2.10    2.00
   2   0   9    0.30    1.70
   3   0   9  534.65   19.40
   3   0   9  514.05   19.60
   4   0   9    0.00    1.80
   4   0   9    1.60    2.40
   5   0   9   62.19    7.50
   5   0   9   58.19    7.70
  -5   0  -9   54.09    4.90
   6   0   9   -1.70    2.60
   6   0   9   -0.50    2.80
   7   0   9  248.08   14.90
   7   0   9  240.68   13.10
   8   0   9    8.20    3.80
   9   0   9  665.23   28.40
  10   0   9   -0.60    4.80
  11   0   9  124.59   15.60
 -14  -1   9   89.49   13.10
 -14   1   9   78.99   11.70
 -13  -1   9   31.40    7.90
 -13   1   9   30.00    7.80
 -13   1   9   38.50    8.80
 -12  -1   9  361.26   20.50
 -12  -1   9  425.36   19.10
 -12   1   9  421.86   20.50
 -12   1   9  382.46   20.90
 -11  -1   9  230.28   15.30
 -11  -1   9  249.18   14.20
 -11   1   9  236.78   15.00
 -11   1   9  225.58   15.10
 -10  -1   9   10.40    4.30
 -10  -1   9   15.80    4.90
 -10   1   9    9.00    4.50
  -9  -1   9    9.90    4.00
  -9  -1   9    7.10    3.60
  -9   1   9   17.60    5.10
  -8  -1   9  355.36   16.50
  -8  -1   9  390.96   16.90
  -8   1   9  337.27   16.90
  -7  -1   9    5.00    2.80
  -7  -1   9    0.30    1.90
   7   1  -9    4.10    1.40
  -7   1   9    4.60    3.50
  -6  -1   9   20.20    4.20
  -6  -1   9   10.00    3.40
  -6   1   9   15.40    4.40
   6   1  -9    8.90    2.30
  -5  -1   9 1433.36   40.60
  -5  -1   9 1453.05   38.90
   5   1  -9 1410.16   35.40
  -5   1   9 1420.66   41.50
  -4  -1   9 1581.44   43.10
   4  -1  -9 1559.24   37.20
  -4   1   9 1572.84   44.10
   4   1  -9 1500.15   39.10
  -3  -1   9   54.69    6.30
  -3   1   9   69.69    4.10
   3   1  -9   74.09    6.10
  -3   1   9   54.79    6.60
  -2  -1   9  230.98    9.60
  -2  -1   9  238.78   11.60
  -2   1   9  229.28   11.90
  -2   1   9  215.68    8.50
  -1  -1   9   14.90    3.80
  -1  -1   9   13.60    2.90
  -1  -1   9   10.30    1.90
  -1   1   9   15.40    3.80
  -1   1   9   12.00    2.50
   0  -1   9  322.27   12.60
   0  -1   9  318.97    8.60
   0  -1   9  326.77   13.90
   0   1   9  324.27   12.20
   0   1   9  318.27   13.90
   1  -1   9    5.00    2.30
   1  -1   9   11.00    3.30
   1   1   9   11.70    3.00
   1   1   9    8.50    3.10
   2  -1   9  272.17   12.40
   2  -1   9  294.87   13.60
   2   1   9  293.87   13.10
   2   1   9  288.87   12.70
   3  -1   9  935.21   29.40
   3  -1   9  907.11   28.60
   3   1   9  917.41   28.50
   3   1   9  888.81   28.30
   4  -1   9   81.59    8.50
   4  -1   9   90.89    9.00
   4   1   9   92.49    8.70
   4   1   9   64.59    7.40
  -5  -1  -9    3.70    2.30
   5  -1   9    4.20    2.90
   5  -1   9    7.50    3.50
   5   1   9    1.80    2.60
   5   1   9    4.90    3.10
  -6  -1  -9  312.27   12.90
   6  -1   9  293.97   14.80
   6  -1   9  318.17   16.20
   6   1   9  306.27   14.40
   6   1   9  316.37   16.10
   7  -1   9    5.40    4.00
   7   1   9    3.20    3.00
   7   1   9    1.50    3.70
   8  -1   9   69.09    9.90
   8   1   9   68.59    9.80
   9  -1   9   60.59    9.90
   9   1   9   67.89   10.40
  10  -1   9  721.73   30.60
  10   1   9  659.93   29.70
  11  -1   9    5.30    5.10
  11   1   9    5.30    5.80
 -14  -2   9   -0.50    3.80
 -14   2   9    5.60    5.60
 -13  -2   9    4.10    4.40
 -13   2   9    5.90    4.90
 -13   2   9   -0.60    4.40
 -12  -2   9   49.20    8.40
 -12   2   9   63.99   10.40
 -12   2   9   61.79    9.60
 -11  -2   9  140.09   13.60
 -11  -2   9  156.18   10.80
 -11   2   9  148.89   13.70
 -10  -2   9  121.09   11.00
 -10  -2   9  140.09   13.30
 -10   2   9  113.19   11.90
  -9  -2   9  251.67   14.20
  -9  -2   9  260.37   13.50
  -9   2   9  247.88   14.70
  -8  -2   9   53.39    7.30
  -8  -2   9   65.29    7.60
  -8   2   9   76.59    9.40
  -7  -2   9  110.99    8.30
  -7  -2   9   99.49    9.30
   7   2  -9  112.39    6.70
  -7   2   9  106.79   10.40
  -6  -2   9  523.25   19.50
  -6  -2   9  534.95   19.30
  -6   2   9  514.15   21.10
   6   2  -9  506.35   16.70
  -5  -2   9  553.64   20.00
  -5  -2   9  540.75   19.00
   5   2  -9  574.24   17.70
  -5   2   9  555.74   21.90
  -4  -2   9  757.02   24.50
  -4   2   9  776.82   26.30
  -4   2   9  728.13   18.50
   4   2  -9  725.53   22.20
  -3  -2   9   48.70    6.20
  -3  -2   9   50.19    4.90
   3   2  -9   45.40    5.10
  -3   2   9   50.59    3.30
  -3   2   9   35.40    5.70
  -2  -2   9   23.60    3.00
  -2  -2   9   18.30    3.80
  -2   2   9   15.70    2.60
   2   2  -9   15.80    3.50
  -2   2   9   14.10    4.10
  -1  -2   9   18.60    3.40
  -1  -2   9   24.50    4.60
  -1  -2   9   19.70    2.30
  -1   2   9   18.50    3.00
  -1   2   9   22.30    4.30
   0  -2   9   25.30    4.10
   0  -2   9   20.50    4.00
   0   2   9   24.20    3.70
   0   2   9   23.30    4.40
   1  -2   9   70.69    7.30
   1  -2   9   52.09    5.90
   1   2   9   56.89    6.40
   1   2   9   60.99    6.10
   2  -2   9   16.00    3.90
   2  -2   9   16.40    4.00
   2   2   9   18.30    4.00
   2   2   9   15.90    3.80
   3  -2   9 1134.29   34.50
   3  -2   9 1122.59   33.60
   3   2   9 1105.49   33.30
   4  -2   9  815.82   27.40
   4  -2   9  814.62   27.50
   4   2   9  817.72   27.40
   4   2   9  819.02   26.60
   5  -2   9   16.40    4.30
   5  -2   9    8.20    3.40
  -5  -2  -9   20.30    3.90
   5   2   9   11.60    3.80
   5   2   9   19.20    4.80
   6  -2   9  194.38   12.50
  -6  -2  -9  191.78   10.40
   6  -2   9  187.08   11.50
   6   2   9  196.28   12.60
   6   2   9  172.28   10.40
   7  -2   9  244.88   14.60
   7   2   9  216.08   14.10
   7   2   9  197.48   11.40
   8  -2   9    1.20    3.00
   8   2   9    9.40    4.60
   9  -2   9    2.60    4.60
   9   2   9   -2.10    3.40
  10  -2   9   28.60    7.70
  10   2   9   20.50    6.90
  11  -2   9    5.20    4.80
  11   2   9    2.00    5.80
 -14  -3   9   10.50    6.20
 -14   3   9    7.20    5.60
 -13  -3   9   45.60    9.60
 -13   3   9   37.20    8.50
 -13   3   9   31.10    8.10
 -12  -3   9    9.90    4.10
 -12   3   9   11.30    5.80
 -11  -3   9    6.00    4.50
 -11  -3   9    7.30    3.80
 -11   3   9    8.10    4.70
 -10  -3   9   31.80    6.90
 -10  -3   9   29.10    5.50
 -10   3   9   24.10    6.40
  -9  -3   9  188.38   12.30
  -9  -3   9  168.68   10.50
  -9   3   9  146.49   13.80
  -8  -3   9   20.60    5.10
  -8  -3   9   14.30    3.90
   8   3  -9   18.30    4.10
  -8   3   9   14.80    4.90
  -7  -3   9  408.16   17.30
  -7  -3   9  395.06   16.40
   7   3  -9  398.26   15.40
  -7   3   9  393.46   18.60
  -6  -3   9  203.18   10.90
  -6  -3   9  198.48   10.80
  -6   3   9  198.98   12.40
   6   3  -9  198.18   10.00
  -5  -3   9  240.88   11.90
  -5  -3   9  239.48   11.30
   5   3  -9  234.28   10.80
  -5   3   9  212.08   12.90
  -4  -3   9  734.03   23.80
  -4  -3   9  846.62   26.30
  -4   3   9  838.72   28.50
   4   3  -9  815.72   25.00
  -4   3   9  860.31   20.00
  -3  -3   9  551.14   17.20
  -3  -3   9  578.54   19.90
  -3   3   9  511.55   20.90
  -3   3   9  537.25   15.10
   3   3  -9  570.84   19.40
  -2  -3   9  384.66   12.30
  -2  -3   9  383.76   15.40
  -2   3   9  362.66   16.40
  -2   3   9  371.16   12.20
  -1  -3   9    3.00    1.40
  -1  -3   9    2.20    2.10
  -1  -3   9   -1.20    1.50
  -1   3   9    2.60    1.80
  -1   3   9    3.80    2.60
   0  -3   9  246.58   12.30
   0  -3   9  267.97   11.90
   0  -3   9  230.08    7.70
   0   3   9  255.27   10.70
   0   3   9  266.67   12.80
   1  -3   9  337.87   14.30
   1  -3   9  372.46   15.70
   1   3   9  342.17   13.90
   1   3   9  371.76   15.30
   2  -3   9 1240.58   36.50
   2  -3   9 1294.87   38.10
   2   3   9 1286.77   36.40
   2   3   9 1292.17   36.50
   3  -3   9  122.49    8.90
   3  -3   9  153.28   10.10
   3   3   9  137.29    8.80
   3   3   9  144.19    9.50
   4  -3   9   67.29    8.20
   4  -3   9   65.89    8.10
   4   3   9   77.79    8.80
   4   3   9   60.29    7.00
   5  -3   9  214.68   12.90
   5  -3   9  238.98   13.30
   5   3   9  224.88   11.90
   5   3   9  226.08   13.40
  -6  -3  -9   16.00    4.40
   6  -3   9    9.10    4.00
   6  -3   9   13.40    4.50
   6   3   9   19.50    5.10
   6   3   9   16.80    4.20
   7  -3   9    7.50    4.00
  -7  -3  -9    8.90    4.00
   7   3   9    3.10    3.10
   8  -3   9  153.08   14.20
   8   3   9  178.08   16.20
   9  -3   9    5.00    5.10
   9   3   9   10.60    5.70
  10  -3   9    0.20    4.90
  10   3   9    3.70    5.30
  11  -3   9   36.60    9.00
  11   3   9   39.80    9.80
 -14  -4   9   21.00    7.80
 -14   4   9   11.80    6.40
 -14   4   9   29.80    8.40
 -13  -4   9    8.70    4.80
 -13   4   9    0.50    5.70
 -12  -4   9  282.17   18.00
 -12   4   9  266.77   18.10
 -11  -4   9   24.00    6.40
 -11   4   9   25.30    7.20
 -10  -4   9  100.99   11.60
 -10  -4   9   93.89    9.40
 -10   4   9  104.29   12.40
  -9  -4   9   36.20    6.90
  -9  -4   9   52.29    6.80
  -9   4   9   32.50    7.00
  -8  -4   9    8.60    4.00
  -8  -4   9   12.60    4.00
   8   4  -9   18.50    5.00
  -8   4   9    0.70    3.70
  -7  -4   9   34.30    5.70
  -7  -4   9   34.50    5.40
   7   4  -9   28.70    5.40
  -7   4   9   31.10    6.60
  -6  -4   9  108.09    7.90
  -6  -4   9   97.59    7.60
  -6   4   9   85.69    9.80
   6   4  -9  102.89    8.80
  -5  -4   9   14.30    3.80
  -5  -4   9    9.80    2.90
   5   4  -9   12.00    3.80
  -5   4   9   13.80    4.40
  -4  -4   9  697.63   23.00
  -4  -4   9  614.34   20.90
  -4   4   9  689.83   25.30
  -4   4   9  696.63   17.30
   4   4  -9  677.63   22.80
  -3  -4   9    5.00    2.80
  -3  -4   9    6.50    2.20
   3   4  -9    4.40    3.10
  -3   4   9   10.80    4.30
  -3   4   9    6.60    1.70
  -2  -4   9   88.19    8.40
  -2  -4   9   80.19    5.10
   2   4  -9   81.09    7.80
  -2   4   9   75.29    5.00
  -2   4   9   84.79    9.00
  -1  -4   9  214.08    8.30
  -1  -4   9  204.18   11.00
  -1   4   9  201.38    9.10
   1   4  -9  208.58   11.20
  -1   4   9  196.58   11.70
   0  -4   9   64.29    6.90
   0  -4   9   63.69    7.30
   0   4   9   86.79    9.10
   0   4   9   71.29    6.60
   1  -4   9    1.40    2.10
   1  -4   9    4.20    2.60
   1   4   9    4.80    2.80
   1   4   9   -2.90    1.60
   2  -4   9  952.70   30.60
   2  -4   9  944.21   29.90
   2   4   9  955.90   29.60
   3  -4   9  180.18   11.10
   3  -4   9  166.88   10.60
   3   4   9  164.78    9.80
   3   4   9  181.48   10.90
   4  -4   9   79.29    8.60
   4  -4   9   65.39    8.10
   4   4   9   74.69    8.40
   4   4   9   62.49    7.10
   5  -4   9   11.70    4.30
   5  -4   9    9.00    3.90
   5   4   9    7.80    3.60
   5   4   9    7.30    3.70
   6  -4   9   41.90    7.40
  -6  -4  -9   45.20    6.50
   6   4   9   41.20    7.10
   6   4   9   59.79    7.10
   7  -4   9   99.29   11.20
  -7  -4  -9  119.39   11.20
   7   4   9  130.39   13.90
   8  -4   9   23.50    6.60
   8   4   9   35.50    7.80
   9  -4   9   64.19   10.10
   9   4   9   56.89   10.20
  10  -4   9   45.20    9.40
  10   4   9   74.69   12.70
  11  -4   9    8.80    6.20
  11   4   9   13.20    7.40
 -13  -5   9   10.30    6.40
 -13   5   9   16.30    7.30
 -12  -5   9   19.50    6.90
 -12   5   9   -1.40    5.00
 -11  -5   9    6.30    5.00
 -11   5   9    7.60    5.60
 -10  -5   9    8.50    3.70
 -10  -5   9   10.30    4.80
 -10   5   9   -0.10    4.00
  -9  -5   9  278.17   13.50
  -9  -5   9  298.97   16.50
  -9   5   9  271.57   17.00
  -8  -5   9  212.38   11.50
  -8  -5   9  197.98   12.70
  -8   5   9  229.98   14.90
   8   5  -9  199.28   13.00
  -7  -5   9  167.58   10.90
  -7  -5   9  151.68    9.50
   7   5  -9  150.48   10.90
  -7   5   9  164.48   12.30
  -6  -5   9   58.69    7.10
  -6  -5   9   64.29    7.20
   6   5  -9   56.69    7.20
  -6   5   9   66.89    9.00
  -5  -5   9  145.19    9.10
  -5  -5   9  141.69    8.90
  -5   5   9  137.69   12.80
   5   5  -9  145.69    9.50
  -5   5   9  132.89    4.70
  -4  -5   9  199.68   10.90
  -4   5   9  188.18   12.50
   4   5  -9  193.48   11.30
  -4   5   9  198.08    7.30
  -3  -5   9  135.99    8.90
  -3  -5   9  128.19    7.50
  -3   5   9  111.09   10.40
  -3   5   9  130.59    6.30
  -2  -5   9    8.60    3.10
  -2  -5   9    5.50    2.10
  -2   5   9    5.40    3.20
   2   5  -9    6.40    3.10
  -2   5   9    7.40    2.10
  -1  -5   9  166.08   10.10
  -1  -5   9  181.78    8.60
  -1   5   9  178.28    8.80
   1   5  -9  161.58   10.30
  -1   5   9  176.08   11.30
   0  -5   9  314.17   14.80
   0   5  -9  316.37   15.10
   0   5   9  314.57   15.10
   0   5   9  316.97   13.20
   1  -5   9   25.10    5.00
   1  -5   9   30.20    5.60
   1   5   9   23.20    4.80
   1   5   9   20.00    4.20
   2  -5   9   26.50    5.10
   2  -5   9   14.20    4.20
   2   5   9   31.80    5.50
   2   5   9   18.50    4.10
   3  -5   9   80.59    8.60
   3  -5   9  101.59    9.90
   3   5   9  108.89    8.10
   3   5   9   85.29    8.90
   4  -5   9  266.67   14.30
   4  -5   9  261.47   14.10
   4   5   9  214.68   13.40
   4   5   9  238.08   12.10
   5  -5   9   18.40    5.10
   5  -5   9   26.00    6.00
   5   5   9   27.40    5.10
   5   5   9   28.60    6.20
   6  -5   9  133.69   12.70
   6   5   9  130.89   13.40
   7  -5   9  161.48   14.80
  -7  -5  -9  185.88   12.60
   7   5   9  179.88   16.10
  -8  -5  -9   61.99    9.30
   8  -5   9   31.00    7.40
   8   5   9   38.40    7.70
   9  -5   9   34.80    7.90
   9   5   9   16.50    6.80
  10  -5   9   22.50    7.80
  10   5   9   14.60    7.40
  11  -5   9   48.20   10.60
  11   5   9   49.90   11.40
 -13  -6   9   60.79   10.80
 -13   6   9   45.40   10.00
 -12  -6   9   55.99   10.40
 -12   6   9   47.80   10.00
 -11  -6   9   14.50    5.60
 -11   6   9   17.60    6.40
 -10  -6   9   46.70    8.70
 -10   6   9   36.60    8.30
  -9  -6   9   26.30    5.00
  -9  -6   9   21.50    5.70
  -9   6   9   17.90    6.30
   9   6  -9   19.80    6.60
  -8  -6   9   74.89    9.40
  -8  -6   9   87.79    8.40
  -8   6   9   72.39    9.80
   8   6  -9   65.79    8.90
  -7  -6   9    8.20    3.20
  -7  -6   9   15.30    4.30
  -7   6   9   10.10    4.80
   7   6  -9    2.60    4.00
  -6  -6   9   40.20    6.10
  -6  -6   9   38.80    6.00
   6   6  -9   58.19    7.80
  -6   6   9   47.90    8.30
  -5  -6   9   95.19    7.40
  -5  -6   9   85.69    8.40
  -5   6   9   75.69    4.30
   5   6  -9   81.29    8.80
  -5   6   9   63.79    8.60
  -4  -6   9    6.90    3.00
  -4  -6   9   -0.90    1.00
   4   6  -9   -0.50    1.90
  -4   6   9    4.00    2.00
  -4   6   9    9.50    4.10
  -3  -6   9   44.30    5.60
  -3  -6   9   39.50    5.90
  -3   6   9   63.99    8.70
  -3   6   9   48.30    4.80
   3   6  -9   44.90    6.70
  -2  -6   9 1244.78   34.70
  -2  -6   9 1262.07   37.20
  -2   6   9 1303.67   39.10
  -2   6   9 1219.68   33.60
   2   6  -9 1262.47   38.60
  -1  -6   9  127.49    9.30
  -1  -6   9  125.49    7.90
  -1   6   9  135.49   10.20
  -1   6   9  125.99    7.90
   1   6  -9  136.59   11.80
   0  -6   9  692.03   24.20
   0   6   9  644.34   24.10
   0   6   9  662.23   22.10
   0   6  -9  663.43   24.90
   1  -6   9    9.30    3.60
  -1   6  -9    6.40    3.50
   1   6   9    6.30    3.40
   1   6   9    6.70    2.90
   2  -6   9   32.00    6.20
   2  -6   9   37.20    6.10
   2   6   9   30.50    5.60
  -2   6  -9   30.80    5.70
   2   6   9   30.70    5.60
   3  -6   9  506.55   20.80
   3  -6   9  520.55   21.50
   3   6   9  489.75   20.50
   3   6   9  494.35   19.00
   4  -6   9   65.09    8.60
   4  -6   9   52.39    8.20
   4   6   9   42.80    6.90
   4   6   9   57.39    7.00
   5  -6   9    1.80    2.70
   5   6   9    1.60    2.90
   5   6   9    4.10    3.10
   6  -6   9   12.90    5.10
   6   6   9   21.10    6.10
  -7  -6  -9   88.89   10.50
   7  -6   9   82.39   11.10
   7   6   9  103.59   12.60
   8  -6   9    6.20    5.10
  -8  -6  -9    3.50    4.90
   8   6   9   16.70    6.80
   9  -6   9   12.20    6.60
   9   6   9   -0.50    5.20
  10  -6   9   56.29   11.00
  10   6   9   44.40   10.40
 -13  -7   9   29.60    8.70
 -13   7   9   35.80   10.10
 -12  -7   9    3.50    5.00
 -12   7   9    4.30    6.20
 -11  -7   9  110.09   13.40
 -11   7   9   75.49   11.50
 -10  -7   9   -2.20    3.70
 -10   7   9    2.20    4.90
  -9  -7   9   55.49    7.00
  -9  -7   9   60.29    9.60
  -9   7   9   61.79    9.70
   9   7  -9   38.80    8.60
  -8  -7   9  189.08   13.20
  -8  -7   9  223.98   11.90
   8   7  -9  223.38   15.20
  -8   7   9  192.88   14.40
  -7  -7   9   50.79    7.60
  -7  -7   9   57.59    7.40
  -7   7   9   62.49    9.60
   7   7  -9   55.09    8.80
  -6  -7   9   13.90    4.10
  -6  -7   9    7.00    3.30
  -6   7   9    3.80    3.80
   6   7  -9    4.00    4.40
  -5  -7   9   46.60    6.80
  -5  -7   9   41.90    6.30
  -5   7   9   48.10    4.30
  -5   7   9   34.40    6.60
  -4  -7   9   58.99    7.30
  -4   7   9   69.59    9.20
   4   7  -9   60.49    8.40
  -4   7   9   57.89    5.20
  -3  -7   9 1047.50   31.70
  -3  -7   9 1079.89   33.10
  -3   7   9 1072.59   35.30
   3   7  -9  997.40   34.20
  -3   7   9 1070.79   29.20
  -2  -7   9  600.54   21.20
  -2  -7   9  567.64   21.90
   2   7  -9  581.04   23.60
  -2   7   9  619.84   24.00
  -2   7   9  581.34   19.40
  -1  -7   9  122.89   11.10
  -1   7   9   99.19    7.50
   1   7  -9  110.89   11.30
  -1   7   9   99.19   10.20
   0  -7   9  450.95   18.90
   0   7  -9  488.55   20.80
   0   7   9  443.46   19.50
   0   7   9  452.75   17.70
   1  -7   9 1749.03   48.80
  -1   7  -9 1667.43   49.99
   1   7   9 1725.93   47.80
   2  -7   9   24.80    5.30
   2   7   9   40.20    6.70
   2   7   9   42.20    6.40
  -2   7  -9   34.20    6.70
   3  -7   9   31.50    6.10
   3   7   9   40.50    6.20
  -3   7  -9   19.30    5.40
   3   7   9   37.40    6.70
   4  -7   9    5.40    3.50
   4  -7   9    1.50    2.50
   4   7   9    4.90    3.90
   4   7   9   -0.30    2.70
   5  -7   9  146.59   14.20
   5   7   9  165.58   12.50
   6  -7   9    1.70    4.20
   6   7   9    9.20    5.70
   7  -7   9   59.39    9.80
   7   7   9   56.29    9.70
   8  -7   9    8.30    5.20
  -8  -7  -9   13.10    6.00
   8   7   9    3.90    4.60
   9  -7   9   35.80    9.10
   9   7   9   16.70    7.10
  10  -7   9    6.70    5.40
  10   7   9   20.20    9.00
 -13  -8   9    8.00    6.20
 -13   8   9    2.30    6.80
 -12  -8   9   43.60   10.00
 -12   8   9   22.90    8.30
 -11  -8   9   11.20    5.40
 -11   8   9    0.50    4.70
 -10  -8   9    9.50    5.00
 -10   8   9   14.20    6.90
  -9  -8   9   66.19   10.20
  -9   8   9   58.79   10.40
   9   8  -9   56.69   10.50
  -8  -8   9    7.50    3.60
  -8  -8   9    3.60    3.70
  -8   8   9   11.00    5.10
   8   8  -9    0.80    4.80
  -7  -8   9   42.10    7.20
  -7  -8   9   27.60    5.50
  -7   8   9   26.00    6.90
   7   8  -9   23.80    6.90
  -6  -8   9  196.08   11.60
  -6  -8   9  201.28   12.80
  -6   8   9  196.38   14.10
  -5  -8   9   34.90    5.90
  -5  -8   9   32.20    5.60
  -5   8   9   39.50    4.50
   5   8  -9   43.70    7.50
  -5   8   9   37.00    6.90
  -4  -8   9   23.20    5.00
  -4  -8   9   18.30    4.50
  -4   8   9   19.40    3.70
   4   8  -9   13.50    5.10
  -4   8   9   15.40    4.70
  -3  -8   9  120.19    9.30
  -3  -8   9  100.89    9.60
  -3   8   9  106.89    7.30
   3   8  -9  121.89   11.80
  -3   8   9  119.29   11.50
  -2  -8   9  678.33   24.50
  -2  -8   9  687.63   24.60
  -2   8   9  662.83   25.80
   2   8  -9  670.33   26.60
  -2   8   9  657.43   21.90
  -1  -8   9  243.38   13.20
  -1   8   9  233.18   12.10
   1   8  -9  236.48   14.70
  -1   8   9  241.18   14.00
   0  -8   9  833.82   28.80
   0   8  -9  842.02   31.00
   0   8   9  845.92   27.80
   0   8   9  881.11   29.80
   1  -8   9   95.09   10.00
  -1   8  -9   87.79   10.50
   1   8   9   85.09    9.30
   2  -8   9   34.80    6.40
   2   8   9   24.90    5.80
   2   8   9   40.60    6.70
  -2   8  -9   40.70    7.70
   3  -8   9   30.50    6.20
  -3   8  -9   27.80    6.60
   3   8   9   24.20    5.00
   3   8   9   31.60    6.70
  -4   8  -9   59.99    9.20
   4   8   9   65.09    7.50
   4   8   9   73.69    9.60
   5   8   9  167.48   15.40
  -5   8  -9  145.69   14.60
   6  -8   9  238.18   15.90
   6   8   9  218.38   15.90
   7  -8   9  111.89   13.30
   7   8   9  103.39   13.00
   8  -8   9   10.90    5.80
   8   8   9    4.30    6.50
   9  -8   9   21.60    7.60
  -9  -8  -9   19.60    7.60
   9   8   9   25.90    9.10
  10  -8   9   83.49   13.50
  10   8   9   74.29   14.30
 -12  -9   9   20.60    7.50
 -12   9   9   18.20    8.20
 -11  -9   9   38.40    9.00
 -11   9   9   30.60    8.80
 -10  -9   9  152.88   16.30
  10   9  -9  116.19   14.80
 -10   9   9  151.88   16.80
  -9  -9   9  386.96   21.70
  -9   9   9  410.36   22.70
   9   9  -9  362.36   22.80
  -8  -9   9    6.00    3.60
  -8  -9   9   -2.50    3.50
   8   9  -9    5.50    5.70
  -8   9   9    8.10    5.30
  -7  -9   9  617.14   25.70
  -7  -9   9  610.44   22.90
  -7   9   9  631.84   27.60
  -6  -9   9  550.64   21.50
  -6  -9   9  570.14   23.70
   6   9  -9  562.34   25.40
  -6   9   9  592.04   25.90
  -5  -9   9  269.07   13.90
  -5  -9   9  277.07   15.20
  -5   9   9  251.57   11.20
   5   9  -9  249.28   16.30
  -5   9   9  297.97   17.20
  -4  -9   9  256.47   14.30
  -4  -9   9  264.27   13.90
  -4   9   9  265.27   11.80
  -4   9   9  263.47   15.80
   4   9  -9  277.77   16.60
  -3  -9   9  143.89   10.90
  -3  -9   9  136.79    9.80
   3   9  -9  148.19   14.00
  -3   9   9  145.49    8.80
  -3   9   9  146.59   13.40
  -2  -9   9   43.80    7.40
  -2  -9   9   48.00    6.90
  -2   9   9   43.50    6.10
   2   9  -9   36.30    7.60
  -2   9   9   39.00    7.40
  -1  -9   9    8.90    3.60
   1   9  -9    6.20    4.70
  -1   9   9    4.70    3.70
  -1   9   9    5.50    3.70
   0  -9   9   15.90    4.70
   0   9  -9   11.00    5.20
   0   9   9   13.80    4.30
   0   9   9   17.30    5.30
   1  -9   9  210.38   12.80
  -1   9  -9  208.18   14.20
   1   9   9  196.88   12.50
   2  -9   9   25.20    6.10
   2   9   9   22.60    5.80
  -2   9  -9   10.30    5.50
   2   9   9   26.50    5.80
  -3   9  -9   41.80    7.70
   3   9   9   39.60    6.40
   3   9   9   33.70    6.60
   4   9   9  356.76   16.80
  -4   9  -9  376.36   20.60
   4   9   9  379.26   19.80
  -5   9  -9  866.01   34.20
   5   9   9  808.22   32.30
  -6   9  -9   37.90    9.00
   6   9   9   44.00    9.20
  -7   9  -9  102.59   14.20
   7   9   9  123.99   15.10
  -8   9  -9   32.10    9.40
   8   9   9   40.50   10.50
   9   9   9  109.09   16.40
  -9   9  -9   68.19   12.50
 -12 -10   9   16.00    7.50
 -12  10   9    8.80    8.00
 -11 -10   9    9.90    6.20
 -11  10   9   22.60    8.10
 -10 -10   9  442.16   24.20
 -10  10   9  422.96   24.70
  10  10  -9  442.46   26.20
  -9 -10   9   74.79   10.90
  -9  10   9   69.69   11.50
   9  10  -9   57.19   11.30
  -8 -10   9   10.50    6.00
  -8 -10   9   13.00    5.40
   8  10  -9    7.60    5.90
  -8  10   9    9.40    5.30
  -7 -10   9  189.68   14.10
  -7 -10   9  206.38   11.90
  -7  10   9  181.88   16.90
   7  10  -9  206.48   18.20
  -6 -10   9  477.05   22.40
  -6 -10   9  497.25   20.00
   6  10  -9  502.85   24.80
  -6  10   9  488.55   23.80
  -5 -10   9   51.99    8.30
  -5 -10   9   44.90    7.00
  -5  10   9   44.30    8.50
  -5  10   9   41.20    5.70
   5  10  -9   32.50    7.70
  -4 -10   9    6.20    3.30
  -4 -10   9   -0.50    2.90
  -4  10   9    0.80    2.60
  -4  10   9    5.60    4.20
   4  10  -9   -1.30    4.20
  -3 -10   9   30.90    5.80
  -3 -10   9   24.60    6.00
  -3  10   9   44.10    6.30
   3  10  -9   19.30    6.40
  -3  10   9   34.30    7.00
  -2 -10   9   20.00    5.00
   2  10  -9    8.80    5.40
  -2  10   9   21.40    6.00
  -2  10   9   11.60    4.10
  -1 -10   9  292.27   15.20
  -1  10   9  275.67   15.90
  -1  10   9  296.47   14.70
   1  10  -9  279.37   17.50
   0 -10   9   10.30    4.10
   0  10   9   10.80    4.20
   0  10  -9    8.40    4.80
   0  10   9   12.20    4.90
   1 -10   9   91.09    9.80
   1  10   9   80.89    9.50
  -1  10  -9   75.39   10.20
   1  10   9   87.09   10.00
  -2  10  -9    2.40    4.30
   2  10   9    5.60    4.60
   2  10   9    2.80    4.00
   3  10   9   -3.70    3.30
  -3  10  -9    7.00    5.10
   3  10   9    1.80    3.80
   4  10   9   92.99   11.90
  -4  10  -9   75.29   11.20
   5  10   9  208.28   18.40
  -5  10  -9  167.58   16.90
   6  10   9   72.19   11.30
  -6  10  -9   66.39   10.70
  -7  10  -9    7.10    7.20
   7  10   9    7.90    6.40
  -8  10  -9  352.06   23.90
   8  10   9  341.57   23.00
  -9  10  -9   60.09   13.80
   9  10   9   33.00   10.20
 -11 -11   9   13.40    6.60
 -11  11   9    2.20    6.10
 -10 -11   9   70.69   11.80
 -10  11   9   88.19   13.70
  -9 -11   9  342.57   21.10
   9  11  -9  303.07   21.70
  -9  11   9  304.77   20.70
  -8 -11   9   39.50    9.20
   8  11  -9   32.50    9.80
  -8  11   9   37.00    8.70
  -7 -11   9  130.79   13.90
  -7 -11   9  136.29   10.00
   7  11  -9  104.19   14.10
  -7  11   9  118.59   13.60
  -6 -11   9   68.09   10.30
  -6 -11   9   62.29    7.60
   6  11  -9   88.09   12.70
  -6  11   9   59.19    9.90
  -5 -11   9   18.20    5.80
  -5 -11   9   22.10    5.20
  -5  11   9   32.40    7.90
   5  11  -9   26.20    8.20
  -4 -11   9    1.10    2.70
  -4 -11   9    2.80    4.20
   4  11  -9    2.00    5.10
  -4  11   9    3.50    4.40
  -4  11   9    5.40    3.30
  -3 -11   9  116.49   11.10
   3  11  -9  101.39   13.20
  -3  11   9  113.39   10.20
  -3  11   9   93.69   11.20
  -2 -11   9   50.99    7.70
  -2  11   9   38.50    6.50
  -2  11   9   57.89    8.80
   2  11  -9   41.00    8.70
  -1 -11   9   21.70    5.30
  -1  11   9   20.20    5.30
   1  11  -9   24.90    6.70
  -1  11   9   18.50    5.80
   0 -11   9   68.39    9.00
   0  11   9   62.99    8.70
   0  11  -9   82.39   11.30
   0  11   9   68.89    9.30
  -1  11  -9   13.60    6.40
   1  11   9   15.10    5.30
   1  11   9   15.90    5.50
   2  11   9    7.30    4.50
  -2  11  -9    6.90    5.30
   2  11   9   -2.30    3.20
   3  11   9   27.20    7.00
  -3  11  -9   16.60    7.30
   3  11   9   25.40    6.20
   4  11   9    3.80    4.60
  -4  11  -9    5.00    5.70
  -5  11  -9   93.19   13.20
   5  11   9   92.19   12.40
  -6  11  -9   98.69   13.20
   6  11   9  100.09   13.20
  -7  11  -9  277.27   23.80
   7  11   9  280.07   20.20
  -8  11  -9  161.08   19.20
   8  11   9  180.58   20.30
  -9  11  -9   50.79   12.60
 -11 -12   9   27.50    8.90
 -11  12   9   21.10    8.40
 -10 -12   9   33.80    9.40
  10  12  -9   25.40   10.40
 -10  12   9   38.20    9.00
  -9 -12   9    6.30    6.00
   9  12  -9   17.30    8.70
  -9  12   9    9.00    6.20
  -8 -12   9    5.40    4.80
   8  12  -9    0.60    7.30
  -8  12   9   11.50    6.90
  -7 -12   9  234.68   16.80
  -7 -12   9  227.48   14.50
  -7  12   9  230.08   20.50
   7  12  -9  246.68   21.70
  -6 -12   9   13.30    6.60
  -6 -12   9    6.40    3.80
  -6  12   9    7.50    5.40
   6  12  -9    7.90    6.30
  -5 -12   9   43.60    8.50
  -5 -12   9   39.50    6.60
   5  12  -9   40.40   10.30
  -5  12   9   51.09    9.80
  -4 -12   9  132.79   11.90
  -4 -12   9  149.79   15.30
  -4  12   9  129.29   11.50
   4  12  -9  111.19   14.60
  -4  12   9  127.19   14.00
  -3 -12   9  459.55   20.20
  -3  12   9  456.75   19.70
   3  12  -9  472.45   25.10
  -3  12   9  482.55   23.20
  -2 -12   9   13.90    4.70
   2  12  -9    0.90    5.60
  -2  12   9    9.10    4.60
  -2  12   9    7.30    4.90
  -1  12   9    9.00    4.20
   1  12  -9    9.60    5.70
  -1  12   9    9.90    4.90
   0  12   9    5.60    4.70
   0  12  -9    1.60    4.20
   0  12   9   11.70    5.00
  -1  12  -9  392.06   22.10
   1  12   9  369.76   19.10
   1  12   9  328.97   17.70
   2  12   9  156.18   11.90
  -2  12  -9  125.79   14.20
   2  12   9  143.19   14.20
  -3  12  -9   12.00    6.90
   3  12   9   19.50    6.80
  -4  12  -9    1.10    5.30
   4  12   9    9.00    6.10
  -5  12  -9  153.78   16.60
   5  12   9  164.18   16.70
  -6  12  -9    2.90    6.80
   6  12   9    3.50    5.90
  -7  12  -9   -2.40    5.90
   7  12   9    4.60    6.30
  -8  12  -9   42.70   11.30
   8  12   9   41.60   10.60
 -10 -13   9    1.00    5.40
 -10  13   9    0.00    6.00
  10  13  -9   -4.20    9.60
  -9 -13   9    0.80    5.50
   9  13  -9    4.10    8.10
  -9  13   9   -0.70    5.40
  -8 -13   9   49.00   10.00
  -8  13   9   46.90   10.00
   8  13  -9   54.89   12.30
  -7 -13   9   38.10    9.70
  -7  13   9   18.50    7.90
   7  13  -9   23.40    9.20
  -6 -13   9   94.19   13.40
  -6 -13   9   92.59    9.90
   6  13  -9  115.99   15.50
  -6  13   9   86.49   12.40
  -5 -13   9    1.00    4.30
  -5 -13   9    0.40    3.40
   5  13  -9    5.20    6.10
  -5  13   9    4.50    4.80
  -4 -13   9   10.50    5.50
  -4  13   9   15.00    6.10
   4  13  -9   15.70    7.80
  -4  13   9   24.00    6.20
  -3  13   9   80.19    9.60
   3  13  -9   59.49   10.50
  -3  13   9   83.49   12.00
  -2  13   9  190.08   16.50
   2  13  -9  144.49   15.90
  -2  13   9  146.99   13.20
  -1  13   9    7.50    4.70
  -1  13   9    6.70    4.80
   1  13  -9    6.20    5.90
   0  13   9   80.59   10.80
   0  13   9   81.59   10.40
   0  13  -9   50.79    9.80
   1  13   9  155.58   14.10
  -1  13  -9  169.28   17.70
   1  13   9  171.78   15.80
  -2  13  -9  136.89   15.30
   2  13   9  124.39   12.30
   2  13   9  162.48   15.50
   3  13   9    6.20    5.10
  -3  13  -9    3.60    5.90
   4  13   9   66.59   10.90
  -4  13  -9   57.09   11.40
   5  13   9   37.30    9.30
  -5  13  -9   30.30    9.30
  -6  13  -9   72.49   13.70
   6  13   9   93.89   14.40
  -7  13  -9   23.50    8.80
   7  13   9    6.10    7.90
  -9 -14   9   98.89   15.50
   9  14  -9   66.99   15.20
  -9  14   9   64.69   12.30
  -8 -14   9    8.20    6.70
   8  14  -9    6.20    7.70
  -8  14   9   16.90    7.70
  -7 -14   9    4.60    5.70
   7  14  -9   -2.90    7.10
  -7  14   9   -1.90    4.60
  -6 -14   9    2.50    4.70
  -6  14   9   -0.60    5.10
   6  14  -9   -4.60    6.70
  -5 -14   9   36.90    8.70
   5  14  -9   47.40   11.20
  -5  14   9   45.10    9.90
  -4  14   9   23.70    6.50
  -4  14   9   18.40    7.00
   4  14  -9   15.90    7.90
  -3  14   9   26.00    7.50
   3  14  -9   16.80    8.00
  -3  14   9   35.10    7.90
  -2  14   9   41.00    7.90
  -2  14   9   44.70    9.10
   2  14  -9   44.10   10.10
  -1  14   9   98.89   12.40
  -1  14   9   94.39   11.70
   1  14  -9   77.69   13.10
   0  14   9    2.20    4.80
   0  14   9   -0.20    4.10
   0  14  -9   -0.80    4.60
  -1  14  -9   83.79   12.60
   1  14   9  110.99   13.30
   1  14   9  105.29   11.90
  -2  14  -9    6.50    5.10
   2  14   9    4.00    5.40
  -3  14  -9   10.00    6.90
   3  14   9    2.80    5.00
   4  14   9   52.99   10.80
  -4  14  -9   62.89   11.80
   5  14   9   11.10    7.10
  -5  14  -9   -1.80    6.70
   6  14   9    5.90    6.50
  -6  14  -9   -2.20    7.60
  -8 -15   9  250.37   23.70
   8  15  -9  262.57   25.70
  -8  15   9  226.38   22.00
  -7 -15   9  126.09   16.30
   7  15  -9   83.59   15.50
  -7  15   9   84.49   13.60
  -6 -15   9  116.49   15.60
   6  15  -9  113.59   17.90
  -6  15   9  126.89   16.50
  -5  15   9  156.18   17.30
   5  15  -9  134.69   17.00
  -4  15   9   68.89   15.90
   4  15  -9   58.79   12.40
  -4  15   9   87.59   13.30
   3  15  -9    3.40    7.60
  -3  15   9   22.90    7.10
  -3  15   9   28.00    8.60
  -2  15   9  107.59   13.30
   2  15  -9  114.79   15.80
  -2  15   9   92.99   11.90
  -1  15   9   15.00    6.40
   1  15  -9    3.80    7.10
  -1  15   9    5.40    5.30
   0  15  -9   24.10    8.90
   0  15   9   29.10    7.40
   0  15   9   38.00    8.50
   1  15   9    0.90    4.50
   1  15   9   16.80    6.40
  -1  15  -9    4.20    7.10
  -2  15  -9   44.50   10.80
   2  15   9   44.10    9.20
  -3  15  -9  115.79   15.90
   3  15   9  112.29   14.10
   4  15   9   29.00    8.70
  -4  15  -9   28.40    9.20
  -5  15  -9   59.09   12.50
   5  15   9   54.39   10.80
  -7 -16   9  145.89   18.70
  -7  16   9  139.69   17.80
   7  16  -9  114.19   18.10
   6  16  -9    6.40   10.20
  -6  16   9   22.50    9.10
   5  16  -9    8.70   10.30
  -5  16   9   -2.90    5.60
  -4  16   9    1.90    6.70
   4  16  -9  -10.90    5.90
  -3  16   9   44.60    9.70
  -3  16   9   39.90    8.50
   3  16  -9   42.40   11.40
   2  16  -9   38.90   11.10
  -2  16   9   21.30    7.90
  -2  16   9    8.80    6.40
   1  16  -9    1.50    6.80
  -1  16   9   -1.50    5.20
  -1  16   9    4.40    5.70
   0  16  -9   39.20   11.40
   0  16   9   64.99   10.90
   0  16   9   66.49   11.10
   1  16   9   20.40    7.30
  -1  16  -9   14.80    8.60
  -2  16  -9    8.80    8.00
   2  16   9    3.00    5.90
  -3  16  -9   37.10   10.50
   3  16   9   38.30   10.00
  -4  16  -9   21.50   10.20
   4  16   9   17.10    8.00
  -5  17   9   33.50   11.50
   5  17  -9   28.80   11.60
  -4  17   9   67.69   12.90
   4  17  -9   67.99   14.50
   3  17  -9    5.10    9.10
  -3  17   9    7.90    6.50
  -3  17   9    2.70    6.50
   2  17  -9   89.29   16.10
  -2  17   9  122.59   15.40
  -2  17   9  121.09   14.30
   1  17  -9   -2.70    8.10
  -1  17   9    4.50    7.00
  -1  17   9    4.20    7.00
   0  17  -9  231.58   22.70
   0  17   9  180.48   18.00
   0  17   9  254.67   18.70
   1  17   9   19.60    7.80
  -1  17  -9   23.90   10.40
   2  17   9  128.19   15.70
  -2  17  -9  107.09   15.90
 -14   0  10  223.78   17.40
 -13   0  10   -2.10    4.20
 -12   0  10  612.84   25.60
 -12   0  10  640.94   27.70
 -11   0  10    1.40    3.50
 -11   0  10    3.00    4.10
 -10   0  10   -2.00    2.40
 -10   0  10    0.50    3.40
  -9   0  10    4.70    3.80
  -9   0  10   -3.40    2.40
  -8   0  10    0.20    2.60
  -7   0  10   18.00    4.90
  -6   0  10  148.79   10.40
   5   0 -10    6.50    2.00
  -5   0  10    4.40    3.00
   4   0 -10  128.49    6.70
  -4   0  10  139.99    9.70
  -3   0  10    7.80    3.10
  -3   0  10    0.60    1.30
  -2   0  10    7.50    2.20
  -2   0  10   -0.80    2.20
  -1   0  10    4.80    2.60
  -1   0  10    7.00    2.50
   0   0  10   96.59    6.60
   0   0  10  114.69    8.30
   1   0  10    0.80    1.90
   1   0  10   -0.70    2.30
   2   0  10   11.50    3.40
   2   0  10   15.10    3.90
   3   0  10    1.30    2.70
   3   0  10    3.10    3.00
   4   0  10  118.89    9.30
   4   0  10  120.09    9.00
   5   0  10    4.80    3.00
   5   0  10   -1.10    1.70
   6   0  10   25.70    5.40
   6   0  10   26.40    6.40
   7   0  10   -0.20    3.50
   7   0  10   -2.50    2.30
   8   0  10   12.20    5.50
   9   0  10   -2.00    3.30
  10   0  10  219.98   19.90
  11   0  10   24.30    7.90
 -14  -1  10    8.40    6.10
 -14   1  10    0.80    5.80
 -13  -1  10   21.80    6.70
 -13   1  10   24.80    7.50
 -13   1  10    9.60    5.60
 -12  -1  10  103.79   11.10
 -12  -1  10   87.49   11.50
 -12   1  10  104.09   12.20
 -12   1  10  110.49   12.10
 -11  -1  10  371.76   19.80
 -11  -1  10  379.26   18.30
 -11   1  10  388.16   19.70
 -11   1  10  352.16   19.30
 -10  -1  10  147.89   13.60
 -10  -1  10  154.98   11.20
 -10   1  10  143.79   13.70
  -9  -1  10   63.59    8.10
  -9  -1  10   58.49    8.20
  -9   1  10   67.29    9.30
  -8  -1  10  109.39   10.90
  -8  -1  10   85.49    9.20
  -8   1  10   88.59   10.00
  -7  -1  10   51.89    7.00
  -7  -1  10   54.89    7.40
  -7   1  10   48.60    7.40
  -6  -1  10  269.67   12.60
  -6  -1  10  257.27   13.50
  -6   1  10  245.08   14.00
   6   1 -10  259.47    9.70
  -5  -1  10  142.39    8.30
  -5  -1  10  134.59    9.50
   5  -1 -10  139.49    5.40
  -5   1  10  136.49   10.20
   5   1 -10  134.29    6.90
  -4  -1  10  122.39    8.70
   4  -1 -10  122.49    6.10
  -4  -1  10  119.39    7.20
   4   1 -10  115.09    7.10
  -4   1  10  109.89   10.40
  -3  -1  10    2.70    2.30
  -3   1  10    3.90    2.60
   3   1 -10    2.70    1.90
  -3   1  10    3.90    1.90
  -2  -1  10  361.76   13.70
  -2  -1  10  396.66   12.60
  -2  -1  10  379.96   16.10
  -2   1  10  388.06   13.00
  -2   1  10  418.26   17.20
  -1  -1  10  209.28    9.80
  -1  -1  10  205.68    7.40
  -1  -1  10  211.78   11.40
  -1   1  10  240.48   12.20
  -1   1  10  208.58    9.30
   0  -1  10  233.38   12.10
   0  -1  10  256.37   11.20
   0  -1  10  228.28    6.80
   0   1  10  247.18   10.70
   0   1  10  261.87   12.80
   1  -1  10  597.24   20.60
   1  -1  10  614.64   22.10
   1   1  10  602.64   21.80
   1   1  10  633.34   20.60
   2  -1  10  603.34   22.40
   2  -1  10  638.94   21.60
   2   1  10  608.84   22.00
   2   1  10  606.74   21.20
   3  -1  10  631.54   22.60
   3  -1  10  618.14   23.20
   3   1  10  613.84   22.60
   3   1  10  643.34   22.60
   4  -1  10  333.57   15.60
   4  -1  10  297.07   15.10
   4   1  10  310.17   15.00
   5  -1  10  122.89   11.80
   5  -1  10  151.18   10.60
   5   1  10  140.39   12.40
   5   1  10  142.29   10.30
   6  -1  10   16.60    5.60
   6   1  10   26.40    5.80
   6   1  10   16.70    5.40
   7  -1  10   43.70    7.30
   7  -1  10   49.00    8.00
   7   1  10   41.90    6.80
   7   1  10   40.90    7.60
   8  -1  10    1.30    3.60
   8   1  10    2.20    3.80
   9  -1  10  153.08   15.80
   9   1  10  182.88   17.10
  10  -1  10   14.10    6.80
  10   1  10   22.30    7.40
  11  -1  10   47.30   10.00
  11   1  10   20.40    7.50
 -14  -2  10   33.40    8.60
 -14   2  10   47.00    9.50
 -13  -2  10   35.40    8.20
 -13   2  10   28.90    7.90
 -13   2  10   33.70    8.70
 -12  -2  10  149.69   15.40
 -12   2  10  174.98   16.50
 -12   2  10  167.48   15.70
 -11  -2  10  135.49   13.80
 -11  -2  10  113.39   11.20
 -11   2  10  120.99   12.90
 -10  -2  10   17.50    4.80
 -10  -2  10    0.20    3.10
 -10   2  10   12.80    5.20
  -9  -2  10   -0.90    2.70
  -9  -2  10   -1.40    2.50
  -9   2  10    1.70    3.60
  -8  -2  10   58.19    7.80
  -8  -2  10   46.30    6.90
  -8   2  10   50.59    7.90
  -7  -2  10   69.79    8.10
  -7  -2  10   68.19    8.10
  -7   2  10   43.30    7.20
   7   2 -10   49.60    5.60
  -6  -2  10   96.89    7.40
  -6  -2  10   89.69    9.40
  -6   2  10   77.79    9.20
   6   2 -10   74.59    6.40
  -5  -2  10  524.05   18.60
  -5  -2  10  549.15   20.50
   5   2 -10  548.95   17.80
  -5   2  10  511.35   21.40
  -4  -2  10  252.67   11.10
  -4  -2  10  273.37   13.30
   4   2 -10  261.57   11.70
  -4   2  10  273.77    8.80
  -4   2  10  264.17   14.30
  -3  -2  10   17.00    3.00
  -3  -2  10   13.20    3.80
   3   2 -10    6.20    2.80
  -3   2  10    7.60    2.10
  -3   2  10    3.70    3.40
  -2  -2  10   50.09    5.80
  -2  -2  10   44.70    6.10
  -2  -2  10   50.19    3.90
  -2   2  10   53.59    7.30
  -2   2  10   48.70    4.60
  -1  -2  10  757.42   23.90
  -1  -2  10  756.42   19.80
  -1  -2  10  791.72   25.90
  -1   2  10  781.62   22.50
  -1   2  10  808.92   26.80
   0  -2  10   19.40    4.50
   0  -2  10   26.60    4.40
   0   2  10   23.10    3.80
   0   2  10   23.60    4.80
   1  -2  10    5.20    2.40
   1  -2  10    7.80    3.30
   1   2  10    4.60    2.40
   1   2  10    8.80    3.10
   2  -2  10  269.57   13.00
   2  -2  10  263.77   13.60
   2   2  10  262.07   12.90
   2   2  10  241.08   12.10
   3  -2  10 1533.75   44.90
   3  -2  10 1611.84   44.30
   3   2  10 1555.14   43.80
   3   2  10 1483.25   43.30
   4  -2  10   11.80    4.10
   4  -2  10   16.00    4.60
   4   2  10   18.90    4.70
   4   2  10   12.50    3.80
   5  -2  10  148.99   10.70
   5  -2  10  141.69   10.80
   5   2  10  146.39   10.40
   5   2  10  150.18   11.00
   6  -2  10  119.39   11.50
   6  -2  10   98.69   11.40
   6   2  10  103.89   10.10
   6   2  10   98.59   10.80
   7  -2  10    6.00    4.30
   7   2  10    3.50    3.70
   7   2  10    1.70    3.50
   8  -2  10  141.19   14.20
   8   2  10  121.59   13.60
   9  -2  10   21.80    7.30
   9   2  10   23.70    7.60
  10  -2  10   11.40    6.10
  10   2  10    8.00    5.70
  11  -2  10   15.10    7.20
  11   2  10    8.20    6.80
 -14  -3  10    0.50    5.10
 -14   3  10    1.90    4.90
 -14   3  10    6.60    6.40
 -13  -3  10   66.29   10.40
 -13   3  10   76.39   11.50
 -13   3  10   70.29   11.00
 -12  -3  10    4.10    4.30
 -12   3  10   -0.60    4.30
 -11  -3  10    3.20    3.60
 -11  -3  10    2.30    3.30
 -11   3  10   -2.80    3.30
 -10  -3  10    6.90    3.50
 -10  -3  10    5.60    3.80
 -10   3  10    7.00    4.50
  -9  -3  10   14.60    4.80
  -9  -3  10    6.60    3.60
  -9   3  10   10.90    4.90
  -8  -3  10   42.70    6.90
  -8  -3  10   43.60    6.50
  -8   3  10   19.10    5.70
  -7  -3  10  277.97   13.90
  -7  -3  10  260.27   13.40
  -7   3  10  271.17   15.40
   7   3 -10  263.37   12.20
  -6  -3  10   39.90    5.80
  -6  -3  10   55.19    6.90
   6   3 -10   35.80    5.30
  -6   3  10   52.99    8.20
  -5  -3  10  178.58   10.50
  -5  -3  10  182.98    9.70
   5   3 -10  162.78    9.50
  -5   3  10  163.88   11.80
  -4  -3  10  804.12   26.10
  -4  -3  10  794.22   23.70
  -4   3  10  804.52   19.90
   4   3 -10  740.83   24.50
  -4   3  10  743.63   27.70
  -3  -3  10  110.79    6.30
  -3  -3  10   97.49    9.20
   3   3 -10  115.89    8.00
  -3   3  10   96.89   10.10
  -3   3  10   89.59    5.00
  -2  -3  10   63.79    4.40
  -2  -3  10   72.09    7.60
   2   3 -10   39.40    5.40
  -2   3  10   68.99    8.30
  -2   3  10   63.09    4.50
  -1  -3  10   23.30    4.50
  -1  -3  10   27.60    5.10
  -1  -3  10   34.70    3.40
  -1   3  10   29.70    5.70
  -1   3  10   25.90    3.80
   0  -3  10  140.59    9.60
   0  -3  10  157.48    9.20
   0   3  10  150.88   10.20
   0   3  10  142.59    8.10
   1  -3  10  186.08   11.20
   1  -3  10  178.98   10.30
   1   3  10  187.28    9.90
   1   3  10  181.18   10.70
   2  -3  10  229.18   12.90
   2  -3  10  229.18   12.20
   2   3  10  221.38   12.00
   2   3  10  224.28   11.70
   3  -3  10  377.86   16.80
   3  -3  10  390.16   17.70
   3   3  10  380.56   16.70
   4  -3  10   48.30    7.30
   4  -3  10   31.30    5.90
   4   3  10   50.49    6.90
   4   3  10   35.70    6.20
   5  -3  10  151.28   11.10
   5  -3  10  129.69   12.10
   5   3  10  151.48   13.50
   5   3  10  159.88   10.60
   6  -3  10  532.25   21.80
   6  -3  10  471.45   21.70
   6   3  10  455.45   19.40
   6   3  10  494.95   22.10
   7  -3  10   12.80    5.60
   7   3  10    7.60    4.70
   8  -3  10   -1.30    3.60
   8   3  10    9.10    4.50
   9  -3  10  105.39   13.30
   9   3  10   77.49   12.00
  10  -3  10   57.69   10.90
  10   3  10   42.50    9.90
  11  -3  10    4.70    6.20
  11   3  10    3.00    6.20
 -13  -4  10   17.50    7.40
 -13   4  10   -0.30    4.80
 -12  -4  10   23.50    7.30
 -12   4  10   14.80    6.40
 -11  -4  10   -0.60    3.60
 -11  -4  10    0.70    3.50
 -11   4  10   -2.20    3.40
 -10  -4  10   75.89   10.50
 -10  -4  10   80.09    8.80
 -10   4  10   75.39   10.40
  -9  -4  10  818.12   30.10
  -9  -4  10  818.02   27.60
  -9   4  10  839.22   31.90
  -8  -4  10   42.20    7.00
  -8  -4  10   44.70    6.20
  -8   4  10   44.80    8.10
  -7  -4  10   27.50    5.50
  -7  -4  10   22.20    4.70
   7   4 -10   18.40    4.70
  -7   4  10   19.60    5.60
  -6  -4  10  160.78    9.80
  -6  -4  10  142.19    9.60
   6   4 -10  139.89    9.60
  -6   4  10  151.08   11.60
  -5  -4  10  368.36   15.40
  -5  -4  10  417.96   17.20
   5   4 -10  415.16   16.60
  -5   4  10  438.46   19.60
  -4  -4  10  721.03   24.40
  -4  -4  10  720.53   22.30
   4   4 -10  655.53   23.40
  -4   4  10  699.43   26.60
  -4   4  10  697.73   18.20
  -3  -4  10 1300.77   34.80
  -3  -4  10 1296.57   38.20
   3   4 -10 1342.17   38.40
  -3   4  10 1322.87   33.00
  -3   4  10 1328.07   40.90
  -2  -4  10  142.89    7.00
  -2  -4  10  145.69    9.60
  -2   4  10  134.99   12.20
  -2   4  10  131.49    6.90
   2   4 -10  133.09    9.20
  -1  -4  10   92.49    5.20
  -1  -4  10   88.59    8.70
   1   4 -10   86.79    8.40
  -1   4  10   84.69    6.10
  -1   4  10   83.29    9.00
   0  -4  10  216.48   11.70
   0  -4  10  209.78   12.10
   0   4  10  221.48   12.40
   0   4  10  209.38   10.30
   1  -4  10  167.78   10.40
   1  -4  10  179.48   11.30
   1   4  10  163.18   10.60
   1   4  10  170.78    9.80
   2  -4  10    7.50    3.40
   2  -4  10   15.60    4.20
   2   4  10    5.90    3.20
   2   4  10    7.00    3.30
   3  -4  10   17.20    4.60
   3  -4  10   25.20    5.30
   3   4  10   30.60    5.30
   3   4  10   28.20    5.60
   4  -4  10   13.20    4.40
   4  -4  10    7.00    3.40
   4   4  10   12.90    3.90
   4   4  10   23.00    5.30
   5  -4  10  584.54   23.40
   5  -4  10  559.24   23.30
   5   4  10  537.35   23.00
   5   4  10  549.85   21.10
   6  -4  10  462.35   21.00
   6  -4  10  424.06   19.90
   6   4  10  456.25   21.40
   6   4  10  394.56   17.70
   7  -4  10    1.90    5.40
   7   4  10    0.40    3.60
   8  -4  10  143.49   14.70
   8   4  10  137.29   14.60
   9  -4  10   34.00    8.40
   9   4  10   37.20    9.50
  10  -4  10    2.10    4.20
  10   4  10    3.10    4.30
 -13  -5  10   63.09   11.00
 -13   5  10   69.09   11.50
 -12  -5  10    1.00    4.20
 -12   5  10   13.80    6.50
 -11  -5  10    7.20    4.90
 -11   5  10    3.80    5.20
 -10  -5  10   12.10    5.10
 -10  -5  10   12.70    4.50
 -10   5  10    8.90    5.40
  -9  -5  10  454.35   18.90
  -9  -5  10  474.35   21.80
  -9   5  10  507.35   23.80
  -8  -5  10  529.95   20.40
  -8  -5  10  525.85   22.30
   8   5 -10  516.25   21.50
  -8   5  10  548.75   24.40
  -7  -5  10  169.18   10.40
  -7  -5  10  156.38   10.80
   7   5 -10  152.48   11.10
  -7   5  10  176.48   13.00
  -6  -5  10   18.70    4.40
  -6  -5  10   12.70    3.80
   6   5 -10   10.30    4.40
  -6   5  10   27.40    6.40
  -5  -5  10    8.30    3.10
  -5  -5  10    7.90    3.30
  -5   5  10    2.80    3.50
   5   5 -10    3.30    3.60
  -5   5  10    5.50    2.00
  -4  -5  10 1366.26   38.80
  -4  -5  10 1329.87   36.50
  -4   5  10 1299.67   41.00
  -4   5  10 1321.17   32.20
   4   5 -10 1226.18   38.30
  -3  -5  10  479.75   16.80
  -3  -5  10  492.45   19.40
  -3   5  10  506.85   15.40
  -3   5  10  483.85   21.10
  -2  -5  10  323.97   12.40
  -2  -5  10  349.96   15.70
  -2   5  10  325.97   12.30
   2   5 -10  340.47   15.80
  -2   5  10  292.87   15.90
  -1  -5  10   20.60    4.60
  -1  -5  10   30.50    4.20
   1   5 -10   22.70    5.00
  -1   5  10   19.80    3.90
  -1   5  10   13.80    4.50
   0  -5  10   50.59    7.40
   0   5 -10   56.39    7.40
   0   5  10   53.59    6.30
   0   5  10   37.90    6.50
   1  -5  10  244.28   13.70
   1  -5  10  269.87   13.90
   1   5  10  239.28   13.30
   1   5  10  256.17   12.60
   2  -5  10  268.77   14.40
   2  -5  10  267.87   14.30
   2   5  10  266.47   13.70
   3  -5  10   29.90    5.80
   3  -5  10   42.90    6.80
   3   5  10   28.20    5.40
   3   5  10   31.10    5.80
   4  -5  10   27.00    5.80
   4  -5  10   38.00    6.80
   4   5  10   30.30    6.20
   4   5  10   28.20    5.30
   5  -5  10  202.08   13.00
   5  -5  10  186.38   13.10
   5   5  10  186.48   11.30
   5   5  10  165.08   12.50
   6  -5  10  214.78   14.50
   6   5  10  198.58   14.40
   7  -5  10   -2.20    3.80
   7   5  10    7.00    5.00
   8  -5  10   16.60    5.90
   8   5  10   19.70    7.00
   9  -5  10   27.00    7.80
   9   5  10   23.30    7.90
  10  -5  10  269.57   19.60
  10   5  10  244.48   21.80
 -13  -6  10   12.20    6.90
 -13   6  10   11.70    7.60
 -12  -6  10   33.00    8.20
 -12   6  10   13.60    7.60
 -11  -6  10  293.37   18.70
 -11   6  10  308.07   19.90
 -10  -6  10  179.18   16.20
 -10  -6  10  155.88   10.50
 -10   6  10  163.08   15.80
  -9  -6  10  200.78   14.10
  -9  -6  10  215.88   12.20
  -9   6  10  239.78   16.30
  -8  -6  10   18.90    4.80
  -8  -6  10    6.70    4.30
  -8   6  10   15.90    5.70
   8   6 -10   16.90    5.80
  -7  -6  10    7.60    3.30
  -7  -6  10    6.20    3.40
   7   6 -10    4.50    4.40
  -7   6  10    1.10    3.30
  -6  -6  10  285.17   14.00
  -6  -6  10  251.07   13.20
  -6   6  10  241.28   15.50
   6   6 -10  259.47   14.70
  -5  -6  10   13.30    3.70
  -5  -6  10   16.10    4.20
  -5   6  10    4.70    3.80
   5   6 -10   10.50    4.70
  -4  -6  10   26.20    4.80
  -4  -6  10   23.00    5.00
   4   6 -10    7.90    3.70
  -4   6  10   14.10    4.90
  -4   6  10   23.70    3.10
  -3  -6  10  322.17   13.70
  -3  -6  10  336.47   15.70
  -3   6  10  353.96   17.40
   3   6 -10  330.77   16.40
  -3   6  10  323.87   12.00
  -2  -6  10  199.78   10.30
  -2  -6  10  211.78   12.30
  -2   6  10  201.68    9.70
  -2   6  10  212.68   13.50
   2   6 -10  210.68   13.00
  -1  -6  10   82.39    6.50
  -1  -6  10   88.59    9.60
  -1   6  10   78.59    7.30
  -1   6  10   83.19    9.60
   1   6 -10   77.19    8.90
   0  -6  10   14.70    4.70
   0   6  10   13.80    3.60
   0   6 -10    6.60    3.50
   0   6  10   17.40    5.10
   1  -6  10   32.80    6.10
   1   6  10   24.50    5.70
   1   6  10   30.70    5.50
  -1   6 -10   24.20    5.70
   2  -6  10   61.49    7.80
   2  -6  10   68.69    8.80
   2   6  10   56.19    7.60
   2   6  10   47.60    7.00
   3  -6  10  162.08   11.70
   3  -6  10  150.78   11.00
   3   6  10  147.49   10.90
   3   6  10  142.99   10.10
   4  -6  10    5.30    3.60
   4  -6  10    5.30    4.00
   4   6  10   -0.10    2.30
   4   6  10    1.00    3.50
   5  -6  10   26.00    6.30
   5  -6  10   22.80    5.70
   5   6  10   22.80    5.10
   5   6  10   22.50    6.10
   6  -6  10   -2.00    3.20
   6   6  10    3.20    4.40
   7  -6  10    4.50    4.40
   7   6  10   -1.10    3.50
   8  -6  10  128.09   15.00
   8   6  10  112.19   13.60
   9  -6  10   -2.50    4.00
   9   6  10    6.60    5.60
  10  -6  10   49.20   11.30
  10   6  10   57.29   11.50
 -13  -7  10    8.50    5.90
 -13   7  10    8.80    6.80
 -12  -7  10   -5.00    4.00
 -12   7  10   -1.20    5.20
 -11  -7  10    9.30    5.40
 -11   7  10   12.00    6.30
 -10  -7  10  228.58   16.00
 -10   7  10  242.18   17.50
  -9  -7  10   11.70    4.90
  -9  -7  10   17.10    4.70
  -9   7  10    5.80    4.80
  -8  -7  10   17.50    4.90
  -8  -7  10   16.90    5.30
   8   7 -10   30.50    7.40
  -8   7  10   21.10    6.10
  -7  -7  10  101.19   10.60
  -7  -7  10  116.09   10.30
  -7   7  10   96.59   11.30
   7   7 -10  107.39   11.80
  -6  -7  10   17.20    4.50
  -6  -7  10   21.20    5.50
   6   7 -10   21.00    6.30
  -6   7  10   15.00    5.40
  -5  -7  10  329.87   15.80
  -5  -7  10  337.57   15.60
   5   7 -10  325.47   17.20
  -5   7  10  383.66   19.10
  -4  -7  10   22.00    5.00
  -4  -7  10   26.90    4.90
   4   7 -10   20.20    5.60
  -4   7  10   23.20    3.50
  -4   7  10   16.70    4.80
  -3  -7  10  234.68   13.10
  -3  -7  10  228.58   11.90
   3   7 -10  237.78   14.50
  -3   7  10  214.98   10.10
  -3   7  10  229.28   14.20
  -2  -7  10 1909.01   53.69
  -2  -7  10 1978.80   51.59
  -2   7  10 1912.11   55.09
  -2   7  10 1885.31   49.40
   2   7 -10 1944.91   55.49
  -1  -7  10  294.37   15.10
  -1   7  10  283.47   13.10
   1   7 -10  317.57   16.40
  -1   7  10  300.07   16.10
   0  -7  10  458.45   19.60
   0   7  10  460.15   18.00
   0   7  10  438.06   19.80
   0   7 -10  436.36   20.20
   1  -7  10   -0.30    2.40
   1   7  10   -0.50    2.20
  -1   7 -10    3.80    3.90
   1   7  10    5.00    3.80
   2  -7  10   47.10    7.50
   2   7  10   47.70    7.20
   2   7  10   50.89    7.10
  -2   7 -10   44.20    7.20
   3  -7  10   40.80    6.90
   3   7  10   36.70    6.90
  -3   7 -10   27.30    6.40
   3   7  10   38.70    6.40
   4  -7  10  323.27   16.90
   4  -7  10  305.07   17.40
   4   7  10  306.07   17.10
   4   7  10  297.47   14.70
   5  -7  10   48.10    8.00
   5   7  10   62.99    9.40
   6  -7  10   24.70    7.10
   6   7  10    9.60    5.70
   7  -7  10  243.28   16.70
   7   7  10  179.98   16.90
   8  -7  10   11.40    6.40
   8   7  10   20.70    7.90
   9  -7  10   16.80    7.30
   9   7  10   10.20    6.90
  10  -7  10   34.30    9.30
  10   7  10   41.80   11.70
 -12  -8  10    7.40    4.70
 -12   8  10    1.30    5.70
 -11  -8  10    7.40    5.30
 -11   8  10   17.00    7.00
 -10  -8  10    6.30    4.30
 -10   8  10   -3.90    4.40
  -9  -8  10   96.79    9.80
  -9  -8  10  116.99   13.00
  -9   8  10  104.39   13.60
   9   8 -10   98.99   13.20
  -8  -8  10   67.79    9.80
  -8  -8  10   83.49    9.20
   8   8 -10   77.79   11.00
  -8   8  10  106.69   13.40
  -7  -8  10  277.27   15.70
  -7  -8  10  286.17   14.70
   7   8 -10  272.57   17.20
  -7   8  10  257.37   17.10
  -6  -8  10   39.40    6.40
  -6  -8  10   43.80    7.20
   6   8 -10   38.60    8.10
  -6   8  10   30.40    7.10
  -5  -8  10    8.40    3.80
  -5  -8  10    9.70    4.00
  -5   8  10    2.50    3.90
   5   8 -10    4.40    3.80
  -4  -8  10  186.58   11.60
  -4  -8  10  214.18   12.60
  -4   8  10  204.18   13.90
   4   8 -10  182.58   13.50
  -4   8  10  197.18    9.30
  -3  -8  10  319.87   15.40
  -3  -8  10  334.17   16.30
  -3   8  10  328.87   17.60
   3   8 -10  316.37   17.80
  -3   8  10  351.66   13.70
  -2  -8  10  187.08   12.10
  -2  -8  10  217.88   12.40
  -2   8  10  212.88   13.80
  -2   8  10  203.98   10.80
   2   8 -10  208.48   14.20
  -1  -8  10   30.00    5.90
  -1   8  10   20.40    4.30
  -1   8  10   23.00    5.90
   1   8 -10   22.70    6.10
   0  -8  10    4.70    3.20
   0   8 -10    2.10    3.40
   0   8  10    1.10    3.10
   0   8  10    6.00    4.00
   1  -8  10  101.09   10.90
   1   8  10   41.00    6.90
   1   8  10   79.69    9.00
  -1   8 -10   81.89    9.80
   2  -8  10    4.30    3.50
  -2   8 -10   -0.30    3.40
   2   8  10    9.00    4.20
   2   8  10    6.90    3.50
   3  -8  10   59.09    8.40
   3   8  10   47.40    7.90
  -3   8 -10   56.89    9.10
   3   8  10   54.59    7.90
   4   8  10  375.86   17.10
  -4   8 -10  360.66   20.30
   4   8  10  399.16   20.00
   5   8  10   28.70    7.20
  -5   8 -10   12.30    6.30
   6  -8  10   75.09   11.50
   6   8  10   74.09   10.60
   7  -8  10    4.70    4.80
   7   8  10   17.00    7.30
   8  -8  10   14.10    7.10
   8   8  10    9.50    7.00
   9  -8  10   51.79   11.10
   9   8  10   20.20    8.50
 -12  -9  10   35.10    9.70
 -12   9  10   39.00   10.40
 -11  -9  10   30.90    7.90
 -11   9  10   32.30    8.90
 -10  -9  10  134.39   15.10
 -10   9  10  137.89   15.80
  -9  -9  10    4.60    4.70
  -9   9  10    4.30    4.90
   9   9 -10    6.70    6.90
  -8  -9  10   -0.50    3.50
  -8  -9  10    9.60    4.30
  -8   9  10    4.70    5.10
   8   9 -10   -1.80    5.20
  -7  -9  10  292.57   15.20
  -7  -9  10  293.07   16.90
   7   9 -10  185.08   17.20
  -7   9  10  318.87   18.80
  -6  -9  10  142.09   13.30
  -6  -9  10  154.98   11.00
   6   9 -10  150.68   14.80
  -6   9  10  139.89   14.70
  -5  -9  10    6.80    3.70
  -5  -9  10    2.70    2.90
  -5   9  10   10.30    4.80
   5   9 -10   -0.40    4.90
  -4  -9  10  147.39   10.90
  -4  -9  10  128.19   12.10
  -4   9  10  153.28   14.40
  -4   9  10  148.49    8.50
   4   9 -10  128.59   13.00
  -3  -9  10    1.70    3.50
  -3  -9  10   -2.10    2.30
  -3   9  10   -2.00    3.10
  -3   9  10    2.90    2.50
   3   9 -10    0.60    3.70
  -2  -9  10   17.00    4.80
  -2  -9  10   12.80    4.10
   2   9 -10   11.00    5.10
  -2   9  10   11.30    3.50
  -2   9  10   15.10    5.20
  -1  -9  10   79.49    9.10
  -1   9  10   94.19    9.20
  -1   9  10   91.59   10.90
   1   9 -10   72.79   10.00
   0  -9  10   79.09    9.70
   0   9  10   65.59    9.20
   0   9 -10   61.89    9.40
   0   9  10   52.39    7.60
   1  -9  10  129.89   12.00
   1   9  10  128.59   11.70
  -1   9 -10  136.49   13.80
   2  -9  10   -2.80    2.20
  -2   9 -10    0.10    3.20
   2   9  10    1.50    3.70
   2   9  10    2.60    4.00
   3  -9  10   52.59    8.50
  -3   9 -10   37.20    8.30
   3   9  10   57.99    9.20
   3   9  10   46.50    7.50
  -4   9 -10   93.19   11.70
   4   9  10  108.99   12.60
  -5   9 -10  123.09   14.00
   5   9  10  132.39   14.00
   6   9  10  110.69   13.80
  -6   9 -10   87.19   12.60
   7   9  10    5.60    6.00
  -7   9 -10    5.20    6.00
   8   9  10   24.70    9.40
  -8   9 -10   17.70    8.80
   9   9  10   42.30   10.70
  -9   9 -10   61.69   12.70
 -11 -10  10   61.89   10.80
 -11  10  10   92.19   14.00
 -10 -10  10    3.10    5.50
 -10  10  10    4.10    5.90
  -9 -10  10  293.87   18.70
  -9  10  10  295.87   19.90
   9  10 -10  218.98   20.40
  -8 -10  10   19.00    5.50
  -8 -10  10   19.80    6.00
  -8  10  10   22.10    6.60
   8  10 -10    5.40    5.20
  -7 -10  10  152.28   11.10
  -7 -10  10  131.59   13.90
  -7  10  10  164.68   16.30
   7  10 -10  158.08   16.50
  -6 -10  10  733.43   28.90
  -6 -10  10  721.03   26.60
   6  10 -10  721.83   31.30
  -6  10  10  736.63   30.70
  -5 -10  10    2.00    3.60
  -5 -10  10    6.50    3.70
  -5  10  10    3.30    4.30
   5  10 -10    0.30    4.80
  -4 -10  10   37.90    6.60
   4  10 -10   24.90    7.20
  -4  10  10   34.90    5.30
  -4  10  10   39.30    7.90
  -3 -10  10  112.19   12.00
  -3 -10  10  101.49   10.60
  -3  10  10   85.89    8.50
  -3  10  10   84.59   11.00
   3  10 -10   81.29   11.00
  -2 -10  10   45.00    7.10
  -2  10  10   35.40    7.60
   2  10 -10   29.20    7.10
  -2  10  10   48.70    6.60
  -1 -10  10   -0.10    3.10
  -1  10  10    6.30    3.50
   1  10 -10   -0.90    4.30
  -1  10  10    0.70    4.00
   0 -10  10  136.09   12.80
   0  10 -10  140.19   14.20
   0  10  10  135.69   12.90
   0  10  10  147.69   10.70
   1 -10  10   26.40    6.10
   1  10  10   29.40    6.30
  -1  10 -10   26.00    7.60
   2 -10  10   54.69    8.20
  -2  10 -10   68.69   10.40
   2  10  10   62.89    9.10
   2  10  10   68.89    9.00
  -3  10 -10    4.70    5.10
   3  10  10   21.70    6.50
   3  10  10   14.20    5.20
   4  10  10   25.90    7.10
  -4  10 -10   23.30    7.10
   5  10  10   93.19   12.20
  -5  10 -10  118.99   14.60
  -6  10 -10   48.90    9.80
   6  10  10   68.89   11.90
   7  10  10  101.89   13.60
  -7  10 -10   85.39   13.70
  -8  10 -10  335.17   24.30
   8  10  10  331.97   23.20
 -11 -11  10   11.10    7.00
 -11  11  10   23.70    8.90
 -10 -11  10   86.09   13.10
 -10  11  10   73.19   13.20
  -9 -11  10    1.80    4.50
  -9  11  10    0.20    4.80
   9  11 -10    2.30    5.30
  -8 -11  10   23.40    7.80
   8  11 -10   26.00    9.40
  -8  11  10   26.60    7.90
  -7 -11  10   88.09   10.00
  -7 -11  10   78.59   11.00
  -7  11  10   82.59   11.80
   7  11 -10   69.79   12.00
  -6 -11  10   12.10    5.00
  -6 -11  10    9.30    4.30
   6  11 -10   17.30    6.80
  -6  11  10    8.20    5.80
  -5 -11  10    1.80    3.90
  -5 -11  10    4.30    3.80
   5  11 -10   10.20    6.20
  -5  11  10    6.90    5.20
  -4 -11  10    4.60    3.40
  -4 -11  10    9.40    4.00
  -4  11  10    4.40    3.10
  -4  11  10   14.30    5.80
   4  11 -10    7.70    6.00
  -3 -11  10    0.70    3.80
  -3 -11  10    0.40    3.50
   3  11 -10    5.40    5.70
  -3  11  10    7.60    3.50
  -3  11  10   -0.40    3.80
  -2 -11  10    2.50    3.50
   2  11 -10    8.80    5.00
  -2  11  10    5.70    3.70
  -2  11  10   -1.40    4.10
  -1 -11  10  103.09   11.30
  -1  11  10  128.19   12.90
   1  11 -10   82.89   11.60
  -1  11  10   84.99    9.50
   0 -11  10  121.79   11.90
   0  11 -10  135.59   14.50
   0  11  10  143.89   13.20
   0  11  10  147.39   13.00
   1 -11  10  280.17   16.20
   1  11  10  276.37   16.00
  -1  11 -10  296.67   18.70
   1  11  10  271.67   15.90
   2  11  10  102.19   11.80
   2  11  10  124.19   12.60
  -2  11 -10   73.29   11.50
   3  11  10   54.29    9.10
   3  11  10   55.99   12.30
  -3  11 -10   43.00    8.90
  -4  11 -10   37.40    8.50
   4  11  10   58.79   10.20
  -5  11 -10   57.69   10.70
   5  11  10   52.29    9.40
   6  11  10   -5.10    5.00
  -6  11 -10    7.90    6.60
   7  11  10   15.40    8.50
  -7  11 -10   15.00    9.20
   8  11  10  137.59   17.80
  -8  11 -10  129.29   18.50
 -10 -12  10    9.90    6.60
 -10  12  10    5.40    6.30
  10  12 -10   -0.30    7.20
  -9 -12  10    6.70    5.60
   9  12 -10   10.60    8.70
  -9  12  10    7.00    6.60
  -8 -12  10  148.59   15.90
  -8  12  10  133.79   15.20
   8  12 -10  115.19   15.80
  -7 -12  10    1.50    4.00
  -7 -12  10    2.90    3.90
  -7  12  10    1.40    5.60
   7  12 -10    7.20    7.70
  -6 -12  10    5.50    5.30
  -6 -12  10   10.70    4.80
  -6  12  10   15.10    6.70
   6  12 -10   22.40    7.80
  -5 -12  10   11.10    4.80
  -5 -12  10    7.30    5.00
   5  12 -10   15.60    7.60
  -5  12  10   13.10    6.10
  -4 -12  10    7.10    5.00
  -4 -12  10   10.20    4.50
   4  12 -10   11.60    6.80
  -4  12  10   12.80    6.40
  -4  12  10    9.70    4.10
  -3 -12  10   20.30    5.50
  -3  12  10   19.50    6.90
   3  12 -10   10.60    7.10
  -3  12  10   22.60    5.60
  -2 -12  10    7.80    4.30
   2  12 -10    0.50    4.20
  -2  12  10    7.80    4.60
  -2  12  10   10.90    5.80
  -1 -12  10   88.19   10.50
  -1  12  10   77.79   10.40
   1  12 -10   98.29   13.20
  -1  12  10   86.19   10.20
   0  12  10  421.36   20.00
   0  12  10  412.56   20.60
   0  12 -10  444.26   24.20
   1  12  10    7.50    4.90
  -1  12 -10    8.30    5.40
   1  12  10   12.20    5.60
   2  12  10  217.98   15.10
   2  12  10  182.18   14.00
  -2  12 -10  177.08   17.50
   3  12  10   23.30    7.30
  -3  12 -10   44.60   10.10
  -4  12 -10   94.29   13.30
   4  12  10  105.19   13.30
  -5  12 -10   -0.20    6.10
   5  12  10    5.80    6.30
  -6  12 -10  165.88   18.70
   6  12  10  158.18   17.60
  -7  12 -10    3.10    7.00
   7  12  10   12.00    7.50
  -9 -13  10    6.90    6.70
  -9  13  10    6.10    6.90
   9  13 -10   11.70   10.50
  -8 -13  10   16.20    6.90
  -8  13  10   27.90    9.40
   8  13 -10   16.30    9.60
  -7 -13  10   90.49   13.20
  -7  13  10   58.39   10.80
   7  13 -10   53.99   12.40
  -6 -13  10   12.90    4.90
  -6 -13  10   11.30    6.60
  -6  13  10   12.10    6.50
   6  13 -10   10.70    7.90
  -5 -13  10   12.80    5.90
  -5 -13  10   21.90    5.90
   5  13 -10    6.40    7.60
  -5  13  10   12.90    6.70
  -4 -13  10   19.50    5.80
   4  13 -10   14.20    6.70
  -4  13  10   37.10    8.80
  -3 -13  10    9.20    4.60
  -3  13  10   12.00    5.90
  -3  13  10    6.60    4.60
   3  13 -10    3.30    6.20
   2  13 -10   41.40   10.10
  -2  13  10   43.10    8.80
  -2  13  10   41.50    7.30
  -1  13  10   22.80    6.00
  -1  13  10    8.10    5.70
   1  13 -10   22.30    8.10
   0  13  10   38.50    7.70
   0  13  10   33.10    7.60
   0  13 -10   19.10    8.00
   1  13  10 1150.58   39.30
  -1  13 -10 1197.18   44.90
   1  13  10 1238.08   40.90
  -2  13 -10  263.87   20.00
   2  13  10  286.17   17.80
   2  13  10  284.77   16.80
   3  13  10   48.30    9.40
  -3  13 -10   48.30   10.30
  -4  13 -10    3.40    6.00
   4  13  10   -3.10    4.50
   5  13  10   83.89   12.90
  -5  13 -10   71.79   12.10
  -6  13 -10   11.70    8.10
   6  13  10   19.30    8.20
  -7  13 -10   -0.20    7.70
  -9 -14  10   -2.70    5.70
   9  14 -10    1.60    8.60
  -9  14  10   -0.50    6.50
  -8 -14  10    9.60    6.10
  -8  14  10    3.70    7.00
   8  14 -10   13.20   10.10
  -7 -14  10   19.20    7.90
  -7  14  10   25.10    8.50
   7  14 -10   14.10    9.40
  -6 -14  10   83.89   13.10
   6  14 -10   66.09   13.20
  -6  14  10   85.09   12.80
  -5 -14  10  220.78   20.70
  -5  14  10  234.98   21.00
   5  14 -10  182.48   20.30
  -4  14  10   16.40    7.30
   4  14 -10   13.50    8.50
   3  14 -10   57.89   12.40
  -3  14  10   52.29    8.50
  -3  14  10   64.19   10.50
   2  14 -10  101.19   14.40
  -2  14  10  111.19   12.10
  -2  14  10  100.39   13.20
   1  14 -10    8.20    6.80
  -1  14  10    2.90    4.80
  -1  14  10    5.10    4.80
   0  14  10   45.50    9.30
   0  14 -10   33.90    9.50
   0  14  10   31.00    7.50
   1  14  10   38.90    7.90
  -1  14 -10   33.20    9.30
   1  14  10   35.40    8.20
   2  14  10    7.30    5.50
  -2  14 -10   26.00    9.10
  -3  14 -10    7.90    7.10
   3  14  10   -2.90    4.70
  -4  14 -10   18.00    7.90
   4  14  10    5.00    5.80
   5  14  10   -5.50    4.60
  -5  14 -10   13.20    7.90
  -6  14 -10    5.20    7.50
   6  14  10    0.00    7.00
  -8 -15  10  119.09   17.00
  -7 -15  10  281.67   21.40
  -7  15  10  339.67   23.60
   7  15 -10  300.07   27.40
  -6 -15  10   58.49   11.50
  -6  15  10   45.10   10.70
   6  15 -10   49.80   12.30
  -5  15  10   82.19   13.10
   5  15 -10   92.19   16.10
   4  15 -10   61.69   13.10
  -4  15  10   57.59   11.30
  -3  15  10   46.30    8.70
  -3  15  10   56.69   10.80
   3  15 -10   34.80   10.50
   2  15 -10    2.80    7.30
  -2  15  10   -0.30    4.40
  -2  15  10    7.40    6.00
  -1  15  10  174.88   15.60
   1  15 -10  173.68   18.90
  -1  15  10  178.98   17.10
   0  15  10   45.10    9.20
   0  15 -10   29.20    8.50
   0  15  10   42.10    8.50
   1  15  10    5.30    5.80
  -1  15 -10    4.20    7.70
   1  15  10    5.40    5.40
  -2  15 -10   39.10   10.10
   2  15  10   28.40    8.20
  -3  15 -10   67.59   12.80
   3  15  10   81.89   12.60
   4  15  10    0.80    4.80
  -4  15 -10    6.60    8.30
  -5  15 -10   15.50    8.90
   6  16 -10  118.79   17.50
  -6  16  10  135.19   17.30
  -5  16  10   87.99   14.50
   5  16 -10   55.39   13.50
  -4  16  10   21.80    8.60
   4  16 -10    4.20    8.70
   3  16 -10   14.50    9.90
  -3  16  10   24.10   12.10
  -3  16  10   22.10    8.40
  -2  16  10    0.80    5.40
   2  16 -10   -1.30    7.90
  -2  16  10    5.50    5.50
   1  16 -10   -5.90    7.10
  -1  16  10    5.00    5.50
  -1  16  10    6.30    5.50
   0  16  10   29.30    8.20
   0  16  10   22.20    7.70
   0  16 -10   53.19   11.70
  -1  16 -10   16.00    9.20
   1  16  10   14.20    6.70
  -2  16 -10   95.69   15.70
   2  16  10   95.59   13.30
  -3  16 -10   17.90    8.80
   3  16  10   17.40    7.40
   4  17 -10   -0.50    8.80
  -4  17  10    7.10    8.40
  -3  17  10   -6.10    6.00
   3  17 -10    4.50    8.50
   2  17 -10   20.50    9.20
  -2  17  10   15.70    7.60
  -2  17  10   13.00    8.10
  -1  17  10  182.88   18.20
   1  17 -10  161.48   20.70
  -1  17  10  160.38   16.20
   0  17 -10   88.69   15.30
   0  17  10   24.60    9.00
   0  17  10   69.19   11.90
  -1  17 -10   -1.00    8.50
   1  17  10   -3.50    5.30
 -13   0  11   39.40    8.70
 -13   0  11   42.20   10.50
 -12   0  11   -1.40    4.00
 -12   0  11   -0.40    4.30
 -11   0  11  113.79   12.60
 -11   0  11   91.09   11.10
 -10   0  11    6.90    4.40
 -10   0  11    6.40    4.10
  -9   0  11  100.09   10.90
  -9   0  11   89.59    9.90
  -8   0  11    7.30    3.70
  -8   0  11    8.80    4.20
  -7   0  11  228.18   13.60
  -6   0  11   18.70    4.90
  -5   0  11  155.18   10.80
   5   0 -11  143.29    7.10
  -4   0  11   -1.00    2.30
   4   0 -11    0.30    2.20
  -3   0  11   40.80    4.60
  -3   0  11   21.80    4.90
  -2   0  11   -0.30    1.70
  -2   0  11    1.90    2.70
  -1   0  11  926.91   30.30
  -1   0  11  937.81   27.20
   0   0  11    4.60    2.30
   0   0  11    4.70    2.80
   1   0  11  285.47   14.30
   1   0  11  294.47   13.20
   2   0  11    4.90    3.00
   2   0  11    8.40    3.40
   3   0  11   79.29    9.50
   3   0  11   72.89    8.20
   4   0  11   -1.40    2.70
   4   0  11    1.30    3.00
   5   0  11  107.79   11.00
   6   0  11   -0.10    3.60
   6   0  11   -2.20    3.40
   7   0  11   71.99    9.40
   7   0  11   82.49   11.30
   8   0  11   -2.90    3.40
   9   0  11    7.70    6.20
  10   0  11   -1.00    4.90
 -13  -1  11   35.40    8.20
 -13   1  11   17.80    6.50
 -13   1  11   24.90    7.10
 -12  -1  11   32.50    7.00
 -12  -1  11   34.30    8.10
 -12   1  11   49.00    9.30
 -12   1  11   61.59    9.70
 -11  -1  11   45.10    7.60
 -11  -1  11   43.80    8.20
 -11   1  11   53.39    9.10
 -11   1  11   61.69    9.60
 -10  -1  11  129.29   12.50
 -10  -1  11  155.18   14.20
 -10   1  11  135.19   13.20
 -10   1  11  131.59   13.30
  -9  -1  11  150.48   13.50
  -9  -1  11  130.29   12.30
  -9   1  11  116.09   12.10
  -8  -1  11  781.62   28.10
  -8  -1  11  763.32   27.40
  -8   1  11  785.02   29.20
  -7  -1  11   45.20    6.60
  -7  -1  11   42.70    6.70
  -7   1  11   41.40    7.20
  -6  -1  11  140.39   10.40
  -6  -1  11  162.08    9.60
   6   1 -11  132.29    7.70
  -6   1  11  147.69   11.10
  -5  -1  11   59.29    7.80
   5  -1 -11   58.69    4.50
  -5   1  11   88.39   10.10
   5   1 -11   64.49    5.90
  -4  -1  11  162.68   10.70
  -4  -1  11  191.98    9.40
   4   1 -11  197.48    9.70
  -4   1  11  181.28   11.60
  -3  -1  11  135.09    7.20
  -3  -1  11  137.79    9.80
  -3   1  11  154.68   10.80
   3   1 -11  135.99    8.20
  -3   1  11  136.99    6.90
  -2  -1  11  237.08    9.20
  -2  -1  11  242.58   12.90
  -2  -1  11  245.88   11.00
  -2   1  11  251.67   13.50
  -2   1  11  254.77   10.30
  -1  -1  11 1239.88   36.60
  -1  -1  11 1221.58   33.60
  -1  -1  11 1154.18   29.20
  -1   1  11 1216.78   36.80
  -1   1  11 1166.18   32.50
   0  -1  11    5.70    3.00
   0  -1  11   10.30    3.20
   0   1  11    5.10    2.50
   0   1  11    3.70    2.70
   1  -1  11   28.00    4.80
   1  -1  11   28.90    5.40
   1   1  11   31.20    5.60
   1   1  11   21.90    4.10
   2  -1  11   39.00    6.50
   2  -1  11   53.29    6.80
   2   1  11   44.40    6.20
   2   1  11   48.90    7.00
   3  -1  11  421.26   17.90
   3  -1  11  459.45   19.60
   3   1  11  427.86   18.60
   3   1  11  413.36   17.90
   4  -1  11   83.69    9.20
   4  -1  11  113.99   11.40
   4   1  11  106.69   10.60
   4   1  11  110.59   10.40
   5  -1  11   15.60    4.80
   5  -1  11   15.20    4.90
   5   1  11   14.90    5.00
   5   1  11   15.00    4.80
   6  -1  11  163.88   12.20
   6   1  11  147.19   11.30
   6   1  11  182.68   12.90
   7  -1  11  106.99   11.40
   7  -1  11  118.59   13.20
   7   1  11   96.59   10.40
   7   1  11  114.99   13.00
   8  -1  11   15.40    6.10
   8   1  11    7.00    4.80
   9  -1  11   20.20    6.40
   9   1  11   25.70    7.80
  10  -1  11   15.20    7.40
  10   1  11    8.20    6.10
 -13  -2  11   79.59   12.30
 -13   2  11   63.89   10.90
 -13   2  11   49.50    9.50
 -12  -2  11   33.30    7.10
 -12  -2  11   38.50    8.30
 -12   2  11   45.80    9.10
 -12   2  11   50.69    9.30
 -11  -2  11    7.60    4.20
 -11  -2  11    7.20    4.70
 -11   2  11    5.50    4.80
 -10  -2  11   17.20    5.40
 -10  -2  11   16.60    5.30
 -10   2  11   21.90    6.50
  -9  -2  11   11.00    4.40
  -9  -2  11   13.00    4.40
  -9   2  11   14.40    5.40
  -8  -2  11  106.69   10.80
  -8  -2  11  119.49   11.50
  -8   2  11  123.79   12.50
  -7  -2  11   60.79    8.20
  -7  -2  11   50.99    7.10
  -7   2  11   52.09    8.20
  -6  -2  11   62.99    7.80
  -6  -2  11   72.49    7.60
  -6   2  11   64.09    8.80
   6   2 -11   54.19    5.70
  -5  -2  11   20.70    4.70
   5  -2 -11   19.20    2.80
   5   2 -11   21.90    4.00
  -5   2  11   19.90    5.50
  -4  -2  11  193.18    9.50
  -4  -2  11  213.18   12.00
  -4   2  11  184.98    7.70
  -4   2  11  194.18   12.70
   4   2 -11  206.18   10.60
  -3  -2  11   27.00    3.80
  -3  -2  11   28.80    5.30
  -3   2  11   19.30    4.80
   3   2 -11   27.40    4.70
  -3   2  11   24.70    3.40
  -2  -2  11 1482.05   40.20
  -2  -2  11 1495.05   42.80
  -2  -2  11 1410.56   36.40
  -2   2  11 1510.95   44.00
  -2   2  11 1494.85   37.90
  -1  -2  11  392.36   15.60
  -1  -2  11  382.86   17.00
  -1  -2  11  379.56   11.50
  -1   2  11  401.16   14.40
  -1   2  11  428.16   18.20
   0  -2  11  210.38   12.20
   0  -2  11  222.88   11.20
   0   2  11  223.78   12.60
   0   2  11  223.88   10.60
   1  -2  11  105.29    9.50
   1  -2  11   98.69   10.10
   1   2  11  103.89   10.20
   1   2  11   77.09    7.70
   2  -2  11  915.71   30.80
   2  -2  11  871.51   28.90
   2   2  11  918.61   29.00
   2   2  11  917.91   30.10
   3  -2  11   26.20    5.50
   3  -2  11   19.20    5.00
   3   2  11   15.40    4.30
   3   2  11   23.00    5.30
   4  -2  11   19.50    5.50
   4  -2  11   23.80    5.10
   4   2  11   14.80    4.40
   4   2  11   20.90    5.20
   5  -2  11   21.80    5.60
   5  -2  11   22.30    5.70
   5   2  11   10.30    4.70
   5   2  11   30.10    6.60
   6  -2  11   14.70    5.10
   6  -2  11   19.10    5.50
   6   2  11    6.40    4.20
   6   2  11   14.00    4.60
   7  -2  11   76.49   10.80
   7   2  11   62.79    9.70
   8  -2  11    1.50    4.40
   8   2  11    5.50    4.30
   9  -2  11   24.20    7.60
   9   2  11   28.60    8.40
  10  -2  11   11.70    6.70
  10   2  11    3.00    5.80
 -13  -3  11   10.50    5.80
 -13   3  11   14.20    6.60
 -13   3  11   21.40    7.90
 -12  -3  11   13.80    6.00
 -12   3  11    7.40    5.60
 -11  -3  11    9.40    4.80
 -11  -3  11   15.30    5.10
 -11   3  11   14.10    6.30
 -10  -3  11   36.90    6.50
 -10  -3  11   30.90    6.80
 -10   3  11   18.60    6.40
  -9  -3  11  180.98   11.90
  -9  -3  11  173.08   12.30
  -9   3  11  180.58   13.80
  -8  -3  11    8.60    3.90
  -8  -3  11   12.10    4.30
  -8   3  11   15.00    5.70
  -7  -3  11    9.80    3.70
  -7  -3  11   14.40    4.40
  -7   3  11   13.00    5.20
  -6  -3  11  118.89    8.60
  -6  -3  11  126.09    9.60
  -6   3  11  143.59   13.40
   6   3 -11  128.19    8.70
  -5  -3  11   72.99    8.40
  -5  -3  11   56.09    6.40
  -5   3  11   71.79    9.20
   5   3 -11   61.89    6.60
  -4  -3  11  122.29    7.50
  -4  -3  11  108.79   10.00
   4   3 -11  109.59    9.20
  -4   3  11  123.19    5.60
  -4   3  11  102.69   10.70
  -3  -3  11  564.64   21.20
  -3  -3  11  541.75   17.30
  -3   3  11  482.05   21.70
   3   3 -11  587.84   20.50
  -3   3  11  541.75   16.30
  -2  -3  11   76.79    5.00
  -2  -3  11   80.89    8.70
  -2   3  11   84.19    5.60
   2   3 -11   50.39    6.50
  -2   3  11   75.19    8.80
  -1  -3  11  513.15   20.50
  -1  -3  11  521.95   19.40
  -1  -3  11  510.65   14.60
  -1   3  11  516.55   17.30
  -1   3  11  502.85   21.00
   0  -3  11    9.60    3.30
   0  -3  11    9.70    4.00
   0   3  11    9.50    2.90
   0   3  11   16.50    4.40
   1  -3  11   50.39    6.60
   1  -3  11   49.20    7.50
   1   3  11   49.30    7.00
   1   3  11   51.49    6.60
   2  -3  11   80.69    8.60
   2  -3  11   83.09    9.40
   2   3  11  110.79    9.70
   2   3  11   85.19    9.20
   3  -3  11  186.98   11.80
   3  -3  11  185.18   12.30
   3   3  11  195.18   11.70
   4  -3  11   28.10    6.20
   4  -3  11   37.00    6.70
   4   3  11   37.50    6.70
   4   3  11   30.70    6.30
   5  -3  11  532.65   22.80
   5  -3  11  530.85   22.60
   5   3  11  520.95   21.70
   5   3  11  515.25   22.40
   6  -3  11  631.64   25.70
   6  -3  11  640.04   26.50
   6   3  11  618.24   24.20
   6   3  11  619.84   26.10
   7  -3  11   20.70    5.80
   7   3  11   27.30    7.30
   8  -3  11  200.78   17.70
   8   3  11  182.38   16.80
   9  -3  11   22.40    6.80
   9   3  11   25.20    8.20
  10  -3  11    9.70    7.10
  10   3  11   13.80    7.10
 -13  -4  11  151.38   16.30
 -13   4  11  175.48   17.30
 -12  -4  11   12.30    5.80
 -12   4  11   18.80    7.10
 -11  -4  11   30.30    6.10
 -11  -4  11   21.80    6.80
 -11   4  11    9.00    5.80
 -10  -4  11  160.58   14.90
 -10  -4  11  130.19   11.70
 -10   4  11  149.09   14.90
  -9  -4  11  139.79   13.40
  -9  -4  11  164.88   11.10
  -9   4  11  164.28   15.60
  -8  -4  11  550.34   22.70
  -8  -4  11  584.94   22.30
  -8   4  11  565.14   25.00
  -7  -4  11  279.37   14.40
  -7  -4  11  306.17   15.00
   7   4 -11  305.47   14.60
  -7   4  11  283.67   16.80
  -6  -4  11   34.30    5.80
  -6  -4  11   31.10    5.60
   6   4 -11   24.30    5.00
  -6   4  11   34.40    7.20
  -5  -4  11  343.07   14.40
  -5  -4  11  361.36   16.30
   5   4 -11  321.37   15.10
  -5   4  11  351.66   18.30
  -4  -4  11 1586.54   45.20
  -4  -4  11 1624.94   42.10
   4   4 -11 1532.95   44.30
  -4   4  11 1557.64   47.70
  -4   4  11 1578.74   37.90
  -3  -4  11   86.19    6.10
  -3  -4  11   81.29    8.50
  -3   4  11   75.99    9.50
  -3   4  11   92.39    5.40
   3   4 -11   82.39    8.50
  -2  -4  11   17.30    2.90
  -2  -4  11   15.30    4.50
  -2   4  11   19.30    5.40
  -2   4  11   11.50    2.80
   2   4 -11    8.70    3.60
  -1  -4  11   14.00    2.60
  -1  -4  11    8.00    3.40
  -1   4  11    8.70    2.70
   1   4 -11    8.90    3.60
  -1   4  11   12.60    4.30
   0  -4  11  144.09   10.60
   0  -4  11  136.19    9.50
   0   4  11  156.48   10.80
   0   4  11  136.29    8.50
   1  -4  11  218.18   12.30
   1  -4  11  183.48   12.10
   1   4  11  213.68   12.50
   1   4  11  191.88   10.90
   2  -4  11   11.50    4.10
   2  -4  11    4.10    3.10
   2   4  11    8.00    3.50
   2   4  11    3.80    2.90
   3  -4  11   43.00    7.00
   3  -4  11   29.50    5.90
   3   4  11   36.30    6.10
   3   4  11   25.40    5.50
   4  -4  11   94.49   10.80
   4  -4  11   75.49    9.20
   4   4  11   83.99    9.80
   4   4  11   79.59    9.20
   5  -4  11  252.37   15.10
   5  -4  11  250.77   15.30
   5   4  11  253.67   14.10
   5   4  11  227.58   14.40
   6  -4  11  243.18   14.90
   6  -4  11  272.77   16.30
   6   4  11  239.38   22.70
   6   4  11  249.08   16.10
   7  -4  11   23.60    6.40
   7   4  11    4.10    4.20
   8  -4  11   16.50    6.80
   8   4  11    9.20    5.50
   9  -4  11    2.30    5.40
   9   4  11    1.30    5.50
  10  -4  11  152.08   17.50
  10   4  11  129.99   17.50
 -13  -5  11    5.70    5.70
 -13   5  11   10.20    6.60
 -12  -5  11   63.39   10.60
 -12   5  11   46.90    9.50
 -11  -5  11  283.17   18.00
 -11   5  11  300.67   19.00
 -10  -5  11  244.68   16.10
 -10  -5  11  290.77   15.00
 -10   5  11  272.37   17.90
  -9  -5  11  601.54   25.40
  -9  -5  11  616.14   23.30
  -9   5  11  606.44   27.00
  -8  -5  11   22.10    5.60
  -8  -5  11   23.30    5.30
  -8   5  11   27.90    6.80
  -7  -5  11   48.80    7.20
  -7  -5  11   44.80    6.90
  -7   5  11   55.69    8.90
   7   5 -11   48.60    7.10
  -6  -5  11   91.29    9.20
  -6  -5  11   72.99    8.40
  -6   5  11   64.69    9.10
   6   5 -11   79.89    9.00
  -5  -5  11   25.90    4.80
  -5  -5  11   21.20    4.90
  -5   5  11   25.10    6.10
   5   5 -11   20.00    5.30
  -4  -5  11  175.08   11.10
  -4  -5  11  169.78    9.60
  -4   5  11  154.28    6.80
   4   5 -11  154.48   11.00
  -4   5  11  172.18   12.70
  -3  -5  11  341.07   16.20
  -3  -5  11  321.07   13.20
  -3   5  11  364.76   12.40
  -3   5  11  328.87   17.60
  -2  -5  11   25.80    4.00
  -2  -5  11   26.10    5.30
   2   5 -11   25.30    5.70
  -2   5  11   25.00    6.10
  -2   5  11   28.60    4.30
  -1  -5  11    6.40    3.30
  -1  -5  11    5.60    2.60
  -1   5  11    6.50    2.70
  -1   5  11    4.90    4.00
   1   5 -11    8.00    3.90
   0  -5  11   25.00    5.70
   0   5 -11   28.20    5.70
   0   5  11   28.50    4.90
   0   5  11   25.00    5.70
   1  -5  11   97.19    9.90
   1  -5  11   85.49    9.50
   1   5  11  111.49    8.40
   1   5  11  115.79   11.20
   2  -5  11  173.68   11.90
   2  -5  11  184.78   11.90
   2   5  11  171.18   11.00
   2   5  11  125.19   10.10
   3  -5  11   75.09    9.50
   3  -5  11   60.09    8.40
   3   5  11   68.59    8.60
   3   5  11   58.59    8.00
   4  -5  11   56.49    8.20
   4  -5  11   56.89    8.70
   4   5  11   49.70    7.20
   4   5  11   45.40    7.60
   5  -5  11  146.09   13.90
   5  -5  11  159.38   12.30
   5   5  11  139.89   10.70
   5   5  11  167.38   15.20
   6  -5  11   44.30    8.40
   6   5  11   53.89    9.40
   7  -5  11    5.60    5.10
   7   5  11    6.90    5.30
   8  -5  11  213.78   16.00
   8   5  11  187.38   18.60
   9  -5  11   23.00    8.10
   9   5  11   30.00    8.10
  10  -5  11  112.69   15.00
  10   5  11  158.28   18.40
 -13  -6  11   43.90    9.80
 -13   6  11   36.10    9.90
 -12  -6  11  115.49   14.30
 -12   6  11   91.79   13.30
 -11  -6  11  183.28   17.70
 -11   6  11  170.98   16.90
 -10  -6  11  216.18   15.50
 -10  -6  11  195.18   12.50
 -10   6  11  215.38   16.60
  -9  -6  11  213.58   12.90
  -9  -6  11  224.38   14.80
  -9   6  11  223.98   16.20
  -8  -6  11  111.09   11.50
  -8  -6  11  102.19   10.20
  -8   6  11  112.99   13.10
   8   6 -11  103.39   16.80
  -7  -6  11  186.88   12.30
  -7  -6  11  187.78   11.80
   7   6 -11  200.28   13.20
  -7   6  11  208.38   14.80
  -6  -6  11   12.60    4.10
  -6  -6  11    9.10    3.60
   6   6 -11   14.40    4.70
  -6   6  11   11.80    5.20
  -5  -6  11   32.90    5.30
  -5  -6  11   43.70    7.10
  -5   6  11   36.70    7.30
   5   6 -11   34.50    6.80
  -4  -6  11   34.20    5.30
  -4  -6  11   41.30    6.70
  -4   6  11   38.40    4.10
   4   6 -11   37.90    6.80
  -4   6  11   44.90    7.60
  -3  -6  11  132.09    8.40
  -3  -6  11  121.59   11.30
  -3   6  11  120.59   12.10
  -3   6  11  137.19    7.40
   3   6 -11  142.79   12.40
  -2  -6  11  505.05   18.00
  -2  -6  11  502.15   20.90
  -2   6  11  485.85   22.10
   2   6 -11  548.15   22.10
  -2   6  11  487.75   17.30
  -1  -6  11    6.30    3.50
  -1  -6  11    7.80    3.10
  -1   6  11    2.90    2.70
  -1   6  11    1.00    3.20
   1   6 -11   10.00    4.10
   0  -6  11   15.20    4.50
   0   6 -11   15.10    5.00
   0   6  11   20.90    5.70
   0   6  11   23.30    4.60
   1  -6  11   11.60    4.20
   1   6  11   10.30    4.50
  -1   6 -11   10.50    4.50
   1   6  11    9.90    3.50
   2  -6  11  171.68   12.40
   2  -6  11  208.18   13.00
   2   6  11  186.68   11.90
   3  -6  11   63.19    9.10
   3  -6  11   65.59    8.90
   3   6  11   54.69    7.90
   3   6  11   35.10    6.20
   4  -6  11  499.15   22.70
   4  -6  11  493.55   22.30
   4   6  11  513.25   22.40
   4   6  11  477.25   20.20
   5  -6  11   32.30    7.50
   5  -6  11   37.40    7.50
   5   6  11   32.90    7.00
   5   6  11   33.20    7.70
   6  -6  11    5.50    4.10
   6   6  11   -3.50    3.70
   7  -6  11  193.18   17.50
   7   6  11  178.48   16.70
   8  -6  11   12.20    5.50
   8   6  11   -3.20    5.40
   9  -6  11    0.20    5.10
   9   6  11    4.20    5.80
 -12  -7  11    9.70    5.60
 -12   7  11    9.30    7.50
 -11  -7  11  455.95   24.20
 -11   7  11  500.05   26.20
 -10  -7  11   64.79   10.20
 -10   7  11   72.79   12.30
  -9  -7  11    2.60    3.10
  -9  -7  11    3.40    4.00
  -9   7  11    3.80    5.10
  -8  -7  11   23.30    6.10
  -8  -7  11   39.10    6.90
  -8   7  11   38.70    8.10
   8   7 -11   34.70    8.00
  -7  -7  11   70.39    8.90
  -7  -7  11   66.69    8.50
  -7   7  11   62.99    9.80
   7   7 -11   48.60    7.80
  -6  -7  11  207.88   12.80
  -6  -7  11  231.58   13.30
   6   7 -11  195.38   13.80
  -6   7  11  234.68   15.80
  -5  -7  11   75.59    8.80
  -5  -7  11   31.90    5.80
   5   7 -11   55.29    8.30
  -5   7  11   56.19    8.60
  -4  -7  11   95.19    9.50
  -4  -7  11   69.79    8.70
  -4   7  11   62.89    5.50
   4   7 -11   35.80    7.10
  -4   7  11   79.19   10.00
  -3  -7  11   42.70    6.10
  -3  -7  11   35.50    6.40
  -3   7  11   57.69    9.00
  -3   7  11   36.90    4.80
   3   7 -11   44.80    7.60
  -2  -7  11  234.08   13.80
  -2  -7  11  232.58   12.20
   2   7 -11  225.68   14.30
  -2   7  11  206.28   10.50
  -2   7  11  242.78   15.00
  -1  -7  11   59.19    8.20
   1   7 -11   75.29    9.30
  -1   7  11   63.79    7.00
  -1   7  11   49.20    8.00
   0  -7  11    9.80    4.30
   0   7  11    3.50    3.40
   0   7 -11    7.50    4.40
   0   7  11    8.90    3.50
   1  -7  11  386.76   18.50
  -1   7 -11  398.36   19.60
   1   7  11  383.66   17.20
   1   7  11  350.46   17.90
   2  -7  11   69.99    9.40
  -2   7 -11   44.10    7.60
   2   7  11   62.99    8.70
   2   7  11   49.90    7.90
   3  -7  11  548.25   23.60
   3   7  11  552.34   23.40
   3   7  11  545.15   22.20
   4  -7  11  272.47   17.00
   4  -7  11  271.87   16.20
   4   7  11  288.87   16.90
   4   7  11  282.67   15.10
   5  -7  11  137.19   14.10
   5   7  11  139.49   14.00
   6  -7  11  118.69   13.70
   6   7  11  121.49   14.00
   7  -7  11   23.40    7.50
   7   7  11   29.50    8.00
   8  -7  11   35.30    8.80
   8   7  11   40.80   10.30
   9  -7  11   26.10    8.70
   9   7  11   18.90    9.40
 -12  -8  11    5.30    5.50
 -12   8  11    1.20    6.00
 -11  -8  11    4.30    4.80
 -11   8  11    2.70    5.90
 -10  -8  11   40.80    8.60
 -10   8  11   34.70    9.00
  -9  -8  11   14.70    5.40
  -9  -8  11   16.40    5.00
  -9   8  11    8.00    5.30
  -8  -8  11    2.00    3.30
  -8  -8  11   -0.90    3.30
  -8   8  11   -3.60    3.50
   8   8 -11    2.70    5.70
  -7  -8  11    5.30    3.50
  -7  -8  11    9.30    4.20
   7   8 -11    3.50    5.10
  -7   8  11    1.50    4.40
  -6  -8  11    0.60    3.00
  -6  -8  11    2.80    3.30
  -6   8  11    1.10    4.10
   6   8 -11    1.20    4.50
  -5  -8  11  152.18   11.20
  -5   8  11  150.18   14.50
  -4  -8  11   35.20    6.60
  -4  -8  11   54.29    7.20
  -4   8  11   61.09    9.60
   4   8 -11   33.80    7.60
  -4   8  11   53.99    5.50
  -3  -8  11  201.38   11.80
  -3  -8  11  210.58   13.10
  -3   8  11  175.38    9.50
  -3   8  11  170.18   12.90
   3   8 -11  185.88   14.00
  -2  -8  11   51.99    8.40
  -2  -8  11   48.90    7.10
  -2   8  11   59.19    6.60
  -2   8  11   35.50    7.40
   2   8 -11   47.00    8.50
  -1  -8  11   43.40    6.90
   1   8 -11   59.29    8.80
  -1   8  11   46.20    6.30
  -1   8  11   52.99    8.70
   0  -8  11    6.10    3.60
   0   8 -11    3.20    4.20
   0   8  11    1.70    4.30
   0   8  11    7.60    3.60
   1  -8  11   14.70    5.00
   1   8  11    6.80    4.40
  -1   8 -11    7.00    4.80
   1   8  11    9.50    4.00
   2  -8  11   79.09   10.20
   2   8  11   66.89    9.00
  -2   8 -11   68.49    9.90
   2   8  11   62.69    8.80
   3  -8  11  212.68   14.20
   3   8  11  232.18   14.50
   3   8  11  234.38   13.80
  -3   8 -11  218.68   15.70
   4  -8  11  302.07   17.30
   4   8  11  304.77   15.90
   4   8  11  316.07   17.90
   5   8  11   11.50    5.40
  -5   8 -11    2.20    5.40
   6  -8  11    1.60    4.40
   6   8  11    2.60    5.60
   7  -8  11    9.10    6.30
   7   8  11   24.40    8.00
   8  -8  11  149.99   17.30
   8   8  11  120.49   16.50
   9  -8  11   -3.90    4.90
   9   8  11   -0.60    7.20
 -12  -9  11   25.70    8.20
 -12   9  11   28.60    9.50
 -11  -9  11    9.50    6.20
 -11   9  11    7.90    6.40
 -10  -9  11   39.40    8.30
 -10   9  11   44.80    9.90
  -9  -9  11   11.60    5.50
  -9   9  11    7.80    5.60
  -8  -9  11    5.40    3.60
  -8  -9  11    5.00    4.50
   8   9 -11    5.40    6.30
  -8   9  11    5.50    4.90
  -7  -9  11   14.30    4.50
  -7  -9  11    4.10    3.60
  -7   9  11    4.40    4.50
   7   9 -11   11.20    5.90
  -6  -9  11  258.47   15.50
  -6  -9  11  249.68   14.70
  -6   9  11  262.67   17.40
  -5  -9  11   24.30    5.70
  -5  -9  11   -0.20    2.50
   5   9 -11    9.90    5.30
  -5   9  11   21.40    6.20
  -4  -9  11    2.20    3.70
  -4  -9  11   14.20    4.70
   4   9 -11    2.60    4.70
  -4   9  11    6.60    3.10
  -4   9  11    3.50    4.20
  -3  -9  11  761.72   28.10
  -3  -9  11  755.52   28.10
  -3   9  11  802.02   30.60
   3   9 -11  717.93   30.10
  -3   9  11  740.63   24.00
  -2  -9  11  118.99   11.50
  -2  -9  11  103.99   11.50
  -2   9  11  123.69   13.00
  -2   9  11  113.69    8.50
   2   9 -11  106.49   12.40
  -1  -9  11   42.20    7.30
  -1   9  11   50.99    7.30
  -1   9  11   51.29    8.50
   1   9 -11   36.50    7.50
   0  -9  11  248.78   14.80
   0   9 -11  250.37   16.60
   0   9  11  263.47   15.90
   0   9  11  253.57   14.10
   1  -9  11  150.78   13.90
   1   9  11  102.29   11.60
  -1   9 -11  164.88   15.10
   1   9  11  137.69   12.30
   2  -9  11   38.00    7.30
   2   9  11   32.70    6.60
  -2   9 -11   32.40    7.50
   2   9  11   28.20    6.50
   3  -9  11   44.40    8.10
   3   9  11   53.59    8.40
   3   9  11   52.19    8.50
  -3   9 -11   43.10    9.10
  -4   9 -11  102.99   12.60
   4   9  11  116.79   12.80
  -5   9 -11   10.50    6.80
   5   9  11   24.20    6.90
   6   9  11   32.20    8.10
  -6   9 -11   24.70    8.30
   7   9  11   38.60    9.40
  -7   9 -11   17.00    8.50
   8   9  11  227.58   21.70
  -8   9 -11  222.08   22.10
 -11 -10  11   73.79   12.40
 -11  10  11   82.09   14.20
 -10 -10  11   13.60    6.60
 -10  10  11   27.60    8.80
  -9 -10  11    7.70    5.50
  -9  10  11    3.80    5.70
   9  10 -11   10.80    7.80
  -8 -10  11   32.60    6.70
  -8 -10  11   43.50    8.20
   8  10 -11   38.40    9.80
  -8  10  11   26.80    7.80
  -7 -10  11  412.76   19.20
  -7 -10  11  388.16   20.50
  -7  10  11  368.36   21.70
  -6 -10  11  177.68   13.20
  -6 -10  11  156.38   11.70
   6  10 -11  164.38   15.80
  -6  10  11  157.08   16.00
  -5 -10  11   36.40    6.90
  -5 -10  11   28.40    6.60
   5  10 -11   28.80    7.70
  -5  10  11   26.60    7.20
  -4 -10  11  292.67   16.00
  -4 -10  11  294.97   17.00
  -4  10  11  306.57   18.20
   4  10 -11  268.27   18.20
  -3 -10  11   67.29    9.20
  -3 -10  11   77.39    9.70
   3  10 -11   94.29   12.00
  -3  10  11   85.79    8.30
  -3  10  11   82.39   10.80
  -2 -10  11  178.88   12.60
   2  10 -11  152.58   15.20
  -2  10  11  191.08   14.10
  -2  10  11  180.58   11.20
  -1 -10  11  208.28   13.60
  -1  10  11  203.88   14.20
  -1  10  11  213.88   12.70
   1  10 -11  198.38   15.20
   0 -10  11   14.30    5.20
   0  10 -11   10.80    5.90
   0  10  11   25.50    5.70
   0  10  11   20.90    6.40
   1 -10  11   10.40    4.60
   1  10  11    0.10    2.80
   1  10  11    8.20    4.70
  -1  10 -11   13.30    6.00
   2 -10  11   26.40    6.50
  -2  10 -11   10.20    5.30
   2  10  11   27.90    6.90
   2  10  11   26.60    6.40
   3  10  11   65.59    9.20
  -3  10 -11   62.59   10.90
   3  10  11   83.59   10.70
  -4  10 -11   66.69   10.70
   4  10  11   85.79   11.70
  -5  10 -11   24.40    8.80
   5  10  11   28.10    7.70
   6  10  11   18.10    7.20
  -6  10 -11   18.30    8.50
  -7  10 -11   92.79   14.80
   7  10  11   92.29   14.20
  -8  10 -11   16.00    9.50
   8  10  11   39.90   11.50
 -10 -11  11   18.70    7.70
 -10  11  11   27.20    9.00
  -9 -11  11   35.20    8.50
   9  11 -11   32.00    9.90
  -9  11  11   49.70   10.20
  -8 -11  11   33.30   10.40
  -8 -11  11   31.90    7.70
  -8  11  11   17.50    7.30
   8  11 -11    0.30    6.20
  -7 -11  11   93.69   10.80
  -7 -11  11  121.19   14.00
   7  11 -11   99.09   13.90
  -7  11  11   92.49   12.70
  -6 -11  11  188.38   14.20
  -6 -11  11  183.58   12.80
   6  11 -11  160.68   16.90
  -6  11  11  194.08   18.20
  -5 -11  11   62.09    8.80
  -5 -11  11   55.99    9.30
  -5  11  11   62.29   11.00
   5  11 -11   67.49   10.90
  -4 -11  11   50.29    8.10
  -4 -11  11   47.40    8.60
  -4  11  11   72.59   11.10
   4  11 -11   57.39   10.60
  -3 -11  11  270.37   15.30
  -3 -11  11  241.28   15.90
  -3  11  11  217.98   12.50
   3  11 -11  236.28   17.80
  -3  11  11  231.68   16.20
  -2 -11  11   13.80    5.10
  -2  11  11   15.60    6.30
   2  11 -11    3.80    5.60
  -2  11  11   18.80    5.10
  -1 -11  11  118.99   12.60
  -1  11  11  123.99   11.30
  -1  11  11  123.59   13.00
   1  11 -11   89.49   12.20
   0 -11  11   91.99   10.50
   0  11  11  117.79   11.90
   0  11 -11  102.99   13.00
   0  11  11   94.79   11.30
   1 -11  11   34.60    7.30
   1  11  11   32.50    6.60
  -1  11 -11   37.50    8.40
   1  11  11   13.00    5.40
   2  11  11    0.40    3.90
  -2  11 -11   -3.30    5.10
   2  11  11   -0.80    4.10
  -3  11 -11   14.10    7.30
   3  11  11   36.10    8.50
   4  11  11   51.19    9.30
  -4  11 -11   56.79   10.30
   5  11  11   14.50    6.20
  -5  11 -11   11.90    6.80
  -6  11 -11   30.10    9.30
   6  11  11   36.80    9.80
   7  11  11   30.80    9.80
  -7  11 -11   22.70    9.30
 -10 -12  11   16.80    7.40
 -10  12  11   18.80    8.40
  -9 -12  11    1.00    4.50
  -9  12  11    2.90    5.80
   9  12 -11    9.60    7.60
  -8 -12  11    9.30    5.90
   8  12 -11   10.60    7.70
  -8  12  11    6.40    6.20
  -7 -12  11   13.60    4.90
  -7 -12  11    6.70    5.70
  -7  12  11   20.60    7.90
   7  12 -11   15.60    8.30
  -6 -12  11   30.00    7.60
  -6 -12  11   37.40    7.20
  -6  12  11   45.10    9.70
   6  12 -11   19.60    8.90
  -5 -12  11   56.99   10.00
  -5 -12  11   60.89    9.00
  -5  12  11   73.49   11.70
   5  12 -11   32.10    9.00
  -4 -12  11    3.40    3.90
  -4 -12  11    5.80    4.10
  -4  12  11    5.70    4.90
   4  12 -11    4.40    6.70
  -3 -12  11  116.19   12.40
  -3  12  11  106.89   10.50
  -3  12  11  102.79   13.10
   3  12 -11  119.79   15.20
  -2 -12  11   43.20    7.90
   2  12 -11   44.30    9.50
  -2  12  11   48.70    7.30
  -2  12  11   45.90    9.60
  -1 -12  11    8.10    4.40
   1  12 -11    6.20    6.40
  -1  12  11    6.90    5.30
  -1  12  11   10.30    4.50
   0 -12  11   80.19   10.40
   0  12 -11   85.29   12.30
   0  12  11   83.19   10.10
   0  12  11   90.19   11.40
  -1  12 -11  962.20   38.70
   1  12  11  988.70   35.10
   1  12  11  956.60   34.80
  -2  12 -11   60.19   10.60
   2  12  11   58.69    9.50
   2  12  11   62.49    9.30
   3  12  11   38.10    8.60
  -3  12 -11   44.50   10.10
  -4  12 -11    5.50    6.70
   4  12  11    1.20    5.20
   5  12  11   13.30    6.60
  -5  12 -11   15.70    8.30
  -6  12 -11   54.19   12.40
   6  12  11   58.79   11.30
  -7  12 -11   -7.50    6.70
  -9 -13  11   13.70    7.20
   9  13 -11   21.90   10.40
  -9  13  11    3.20    6.60
  -8 -13  11  116.19   15.00
  -8  13  11  117.09   15.30
   8  13 -11   97.99   15.50
  -7 -13  11    4.40    5.90
  -7 -13  11   14.70    7.70
  -7  13  11   11.70    6.60
   7  13 -11   18.70    9.30
  -6 -13  11   10.30    5.90
  -6 -13  11    1.60    4.00
   6  13 -11   18.40    8.90
  -6  13  11    7.10    5.90
  -5 -13  11   44.40    8.00
  -5 -13  11   42.70    8.80
  -5  13  11   50.79   10.40
   5  13 -11   27.10    9.10
  -4 -13  11   91.89   10.90
   4  13 -11  105.29   15.10
  -4  13  11  114.59   14.70
  -3 -13  11   21.10    6.30
  -3  13  11   10.60    6.40
  -3  13  11   20.80    5.60
   3  13 -11   13.30    8.10
  -2 -13  11  150.18   14.50
   2  13 -11  155.28   17.20
  -2  13  11  149.49   13.10
  -2  13  11  152.58   15.10
  -1  13  11   52.99    9.40
   1  13 -11   56.79   11.40
  -1  13  11   53.39    8.30
   0  13 -11  527.95   27.60
   0  13  11  451.55   22.10
   0  13  11  499.25   23.70
   1  13  11    6.90    5.20
   1  13  11   -0.40    5.10
  -1  13 -11    1.70    5.80
  -2  13 -11   92.39   13.00
   2  13  11   82.99   11.70
   3  13  11   90.29   12.40
  -3  13 -11   73.09   12.10
  -4  13 -11   -7.10    6.20
   4  13  11   -4.10    5.10
  -5  13 -11   13.00    8.60
   5  13  11   20.40    7.20
  -6  13 -11   20.00   10.10
   6  13  11   12.80    8.30
  -8 -14  11   76.59   13.90
  -8  14  11   70.99   13.20
   8  14 -11   65.29   14.30
  -7 -14  11   55.09   11.10
  -7  14  11   49.20   11.70
   7  14 -11   26.50   10.30
  -6 -14  11  265.47   19.60
  -6 -14  11  233.18   15.30
  -6  14  11  268.97   19.90
   6  14 -11  230.98   23.30
  -5 -14  11   70.59   10.00
  -5 -14  11   74.49   11.90
  -5  14  11   98.89   14.30
   5  14 -11   62.69   12.70
  -4 -14  11   24.20    6.60
  -4  14  11   23.00    8.10
   4  14 -11   12.70    8.50
   3  14 -11   16.20    8.60
  -3  14  11   33.80    9.00
  -2  14  11   20.60    6.20
   2  14 -11   10.40    7.50
  -2  14  11    6.80    6.10
  -1  14  11   58.89    9.80
   1  14 -11   48.40   11.20
  -1  14  11   54.99    9.30
   0  14 -11   14.30    8.70
   0  14  11    9.80    5.30
   0  14  11    7.20    5.00
  -1  14 -11   53.09   11.40
   1  14  11   81.09   11.30
   1  14  11   60.79   10.00
  -2  14 -11   62.39   12.70
   2  14  11   79.49   11.40
   3  14  11   40.40    9.40
  -3  14 -11   35.30    9.90
   4  14  11    5.00    6.70
  -4  14 -11    3.20    8.10
   5  14  11    6.50    7.30
  -5  14 -11    7.30    8.00
  -7 -15  11   22.00    8.60
   7  15 -11    4.00   10.70
  -7  15  11   34.30   10.70
  -6 -15  11  365.06   23.30
  -6  15  11  315.97   22.80
   6  15 -11  303.57   27.30
  -5  15  11  178.88   19.10
   5  15 -11  122.89   18.70
   4  15 -11   89.99   15.20
  -4  15  11   94.99   14.00
   3  15 -11   28.80   10.10
  -3  15  11   15.20    7.20
  -2  15  11   65.89    9.90
   2  15 -11   63.39   12.50
  -2  15  11   50.79   10.80
  -1  15  11    1.10    4.80
  -1  15  11    4.30    6.20
   1  15 -11   -3.50    6.40
   0  15  11   61.99   10.90
   0  15 -11   47.30   11.30
   0  15  11   62.59   10.10
  -1  15 -11   14.50    6.70
   1  15  11    7.40    5.70
  -2  15 -11   89.89   14.80
   2  15  11   82.29   12.10
  -3  15 -11   12.00    8.00
   3  15  11   13.80    7.00
  -4  15 -11    0.60    7.60
   5  16 -11   54.39   14.30
  -5  16  11   50.99   11.90
  -4  16  11   22.50    9.00
   4  16 -11   18.60    8.70
   3  16 -11   16.50    8.80
  -3  16  11   16.00    8.10
  -2  16  11    2.40    5.00
  -2  16  11   -1.70    6.40
   2  16 -11    4.20    8.00
  -1  16  11   29.00    9.30
  -1  16  11   35.10    8.50
   1  16 -11   25.80   10.10
   0  16  11   24.30    7.80
   0  16 -11    4.40    8.90
   0  16  11   23.70    7.70
   1  16  11   69.89   11.40
  -1  16 -11   46.20   11.70
  -2  16 -11   21.00    9.90
   2  16  11   20.30    7.50
 -13   0  12   -2.80    4.10
 -13   0  12   -4.90    3.90
 -12   0  12   88.29   11.20
 -12   0  12   79.79   11.70
 -11   0  12    9.10    4.80
 -11   0  12   16.80    5.90
 -10   0  12   24.10    6.20
 -10   0  12   37.90    7.50
  -9   0  12    1.00    3.20
  -9   0  12    7.70    4.10
  -8   0  12 2382.46   66.09
  -8   0  12 2376.36   63.99
  -7   0  12   11.60    4.70
  -6   0  12  435.56   19.90
  -5   0  12    1.10    2.80
   5   0 -12    2.60    2.70
   4   0 -12  447.26   15.60
  -4   0  12  433.16   19.50
  -3   0  12    2.60    3.40
  -3   0  12    3.00    2.10
  -2   0  12  609.14   23.80
  -2   0  12  609.74   19.90
  -1   0  12   -0.50    2.00
  -1   0  12   -0.10    2.60
   0   0  12   13.60    4.30
   0   0  12   13.70    3.60
   1   0  12    2.40    3.20
   1   0  12    2.40    2.40
   2   0  12   29.80    5.80
   2   0  12   33.40    5.70
   3   0  12    7.20    3.90
   3   0  12    7.10    3.60
   4   0  12  318.57   17.10
   4   0  12  328.57   16.60
   5   0  12   -2.20    3.30
   5   0  12   -0.20    3.00
   6   0  12  338.47   18.80
   6   0  12  353.46   18.20
   7   0  12   -4.60    3.40
   7   0  12   -4.10    3.80
   8   0  12   19.60    7.10
   9   0  12   -2.00    5.50
  10   0  12   77.39   13.50
 -13  -1  12   24.20    7.40
 -13   1  12   23.40    7.70
 -13   1  12   23.30    7.40
 -12  -1  12   25.00    7.00
 -12  -1  12   28.70    7.00
 -12   1  12   47.20    9.20
 -12   1  12   29.50    7.50
 -11  -1  12  108.49   11.60
 -11  -1  12   78.39   10.70
 -11   1  12   69.79   10.00
 -11   1  12   94.09   11.50
 -10  -1  12   50.69    8.40
 -10  -1  12   42.10    7.60
 -10   1  12   63.79    9.70
 -10   1  12   40.30    7.20
  -9  -1  12  239.58   14.70
  -9  -1  12  263.97   15.50
  -9   1  12  254.07   15.80
  -8  -1  12  234.38   14.40
  -8  -1  12  247.28   13.90
  -8   1  12  229.68   15.30
  -7  -1  12  244.28   13.00
  -7  -1  12  236.98   14.30
  -7   1  12  254.27   15.30
  -6  -1  12   13.70    3.80
  -6  -1  12    6.50    3.60
  -6   1  12   11.90    4.20
  -5  -1  12  461.05   19.70
  -5  -1  12  457.55   16.90
  -5   1  12  464.95   20.50
   5   1 -12  397.96   15.30
  -4  -1  12    6.60    2.50
  -4  -1  12   10.20    3.90
   4   1 -12    7.90    3.30
  -4   1  12    2.40    3.00
  -4   1  12    8.40    2.30
  -3  -1  12  168.38   11.10
  -3  -1  12  150.08    7.80
  -3   1  12  158.68    8.00
  -3   1  12  180.88   12.10
   3   1 -12  158.58    9.20
  -2  -1  12  965.30   25.90
  -2  -1  12  971.30   28.70
  -2  -1  12  951.10   32.00
  -2   1  12  998.50   27.90
  -2   1  12  980.70   32.80
  -1  -1  12 1033.70   26.40
  -1  -1  12 1088.49   31.40
  -1  -1  12 1089.09   34.50
  -1   1  12 1060.59   34.70
  -1   1  12 1067.29   30.40
   0  -1  12   47.40    6.30
   0  -1  12   58.79    7.90
   0   1  12   65.49    8.40
   0   1  12   48.40    6.00
   1  -1  12  100.89    9.20
   1  -1  12   90.69   10.20
   1   1  12   93.39    9.90
   1   1  12   93.49    8.70
   2  -1  12    0.90    2.30
   2  -1  12    6.60    3.50
   2   1  12    0.50    2.90
   2   1  12    7.20    3.40
   3  -1  12  103.49   11.20
   3  -1  12   83.99    9.10
   3   1  12   88.09   10.20
   3   1  12  109.89   10.50
   4  -1  12    5.40    4.10
   4  -1  12    2.70    2.90
   4   1  12    7.30    4.10
   4   1  12    1.40    2.80
   5  -1  12    5.80    4.00
   5  -1  12    1.20    2.90
   5   1  12    1.40    3.00
   5   1  12   -0.80    2.60
   6  -1  12  289.07   16.50
   6  -1  12  272.27   16.70
   6   1  12  296.67   17.30
   6   1  12  273.37   16.10
   7  -1  12  195.18   14.10
   7  -1  12  197.28   17.20
   7   1  12  198.28   13.80
   7   1  12  196.78   14.80
   8  -1  12   18.00    6.10
   8   1  12   12.30    6.70
   9  -1  12  111.09   14.70
   9   1  12   86.19   13.20
 -13  -2  12   36.30    8.90
 -13   2  12   37.80    8.80
 -13   2  12   31.90    8.10
 -12  -2  12    7.20    4.90
 -12  -2  12   -0.80    4.10
 -12   2  12   15.70    6.20
 -12   2  12    2.40    3.90
 -11  -2  12   -0.10    3.30
 -11  -2  12   -0.50    4.30
 -11   2  12    1.50    4.50
 -10  -2  12   40.70    7.60
 -10  -2  12   45.30    7.80
 -10   2  12   39.50    8.00
  -9  -2  12   86.29   10.10
  -9  -2  12   93.59   10.40
  -9   2  12  104.59   12.50
  -8  -2  12  355.16   17.20
  -8  -2  12  364.06   17.80
  -8   2  12  359.56   19.20
  -7  -2  12   67.59    8.70
  -7  -2  12   74.69    8.40
  -7   2  12   97.39   11.60
  -6  -2  12  244.58   13.90
  -6  -2  12  212.08   11.60
  -6   2  12  224.78   14.50
  -5  -2  12   69.09    8.40
  -5  -2  12   66.79    7.10
   5   2 -12   58.09    6.50
  -5   2  12   51.59    8.40
  -4  -2  12   90.49    6.50
  -4  -2  12   93.29   10.30
  -4   2  12   89.39   10.70
  -4   2  12   93.89    5.50
   4   2 -12   87.79    8.00
  -3  -2  12  182.48   11.50
  -3  -2  12  164.38    8.10
  -3   2  12  162.48    7.90
   3   2 -12  154.88    9.70
  -3   2  12  143.69   11.30
  -2  -2  12  272.97   13.10
  -2  -2  12  308.57   15.50
  -2  -2  12  299.97   10.60
  -2   2  12  313.97   12.10
  -2   2  12  300.87   16.00
  -1  -2  12  686.43   25.00
  -1  -2  12  646.54   17.60
  -1  -2  12  681.03   22.80
  -1   2  12  642.84   21.20
  -1   2  12  683.53   25.60
   0  -2  12   33.70    6.20
   0  -2  12   22.10    4.60
   0   2  12   28.50    6.00
   0   2  12   22.60    4.10
   1  -2  12   46.70    7.20
   1  -2  12   72.29    7.90
   1   2  12   56.79    6.80
   1   2  12   63.19    8.20
   2  -2  12   16.80    4.40
   2  -2  12   15.20    4.90
   2   2  12   17.20    4.90
   2   2  12   15.60    4.10
   3  -2  12    2.80    3.00
   3  -2  12    4.60    3.60
   3   2  12    7.60    3.80
   3   2  12    3.70    3.00
   4  -2  12   55.79    8.80
   4  -2  12   47.20    7.60
   4   2  12   43.20    7.00
   5  -2  12    7.70    4.10
   5  -2  12   10.00    4.40
   5   2  12   16.10    5.30
   5   2  12   12.30    5.30
   6  -2  12  367.66   19.50
   6  -2  12  368.56   19.00
   6   2  12  355.66   19.40
   6   2  12  348.37   18.40
   7  -2  12  341.37   19.60
   7  -2  12  330.17   18.20
   7   2  12  374.76   20.60
   8  -2  12   28.80    8.00
   8   2  12   44.20    9.90
   9  -2  12   70.79   12.50
   9   2  12   79.59   12.70
 -13  -3  12   18.30    6.90
 -13   3  12    8.50    6.10
 -13   3  12   14.70    6.40
 -12  -3  12   63.99    9.90
 -12   3  12   42.80    9.00
 -11  -3  12    8.40    5.20
 -11  -3  12   12.10    5.00
 -11   3  12    8.00    5.80
 -10  -3  12   30.70    6.90
 -10  -3  12   42.40    7.50
 -10   3  12   34.20    7.90
  -9  -3  12   24.20    5.80
  -9  -3  12   36.50    7.30
  -9   3  12   16.80    6.30
  -8  -3  12    9.00    4.00
  -8  -3  12    8.30    4.20
  -8   3  12   -2.80    3.70
  -7  -3  12   16.70    4.70
  -7  -3  12   20.20    5.10
  -7   3  12   23.90    6.30
  -6  -3  12   90.09    9.60
  -6  -3  12   89.49    8.90
   6   3 -12   82.49    7.90
  -6   3  12   84.69   10.40
  -5  -3  12   37.80    6.30
  -5  -3  12   49.50    6.20
  -5   3  12   55.69    8.70
   5   3 -12   37.40    5.70
  -4  -3  12  208.78   10.10
  -4  -3  12  204.38   12.50
  -4   3  12  218.38   14.20
  -4   3  12  211.18    8.40
   4   3 -12  220.08   12.10
  -3  -3  12  206.78    9.40
  -3  -3  12  220.18   13.00
   3   3 -12  228.08   12.30
  -3   3  12  197.78   13.40
  -3   3  12  221.28    9.20
  -2  -3  12  210.18    8.60
  -2  -3  12  197.08   12.10
  -2   3  12  226.88   13.70
   2   3 -12  159.08   10.50
  -2   3  12  213.38    9.50
  -1  -3  12  580.24   21.20
  -1  -3  12  537.15   22.20
  -1  -3  12  557.84   15.80
  -1   3  12  583.14   19.20
  -1   3  12  545.95   23.00
   0  -3  12  403.66   18.60
   0  -3  12  396.16   17.20
   0   3  12  404.86   18.80
   0   3  12  426.46   16.40
   1  -3  12   79.89    8.60
   1  -3  12   90.89   10.60
   1   3  12  102.89   10.50
   1   3  12   80.79    8.30
   2  -3  12   11.90    4.30
   2  -3  12   15.70    5.00
   2   3  12    6.50    3.20
   2   3  12    8.10    3.80
   3  -3  12  218.88   13.30
   3  -3  12  225.88   14.10
   3   3  12  211.88   12.60
   3   3  12  207.48   12.80
   4  -3  12  135.29   12.80
   4  -3  12  152.48   11.60
   4   3  12  139.99   12.90
   4   3  12  153.88   13.70
   5  -3  12  162.48   12.60
   5  -3  12  153.08   14.70
   5   3  12  143.79   13.20
   5   3  12  120.69   12.50
   6  -3  12   24.90    6.60
   6  -3  12   35.70    7.50
   6   3  12   27.60    6.90
   6   3  12   27.20    6.50
   7  -3  12   86.39   11.50
   7  -3  12   87.89   11.20
   7   3  12  103.29   13.50
   8  -3  12   18.90    6.80
   8   3  12   29.60    8.40
   9  -3  12    3.00    5.90
   9   3  12    7.60    6.70
 -13  -4  12    8.10    5.80
 -13   4  12    1.30    5.50
 -12  -4  12   30.90    7.90
 -12   4  12   31.70    8.20
 -11  -4  12   36.80    6.80
 -11  -4  12   37.80    8.10
 -11   4  12   57.69   10.20
 -10  -4  12    5.60    3.80
 -10  -4  12    4.90    4.10
 -10   4  12    3.60    5.20
  -9  -4  12  351.16   17.10
  -9  -4  12  318.17   17.40
  -9   4  12  347.17   19.90
  -8  -4  12    9.60    4.20
  -8  -4  12   10.80    4.40
  -8   4  12    4.80    4.60
  -7  -4  12   27.50    5.50
  -7  -4  12   39.30    6.70
  -7   4  12   21.40    6.10
  -6  -4  12    5.50    3.60
  -6  -4  12    3.80    2.50
  -6   4  12    8.00    5.00
   6   4 -12   11.20    4.60
  -5  -4  12   19.40    4.10
  -5  -4  12   38.30    6.30
  -5   4  12   27.40    6.70
   5   4 -12   14.00    4.70
  -4  -4  12  117.59   11.30
  -4  -4  12   82.89    6.60
  -4   4  12   83.99   10.40
   4   4 -12   93.19    9.20
  -4   4  12   86.89    5.10
  -3  -4  12  224.28   10.10
  -3  -4  12  216.28   12.90
  -3   4  12  234.58    9.60
   3   4 -12  222.68   12.70
  -3   4  12  221.98   14.20
  -2  -4  12   16.90    3.20
  -2  -4  12   15.30    4.50
  -2   4  12   13.30    4.70
  -2   4  12   20.10    3.60
   2   4 -12   14.10    4.20
  -1  -4  12  386.66   18.00
  -1  -4  12  368.66   16.50
   1   4 -12  357.76   16.90
  -1   4  12  362.96   18.20
  -1   4  12  367.56   14.60
   0  -4  12   32.40    6.30
   0  -4  12   45.30    7.00
   0   4  12   39.40    5.60
   0   4  12   56.29    8.10
   1  -4  12   66.29    8.80
   1  -4  12   75.09    8.50
   1   4  12   75.39    9.20
   1   4  12   73.19    7.90
   2  -4  12  169.88   11.50
   2  -4  12  176.98   12.50
   2   4  12  185.38   12.30
   2   4  12  174.58   11.30
   3  -4  12   32.40    7.00
   3  -4  12   26.90    5.90
   3   4  12   29.60    6.30
   4  -4  12   10.90    4.80
   4  -4  12    3.40    3.70
   4   4  12    3.50    4.00
   4   4  12    4.60    3.80
   5  -4  12  396.16   20.20
   5  -4  12  410.26   20.60
   5   4  12  414.06   19.60
   5   4  12  391.76   19.90
   6  -4  12   49.20    8.90
   6  -4  12   50.49    8.50
   6   4  12   34.80    7.40
   7  -4  12   62.29   10.00
   7   4  12   68.39   11.40
   8  -4  12   12.30    6.30
   8   4  12    5.30    5.40
   9  -4  12   42.80   10.10
   9   4  12   55.59   10.60
 -13  -5  12   84.39   12.50
 -13   5  12  104.89   14.50
 -12  -5  12   39.00    8.80
 -12   5  12   31.20    8.70
 -11  -5  12   29.80    7.80
 -11  -5  12   27.50    7.30
 -11   5  12   10.00    6.30
 -10  -5  12    0.90    4.30
 -10  -5  12    5.20    4.30
 -10   5  12    0.70    4.60
  -9  -5  12    6.90    3.80
  -9  -5  12   -0.10    3.40
  -9   5  12    1.40    4.80
  -8  -5  12   19.00    5.10
  -8  -5  12   32.60    6.90
  -8   5  12   47.30    9.00
  -7  -5  12   19.40    5.30
  -7  -5  12   18.90    5.00
  -7   5  12   18.90    6.20
   7   5 -12   23.40    7.30
  -6  -5  12  249.78   13.90
  -6   5  12  217.58   15.30
   6   5 -12  230.58   13.40
  -5  -5  12  388.46   17.90
  -5  -5  12  377.86   16.00
   5   5 -12  349.07   17.10
  -5   5  12  400.06   20.40
  -4  -5  12   12.30    3.40
  -4  -5  12   14.00    4.50
  -4   5  12   23.10    3.10
   4   5 -12   21.20    5.60
  -4   5  12   19.70    6.00
  -3  -5  12  136.89   10.50
  -3  -5  12  156.28    8.50
  -3   5  12  156.58    7.80
  -3   5  12  146.09   13.60
  -2  -5  12  100.99    6.90
  -2  -5  12  103.49   10.50
  -2   5  12  102.49    7.00
   2   5 -12  125.19   11.10
  -2   5  12  105.19   11.80
  -1  -5  12   18.10    5.20
   1   5 -12   26.90    5.90
  -1   5  12   16.50    3.90
  -1   5  12   24.60    6.00
   0  -5  12  280.27   15.70
   0   5  12  283.57   13.30
   0   5 -12  275.47   15.20
   0   5  12  278.07   16.00
   1  -5  12    0.50    2.90
   1  -5  12    0.20    2.30
   1   5  12    5.40    3.20
   1   5  12    5.90    3.80
   2  -5  12  266.77   15.10
   2  -5  12  279.27   15.90
   2   5  12  257.37   14.60
   2   5  12  243.58   13.70
   3  -5  12   24.20    5.90
   3  -5  12   24.00    5.70
   3   5  12   33.00    6.70
   3   5  12   32.20    6.20
   4  -5  12   -1.30    2.80
   4  -5  12   -1.50    3.40
   4   5  12   -1.80    3.20
   4   5  12    3.90    4.00
   5  -5  12   13.50    5.00
   5  -5  12    5.10    4.70
   5   5  12   12.50    5.20
   5   5  12    9.40    4.70
   6  -5  12   39.50    8.50
   6  -5  12   30.00    7.70
   6   5  12   26.30    7.00
   7  -5  12   46.90    9.20
   7   5  12   54.39   10.00
   8  -5  12   14.40    7.20
   8   5  12    6.10    5.90
   9  -5  12   31.60    9.10
   9   5  12   36.50    9.60
 -12  -6  12   -1.00    4.60
 -12   6  12   -0.90    5.60
 -11  -6  12  572.44   26.90
 -11   6  12  517.95   26.90
 -10  -6  12  132.49   12.20
 -10  -6  12  142.29   14.70
 -10   6  12  112.69   13.90
  -9  -6  12   23.70    5.80
  -9  -6  12   19.00    6.10
  -9   6  12   32.90    7.80
  -8  -6  12    9.70    4.20
  -8  -6  12    7.20    4.00
  -8   6  12   11.70    5.90
  -7  -6  12   82.39    9.60
  -7  -6  12   83.99    9.70
  -7   6  12   77.89   11.20
   7   6 -12   95.49   10.70
  -6  -6  12    4.90    3.20
  -6  -6  12   16.70    4.90
   6   6 -12   16.70    6.00
  -6   6  12   22.20    6.50
  -5  -6  12  179.08   10.70
  -5  -6  12  155.88   11.20
   5   6 -12  151.58   13.10
  -5   6  12  133.29   13.30
  -4  -6  12    5.70    2.70
  -4  -6  12    0.80    3.00
  -4   6  12    8.40    4.60
   4   6 -12    4.10    4.70
  -3  -6  12    8.20    3.10
  -3  -6  12    6.10    3.70
   3   6 -12    6.70    4.20
  -3   6  12    5.40    2.60
  -3   6  12    8.60    4.80
  -2  -6  12   51.79    7.60
  -2  -6  12   58.29    6.50
   2   6 -12   51.19    7.80
  -2   6  12   45.50    5.50
  -2   6  12   38.80    7.80
  -1  -6  12   13.10    4.60
   1   6 -12    4.00    3.70
  -1   6  12    6.80    4.00
  -1   6  12    6.00    2.80
   0  -6  12   15.00    4.90
   0   6  12   15.10    3.90
   0   6 -12    4.50    3.50
   0   6  12   11.60    5.40
   1  -6  12  701.83   27.70
   1   6  12  680.93   27.20
  -1   6 -12  736.13   28.00
   1   6  12  728.33   25.40
   2  -6  12  101.39   11.00
   2  -6  12   95.89   10.90
   2   6  12  110.89   11.00
   3  -6  12  230.38   15.10
   3  -6  12  264.37   15.80
   3   6  12  257.87   15.10
   3   6  12  259.37   15.20
   4  -6  12   53.89    9.10
   4  -6  12   34.70    7.40
   4   6  12   39.00    7.30
   4   6  12   41.10    8.00
   5  -6  12   22.60    6.10
   5  -6  12   19.50    6.30
   5   6  12   30.80    7.00
   6  -6  12  143.89   15.00
   6   6  12  180.68   17.50
   7  -6  12   60.59   10.80
   7   6  12   69.69   11.60
   8  -6  12    4.80    5.50
   8   6  12    7.40    6.90
   9  -6  12   -3.00    5.30
   9   6  12   -0.40    7.30
 -12  -7  12    4.40    5.60
 -12   7  12    6.20    6.30
 -11  -7  12   25.10    7.20
 -11   7  12   20.30    7.60
 -10  -7  12  155.28   15.20
 -10  -7  12  145.69   13.00
 -10   7  12  169.08   17.10
  -9  -7  12   10.10    5.30
  -9  -7  12   11.70    4.70
  -9   7  12   13.10    6.50
  -8  -7  12   82.29    9.80
  -8  -7  12   78.19   10.40
  -8   7  12   72.39   11.40
  -7  -7  12    8.60    4.30
  -7  -7  12   14.10    4.70
  -7   7  12   13.50    5.50
   7   7 -12    8.80    5.20
  -6  -7  12   24.50    5.90
  -6  -7  12   17.40    5.00
   6   7 -12   17.60    5.90
  -6   7  12   20.80    6.20
  -5  -7  12   89.09   10.20
  -5  -7  12   94.19    9.70
  -5   7  12   86.79   11.30
   5   7 -12   78.99   10.10
  -4  -7  12    6.50    3.80
  -4  -7  12   16.90    4.30
  -4   7  12    6.30    4.60
   4   7 -12    0.60    2.90
  -3  -7  12   23.20    5.50
  -3  -7  12   19.30    4.50
  -3   7  12    8.90    5.00
   3   7 -12    5.30    4.40
  -3   7  12   11.90    3.30
  -2  -7  12    5.30    3.90
  -2  -7  12    5.90    3.50
  -2   7  12    4.30    4.20
   2   7 -12    4.70    3.90
  -2   7  12    9.50    3.30
  -1  -7  12   78.79    9.80
  -1   7  12   73.29    7.70
  -1   7  12   89.29   11.00
   1   7 -12   92.79   10.40
   0  -7  12  418.26   20.10
   0   7 -12  441.76   20.80
   0   7  12  389.06   17.20
   0   7  12  436.76   20.80
   1  -7  12  233.58   14.60
   1   7  12  190.18   13.70
   1   7  12  228.28   13.20
  -1   7 -12  240.98   15.60
   2  -7  12  293.37   16.80
  -2   7 -12  314.17   18.30
   2   7  12  290.47   15.90
   3  -7  12  259.57   15.90
   3   7  12  232.08   14.40
  -3   7 -12  244.68   16.70
   3   7  12  243.78   15.10
   4  -7  12  930.91   34.00
   4  -7  12  911.31   34.50
   4   7  12  882.71   33.10
   4   7  12  863.41   31.10
   5  -7  12   10.40    5.90
   5  -7  12    8.40    5.60
   5   7  12    9.50    5.60
   6  -7  12   74.79   11.00
   6   7  12   48.50    9.90
   7  -7  12   13.00    6.30
   7   7  12    4.90    6.00
   8  -7  12   31.70    9.70
   8   7  12   32.60   10.20
 -12  -8  12   16.50    7.10
 -12   8  12    9.30    7.10
 -11  -8  12  101.69   13.10
 -11   8  12  128.29   16.00
 -10  -8  12    6.70    4.90
 -10   8  12    3.70    5.40
  -9  -8  12    1.40    3.50
  -9  -8  12    8.50    5.00
  -9   8  12    2.10    5.00
  -8  -8  12    9.90    4.60
  -8  -8  12   10.40    4.50
  -8   8  12   12.00    5.90
   8   8 -12   13.30   12.00
  -7  -8  12   10.60    4.60
  -7  -8  12   14.90    5.00
   7   8 -12   11.80    6.60
  -7   8  12    2.30    4.80
  -6  -8  12   28.40    6.30
  -6  -8  12   23.10    5.60
  -6   8  12   25.70    7.60
   6   8 -12   30.10    7.70
  -5  -8  12    3.20    3.60
  -5  -8  12    0.70    3.30
   5   8 -12   -0.30    3.80
  -5   8  12    4.10    3.70
  -4  -8  12   12.20    4.50
  -4  -8  12   15.30    4.90
  -4   8  12    4.60    4.20
   4   8 -12   11.50    5.70
  -3  -8  12  495.25   20.40
  -3  -8  12  486.05   22.20
  -3   8  12  507.45   17.80
  -3   8  12  509.25   23.80
   3   8 -12  521.45   23.80
  -2  -8  12   40.00    6.50
  -2  -8  12   31.80    6.50
   2   8 -12   23.80    6.90
  -2   8  12   26.60    4.80
  -2   8  12   38.70    8.00
  -1  -8  12   12.60    4.50
  -1   8  12    4.60    3.20
  -1   8  12    5.80    4.90
   1   8 -12    9.70    5.40
   0  -8  12   81.39   10.00
   0   8  12   96.99   11.50
   0   8 -12   78.39   10.80
   0   8  12  100.89    9.80
   1  -8  12  639.84   26.50
   1   8  12  685.93   25.40
   1   8  12  707.23   27.70
  -1   8 -12  630.44   27.60
   2  -8  12  132.09   13.30
   2   8  12  120.39   12.10
  -2   8 -12  105.69   12.00
   2   8  12  121.19   12.50
   3  -8  12  392.66   20.00
  -3   8 -12  366.16   20.70
   3   8  12  363.26   18.80
   3   8  12  364.36   19.20
   4  -8  12   39.70    8.00
   4   8  12   35.10    8.30
  -4   8 -12   57.99   10.50
  -5   8 -12   19.70    7.90
   5   8  12   17.00    6.60
   6  -8  12   42.70    9.80
   6   8  12   65.59   11.30
   7  -8  12   -0.40    5.00
   7   8  12    7.80    6.30
   8  -8  12   71.29   11.80
   8   8  12   83.29   13.50
 -11  -9  12   84.09   12.40
 -11   9  12   98.89   14.60
 -10  -9  12   19.20    7.20
 -10   9  12   11.40    6.70
  -9  -9  12   23.50    6.60
  -9  -9  12   18.30    5.60
  -9   9  12   20.60    7.40
  -8  -9  12   16.10    6.20
  -8  -9  12   31.50    6.60
  -8   9  12   21.40    7.40
   8   9 -12   27.50    8.80
  -7  -9  12   55.79    8.60
  -7  -9  12   67.79    9.20
   7   9 -12   73.69   11.40
  -7   9  12   55.29    9.70
  -6  -9  12  517.45   22.80
  -6  -9  12  511.65   22.70
  -6   9  12  502.05   25.00
  -5  -9  12    3.30    3.90
  -5  -9  12    7.30    4.40
   5   9 -12    4.00    5.30
  -5   9  12    2.10    4.80
  -4  -9  12  371.46   18.90
  -4  -9  12  351.06   17.60
  -4   9  12  353.96   19.50
   4   9 -12  350.56   20.50
  -3  -9  12  489.85   22.30
  -3  -9  12  481.05   21.40
   3   9 -12  475.75   23.90
  -3   9  12  531.75   24.30
  -3   9  12  483.55   18.00
  -2  -9  12  406.66   20.20
  -2   9  12  441.06   22.00
   2   9 -12  472.25   23.00
  -2   9  12  423.66   17.20
  -1  -9  12  174.58   12.80
  -1   9  12  182.38   16.40
   1   9 -12  221.68   15.80
  -1   9  12  183.98   11.30
   0  -9  12   14.70    5.30
   0   9  12   24.00    6.50
   0   9 -12   17.40    6.50
   0   9  12   21.40    5.50
   1  -9  12    5.50    4.20
   1   9  12    6.50    4.20
   1   9  12    5.50    4.50
  -1   9 -12   11.60    5.80
   2  -9  12   98.09   11.40
  -2   9 -12   86.29   11.20
   2   9  12  118.19   12.00
   2   9  12  110.59   12.10
   3  -9  12   47.50    8.80
   3   9  12   43.50    8.40
   3   9  12   61.89    9.10
  -3   9 -12   42.10    9.20
  -4   9 -12  108.49   13.90
   4   9  12  142.69   14.90
  -5   9 -12   23.50    8.20
   5   9  12   39.30    8.90
  -6   9 -12   -6.80    5.50
   6   9  12   -4.60    5.40
   7   9  12  113.19   14.90
   8   9  12  218.58   21.70
  -8   9 -12  280.67   25.20
 -11 -10  12   27.50    9.30
 -11  10  12   52.49   11.40
 -10 -10  12   10.60    5.30
 -10  10  12   -0.90    5.80
  -9 -10  12   25.00    7.40
  -9  10  12   51.19   11.10
  -8 -10  12   17.70    6.40
  -8 -10  12   19.80    5.90
  -8  10  12   18.50    7.30
   8  10 -12   10.40    7.20
  -7 -10  12  563.64   23.90
  -7 -10  12  549.54   24.90
  -7  10  12  494.55   26.00
  -6 -10  12   94.59   11.90
  -6 -10  12   96.39   11.50
   6  10 -12  106.89   13.30
  -6  10  12  111.19   13.20
  -5 -10  12   31.20    6.70
  -5 -10  12   64.69    9.60
   5  10 -12   34.80    9.00
  -5  10  12   54.99   10.00
  -4 -10  12   80.69   11.00
  -4 -10  12   70.99    9.70
   4  10 -12   44.80    9.50
  -4  10  12   94.19   12.00
  -3 -10  12  598.34   25.10
  -3 -10  12  621.64   25.60
  -3  10  12  627.84   27.00
  -3  10  12  581.24   21.30
   3  10 -12  586.84   28.00
  -2 -10  12   65.19    9.30
  -2  10  12   79.89    8.50
  -2  10  12   88.29   11.30
   2  10 -12   66.39   10.40
  -1 -10  12    4.70    3.80
  -1  10  12   11.40    5.90
   1  10 -12    1.30    5.30
  -1  10  12    7.30    4.00
   0 -10  12   33.20    7.20
   0  10  12   25.60    6.00
   0  10 -12   22.70    7.10
   0  10  12   28.90    7.60
   1 -10  12   -1.60    3.30
   1  10  12    0.20    3.70
  -1  10 -12   -3.10    4.00
   1  10  12    8.80    4.50
   2 -10  12  113.79   12.20
  -2  10 -12  127.29   14.50
   2  10  12  142.89   13.60
   2  10  12  132.29   13.50
   3 -10  12    8.50    5.10
   3  10  12   -1.50    5.40
  -3  10 -12   -1.20    4.80
   3  10  12    4.20    4.80
   4  10  12   36.80    8.10
  -4  10 -12    9.20    7.70
   5  10  12   -3.10    4.90
  -5  10 -12    6.70    5.70
   6  10  12   -7.70    4.80
  -6  10 -12   11.90    8.50
  -7  10 -12   17.80    9.60
   7  10  12    9.50    8.00
 -10 -11  12  183.38   18.90
 -10  11  12  214.88   21.80
  -9 -11  12   29.10    8.50
  -9  11  12   13.90    7.50
  -8 -11  12   21.40    7.00
  -8 -11  12   14.10    5.70
  -8  11  12   20.20    7.50
   8  11 -12    7.60    7.00
  -7 -11  12   25.10    6.40
  -7 -11  12   23.90    7.20
  -7  11  12   22.10    8.20
   7  11 -12   35.10    9.70
  -6 -11  12  438.76   22.20
  -6 -11  12  394.86   19.90
   6  11 -12  387.36   24.00
  -6  11  12  394.86   22.80
  -5 -11  12   44.80    7.90
  -5 -11  12   36.90    8.10
  -5  11  12   31.20    8.00
   5  11 -12   30.50    8.90
  -4 -11  12  101.09   12.50
  -4 -11  12   98.19   11.50
   4  11 -12   81.99   12.10
  -4  11  12  112.29   13.60
  -3 -11  12   39.00    7.70
  -3  11  12   17.00    4.90
   3  11 -12   31.10    8.50
  -3  11  12   41.30    8.60
  -2 -11  12   38.80    7.40
   2  11 -12   32.10    8.80
  -2  11  12   38.50    6.50
  -2  11  12   37.60    8.10
  -1 -11  12   -3.00    3.00
   1  11 -12   -1.60    5.20
  -1  11  12    1.70    4.70
  -1  11  12    3.20    3.90
   0 -11  12   30.40    7.00
   0  11 -12   22.30    6.90
   0  11  12   21.00    6.40
   0  11  12   20.80    6.00
   1 -11  12   63.29    9.80
  -1  11 -12   41.60    9.50
   1  11  12   49.99    8.20
   2 -11  12   22.00    6.60
   2  11  12   27.70    7.00
  -2  11 -12   28.50    8.50
   2  11  12   26.80    6.60
  -3  11 -12   79.09   12.10
   3  11  12   68.79   10.40
  -4  11 -12   15.20    7.30
   4  11  12    0.70    4.70
  -5  11 -12   12.10    8.20
   5  11  12   31.40    8.40
  -6  11 -12   70.09   13.40
   6  11  12   67.09   11.90
  -9 -12  12  206.68   20.50
  -9  12  12  254.37   23.70
  -8 -12  12   30.90    8.00
   8  12 -12   12.10    8.40
  -8  12  12   15.10    7.30
  -7 -12  12   38.50    8.60
  -7 -12  12   55.39    8.90
   7  12 -12   50.69   11.20
  -7  12  12   56.09   10.60
  -6 -12  12    6.20    4.40
  -6 -12  12   -2.30    4.20
  -6  12  12   -0.50    5.60
   6  12 -12   -5.10    5.80
  -5 -12  12    0.10    3.30
  -5 -12  12   -0.80    3.20
   5  12 -12   -0.60    6.40
  -5  12  12   -1.10    5.10
  -4 -12  12  214.88   14.60
  -4 -12  12  247.08   16.70
   4  12 -12  200.28   19.00
  -4  12  12  235.08   17.10
  -3 -12  12   15.50    5.80
  -3  12  12    6.00    5.90
   3  12 -12   15.90    7.60
  -2 -12  12   39.60    7.70
  -2  12  12   43.20    7.10
  -2  12  12   44.30    9.20
   2  12 -12   27.70    9.50
  -1 -12  12  156.78   14.90
  -1  12  12  119.09   13.60
   1  12 -12  115.39   14.40
  -1  12  12  130.29   12.40
   0 -12  12  290.07   17.60
   0  12 -12  325.37   21.40
   0  12  12  290.97   18.50
   0  12  12  273.17   16.00
  -1  12 -12   10.20    6.70
   1  12  12    7.70    5.20
   1  12  12   -2.80    4.30
   2  12  12   15.60    6.40
  -2  12 -12    9.40    7.10
   2  12  12   23.50    7.80
  -3  12 -12   -7.20    5.60
   3  12  12    3.70    5.10
   4  12  12  166.08   16.60
  -4  12 -12  193.38   19.80
  -5  12 -12   67.59   12.70
   5  12  12   78.59   12.30
  -6  12 -12   -4.10    6.50
   6  12  12    4.50    6.80
  -8 -13  12   34.50    9.50
   8  13 -12   21.70   10.50
  -8  13  12   21.10    9.40
  -7 -13  12   14.00    7.10
  -7 -13  12    9.40    5.30
   7  13 -12    8.40    7.80
  -7  13  12   17.20    7.50
  -6 -13  12   35.70    8.00
  -6 -13  12   28.20    7.90
  -6  13  12   26.50    8.40
   6  13 -12   22.80    9.50
  -5 -13  12   75.39   10.50
   5  13 -12   53.79   12.20
  -5  13  12   75.39   12.80
  -4 -13  12   13.50    5.50
  -4  13  12    9.20    6.90
   4  13 -12    9.90    7.80
  -3 -13  12   69.29   10.20
  -3  13  12   67.29   11.20
   3  13 -12   43.10   10.00
  -2 -13  12    5.90    5.10
   2  13 -12    5.80    6.30
  -2  13  12   11.50    4.70
  -2  13  12    9.00    5.90
  -1 -13  12    7.20    5.10
   1  13 -12    2.80    6.60
  -1  13  12   13.40    6.00
  -1  13  12    3.80    4.30
   0  13  12   34.50    8.20
   0  13 -12   20.80    8.30
   0  13  12   12.30    6.20
  -1  13 -12   80.39   13.10
   1  13  12  102.29   12.90
   1  13  12  106.99   12.30
   2  13  12    8.40    6.20
  -2  13 -12    6.10    6.70
  -3  13 -12    6.30    7.50
   3  13  12   12.70    6.80
  -4  13 -12   23.60   10.20
   4  13  12   21.70    7.80
  -5  13 -12  108.59   15.80
   5  13  12  126.59   15.60
  -7 -14  12    9.60    7.10
  -7  14  12    3.30    7.60
   7  14 -12    4.70    9.20
  -6 -14  12   80.59   12.90
  -6 -14  12   98.29   12.00
  -6  14  12   82.39   13.90
   6  14 -12   80.89   14.90
  -5 -14  12   95.89   11.80
   5  14 -12   44.30   10.90
  -5  14  12   93.69   13.80
  -4 -14  12    4.80    4.70
   4  14 -12   11.50    8.40
  -4  14  12   -7.70    5.60
  -3 -14  12    4.30    4.40
  -3  14  12    5.40    6.50
   3  14 -12   -2.00    6.50
  -2  14  12   19.40    7.50
  -2  14  12    3.70    4.60
   2  14 -12   12.10    8.20
   1  14 -12    9.40    7.70
  -1  14  12   12.90    6.60
  -1  14  12   12.10    5.50
   0  14  12    7.70    5.00
   0  14  12    9.40    6.50
   0  14 -12   17.90    7.50
   1  14  12   -2.00    5.40
   1  14  12   -1.30    5.10
  -1  14 -12    1.20    7.00
  -2  14 -12   57.99   11.00
   2  14  12   88.69   12.10
  -3  14 -12    9.00    8.20
   3  14  12    2.60    6.30
   4  14  12   59.99   11.60
  -4  14 -12   59.29   13.30
  -6 -15  12   90.09   15.00
  -6  15  12  100.09   15.80
   6  15 -12  105.39   16.10
  -5  15  12  207.98   20.90
   5  15 -12  159.58   20.00
   4  15 -12   56.09   13.40
  -4  15  12   87.29   13.90
   3  15 -12  139.99   18.50
  -3  15  12  173.78   18.10
  -2  15  12   80.99   12.30
   2  15 -12   92.59   14.30
  -1  15  12   54.89    9.70
   1  15 -12   67.19   12.60
  -1  15  12   59.29   10.50
   0  15  12    9.20    5.90
   0  15 -12   14.70    8.50
   0  15  12   16.80    6.80
   1  15  12  111.49   13.30
  -1  15 -12   64.99   13.60
  -2  15 -12   -0.10    8.00
   2  15  12   11.30    6.90
   3  16 -12   26.80   10.70
  -3  16  12   44.50   11.00
  -2  16  12    7.60    7.20
   2  16 -12    2.50    7.70
   1  16 -12    2.10    8.50
  -1  16  12    1.10    6.90
  -1  16  12    2.40    5.10
   0  16  12   50.99   11.20
   0  16  12   45.10    9.10
   0  16 -12   51.49   12.30
 -13   0  13   49.20    9.50
 -13   0  13   63.59   11.30
 -12   0  13    3.50    4.20
 -12   0  13    4.60    5.20
 -11   0  13  341.07   19.30
 -11   0  13  330.77   19.00
 -10   0  13    4.30    4.00
 -10   0  13    2.90    3.90
  -9   0  13  689.43   27.80
  -9   0  13  646.84   25.70
  -8   0  13    3.90    4.10
  -8   0  13   -1.20    3.00
  -7   0  13  106.09   11.50
  -7   0  13  110.79   10.30
  -6   0  13   -3.90    2.70
  -5   0  13   13.30    4.60
   4   0 -13    3.10    2.60
  -4   0  13    7.20    3.90
  -3   0  13   50.49    8.20
  -3   0  13   39.50    5.20
  -2   0  13    0.70    2.20
  -2   0  13    2.10    3.20
  -1   0  13  128.99    8.50
  -1   0  13  110.09   11.50
   0   0  13    2.00    2.60
   0   0  13    1.50    3.10
   1   0  13   43.60    7.20
   1   0  13   43.20    6.50
   2   0  13    7.10    4.30
   2   0  13    4.50    3.10
   3   0  13   12.00    4.20
   3   0  13   20.20    6.00
   4   0  13   -0.30    3.20
   4   0  13   -2.50    2.50
   5   0  13    2.40    4.20
   5   0  13    1.10    3.70
   6   0  13    2.40    3.00
   6   0  13    1.80    4.20
   7   0  13    4.70    5.40
   7   0  13    4.10    4.20
   8   0  13   11.60    6.70
   9   0  13   44.60   10.20
 -13  -1  13   65.89   10.90
 -13   1  13   59.09   10.80
 -13   1  13   61.59   10.50
 -12  -1  13   37.10    8.70
 -12  -1  13   38.40    8.10
 -12   1  13   37.90    8.70
 -12   1  13   38.20    8.40
 -11  -1  13    7.00    4.90
 -11  -1  13   -2.30    3.60
 -11   1  13    3.80    4.10
 -11   1  13   10.70    5.60
 -10  -1  13   33.50    7.10
 -10  -1  13   47.50    8.30
 -10   1  13   55.09    8.70
 -10   1  13   58.29    9.70
  -9  -1  13  115.09   12.30
  -9  -1  13  105.49   11.60
  -9   1  13  128.19   13.80
  -8  -1  13  659.13   25.00
  -8  -1  13  637.44   26.40
  -8   1  13  658.13   27.30
  -7  -1  13  100.29   11.40
  -7  -1  13  106.19   10.10
  -7   1  13   93.89   11.10
  -6  -1  13   92.09   10.20
  -6   1  13  107.59   11.60
  -5  -1  13   98.09    7.50
  -5  -1  13  116.49   11.80
   5   1 -13   93.69    8.00
  -5   1  13   93.89   10.60
  -4  -1  13    7.50    4.10
  -4  -1  13    3.20    2.50
  -4   1  13    3.20    2.30
  -4   1  13    4.50    3.60
   4   1 -13    3.80    2.90
  -3  -1  13  130.39   12.10
  -3  -1  13  127.09    7.20
  -3   1  13  107.29   11.10
   3   1 -13  111.69    8.40
  -3   1  13  129.09    7.60
  -2  -1  13    4.70    3.50
  -2  -1  13    4.30    2.00
  -2  -1  13    2.50    2.50
  -2   1  13    6.80    2.60
  -2   1  13   10.40    4.50
  -1  -1  13  125.59    8.70
  -1  -1  13  121.79   11.50
  -1   1  13  111.89   11.60
  -1   1  13   99.29    7.50
   0  -1  13   21.80    5.40
   0  -1  13   13.90    3.90
   0   1  13   21.90    5.80
   0   1  13   11.00    3.50
   1  -1  13  163.28   10.60
   1  -1  13  143.49   11.20
   1   1  13  149.99   10.10
   1   1  13  147.19   11.20
   2  -1  13  207.58   13.70
   2  -1  13  200.28   12.40
   2   1  13  215.98   12.70
   2   1  13  184.38   12.80
   3  -1  13  174.38   12.00
   3  -1  13  171.98   12.90
   3   1  13  193.18   13.30
   3   1  13  177.98   12.20
   4  -1  13  239.18   14.50
   4  -1  13  239.68   15.50
   4   1  13  255.77   15.10
   4   1  13  217.08   14.70
   5  -1  13  199.38   14.20
   5  -1  13  193.68   13.70
   5   1  13  178.58   13.50
   6  -1  13  201.78   15.10
   6  -1  13  212.18   14.80
   6   1  13  206.88   14.70
   6   1  13  196.78   14.80
   7  -1  13  186.28   16.60
   7  -1  13  120.99   13.60
   7   1  13  195.68   17.70
   8  -1  13   41.90    9.70
   8   1  13   29.00    8.80
   9  -1  13   11.40    6.40
   9   1  13   17.00    8.30
 -13  -2  13   15.00    6.20
 -13   2  13   16.40    6.50
 -13   2  13   16.20    7.30
 -12  -2  13  310.77   17.60
 -12  -2  13  264.57   17.70
 -12   2  13  270.07   18.20
 -12   2  13  270.17   18.60
 -11  -2  13   49.60    8.40
 -11  -2  13   37.30    8.20
 -11   2  13   59.19    9.90
 -10  -2  13   72.69    9.80
 -10  -2  13   71.39    9.80
 -10   2  13   66.39   10.20
  -9  -2  13   25.80    6.40
  -9  -2  13   24.60    5.90
  -9   2  13   17.60    6.30
  -8  -2  13  176.38   11.90
  -8  -2  13  203.88   13.70
  -8   2  13  202.58   14.80
  -7  -2  13   -1.50    2.40
  -7  -2  13   -0.80    2.90
  -7   2  13    5.80    4.40
  -6  -2  13    2.80    2.50
  -6  -2  13    5.00    3.60
  -6   2  13   14.90    5.10
  -5  -2  13   30.40    5.00
  -5  -2  13   36.50    7.30
   5   2 -13   36.50    5.90
  -5   2  13   37.30    7.00
  -4  -2  13   40.70    5.10
  -4  -2  13   28.80    6.40
   4   2 -13   34.60    5.60
  -4   2  13   35.40    4.20
  -4   2  13   28.70    6.10
  -3  -2  13  128.69    7.30
  -3  -2  13  149.59   11.10
  -3   2  13  121.19   12.50
   3   2 -13  144.79    9.60
  -3   2  13  126.99    7.30
  -2  -2  13  257.67    9.90
  -2  -2  13  278.37   13.40
  -2  -2  13  281.07   15.40
  -2   2  13  265.97   11.70
  -2   2  13  300.37   16.20
  -1  -2  13  398.86   18.90
  -1  -2  13  397.86   16.80
  -1   2  13  397.46   15.70
  -1   2  13  400.06   19.30
   0  -2  13   76.39    8.40
   0  -2  13   56.79    8.40
   0   2  13   70.09    9.70
   0   2  13   62.39    7.20
   1  -2  13   35.00    6.50
   1  -2  13   32.40    6.00
   1   2  13   31.30    5.60
   1   2  13   29.70    6.30
   2  -2  13  593.64   24.80
   2  -2  13  603.44   23.20
   2   2  13  559.44   23.80
   2   2  13  567.84   22.30
   3  -2  13    5.20    3.40
   3  -2  13    0.10    3.60
   3   2  13    1.40    3.30
   3   2  13    4.30    3.50
   4  -2  13    0.00    3.50
   4  -2  13   -0.50    3.50
   4   2  13    1.20    3.20
   4   2  13    1.60    3.70
   5  -2  13   41.90    8.20
   5  -2  13   16.00    5.50
   5   2  13   19.70    6.10
   5   2  13   29.90    7.00
   6  -2  13  549.74   24.90
   6  -2  13  539.65   25.20
   6   2  13  536.25   24.90
   6   2  13  514.25   23.80
   7  -2  13    6.90    5.70
   7  -2  13    8.40    5.20
   7   2  13   12.60    6.20
   8  -2  13   12.30    6.30
   8   2  13    8.60    6.30
   9  -2  13   -1.80    5.70
   9   2  13    3.40    6.20
 -13  -3  13   66.19   11.00
 -13   3  13   59.59   10.90
 -13   3  13   68.29   11.80
 -12  -3  13   50.99    9.60
 -12  -3  13   46.40    8.60
 -12   3  13   50.59   10.10
 -11  -3  13   17.70    5.50
 -11  -3  13   23.80    6.20
 -11   3  13   10.20    6.40
 -10  -3  13  124.99   12.40
 -10  -3  13  123.59   13.00
 -10   3  13  104.29   12.70
  -9  -3  13    0.90    3.30
  -9  -3  13    3.10    3.80
  -9   3  13    2.40    5.00
  -8  -3  13   19.70    5.60
  -8  -3  13   10.90    4.50
  -8   3  13   10.20    5.70
  -7  -3  13    3.20    2.90
  -7  -3  13    6.10    3.90
  -7   3  13    2.40    4.20
  -6  -3  13    8.70    3.70
  -6  -3  13   14.40    4.70
  -6   3  13   15.20    5.40
  -5  -3  13   75.89    9.50
  -5  -3  13   63.79    7.10
  -5   3  13   73.19   10.50
   5   3 -13   59.69    7.70
  -4  -3  13   35.40    5.10
  -4  -3  13   38.30    7.00
  -4   3  13   36.20    6.10
   4   3 -13   39.00    6.60
  -4   3  13   39.30    7.40
  -3  -3  13   39.40    4.80
  -3  -3  13   39.00    7.00
  -3   3  13   39.40    4.70
   3   3 -13   31.40    5.70
  -3   3  13   28.70    6.20
  -2  -3  13   10.80    2.60
  -2  -3  13   17.50    5.00
  -2   3  13   12.10    3.20
  -2   3  13   12.30    5.20
   2   3 -13    2.10    2.70
  -1  -3  13  564.94   22.30
  -1  -3  13  643.74   25.10
  -1   3  13  631.24   25.50
  -1   3  13  638.54   21.20
   0  -3  13  230.58   13.00
   0  -3  13  229.18   14.00
   0   3  13  259.27   15.10
   0   3  13  229.58   12.00
   1  -3  13   20.00    4.90
   1  -3  13   15.60    5.10
   1   3  13   22.50    5.10
   1   3  13   10.30    4.20
   2  -3  13   12.20    5.10
   2  -3  13    0.70    3.20
   2   3  13    1.00    3.30
   2   3  13    7.40    4.00
   3  -3  13  239.38   14.30
   3  -3  13  246.58   15.60
   3   3  13  236.28   14.70
   3   3  13  235.48   13.90
   4  -3  13   88.69   10.90
   4  -3  13   95.09   11.10
   4   3  13  107.59   12.00
   5  -3  13   27.10    6.90
   5  -3  13   40.60    8.20
   5   3  13   45.90    8.30
   5   3  13   31.60    7.00
   6  -3  13   37.10    8.30
   6  -3  13   25.90    7.00
   6   3  13   19.90    6.70
   6   3  13   27.30    8.50
   7  -3  13   80.79   11.20
   7  -3  13   62.39   10.00
   7   3  13  103.69   13.60
   8  -3  13   75.79   12.70
   8   3  13   61.79   11.80
   9  -3  13  186.48   19.10
   9   3  13  172.48   18.90
 -12  -4  13   53.19    9.90
 -12   4  13   78.59   12.40
 -11  -4  13    7.40    4.70
 -11  -4  13   17.80    6.30
 -11   4  13   20.20    7.50
 -10  -4  13    3.90    4.60
 -10  -4  13    5.70    4.30
 -10   4  13    0.70    5.00
  -9  -4  13   74.89    9.50
  -9  -4  13   71.29    9.30
  -9   4  13   92.29   12.60
  -8  -4  13   33.60    6.60
  -8  -4  13   19.80    5.30
  -8   4  13   23.00    7.10
  -7  -4  13   98.59   10.20
  -7  -4  13  126.29   12.30
  -7   4  13  112.49   12.60
  -6  -4  13  659.33   23.80
  -6  -4  13  674.03   26.10
   6   4 -13  690.33   25.50
  -6   4  13  687.73   28.50
  -5  -4  13   70.49    7.60
  -5  -4  13   69.39    8.90
  -5   4  13   76.39   11.20
   5   4 -13   95.59    9.40
  -4  -4  13   16.90    4.90
  -4  -4  13   26.50    4.70
  -4   4  13   14.90    5.50
   4   4 -13   29.60    6.00
  -3  -4  13  313.47   12.50
  -3  -4  13  328.07   16.80
  -3   4  13  289.87   17.00
  -3   4  13  315.57   12.20
   3   4 -13  325.57   16.10
  -2  -4  13  173.78   12.00
  -2   4  13  116.29   12.50
  -2   4  13  149.39    8.50
  -1  -4  13  669.63   26.30
  -1   4  13  671.13   22.40
   1   4 -13  683.73   25.50
  -1   4  13  649.34   27.00
   0  -4  13 1269.07   41.60
   0  -4  13 1345.27   40.30
   0   4  13 1264.27   37.40
   0   4  13 1294.77   41.90
   1  -4  13   11.80    4.60
   1  -4  13   10.40    4.50
   1   4  13   17.90    5.30
   1   4  13    5.00    3.10
   2  -4  13  171.38   12.90
   2  -4  13  173.08   12.30
   2   4  13  165.78   11.40
   2   4  13  182.98   13.00
   3  -4  13   95.59   11.40
   3  -4  13   86.09   10.00
   3   4  13  110.09   11.30
   3   4  13   76.79   10.00
   4  -4  13   58.49    9.50
   4  -4  13   31.90    6.80
   4   4  13   38.50    7.20
   4   4  13   50.69    8.70
   5  -4  13    8.60    5.30
   5  -4  13    4.70    4.40
   5   4  13    9.80    5.80
   5   4  13   12.50    5.00
   6  -4  13   11.20    5.30
   6  -4  13   14.50    6.30
   6   4  13   10.70    5.90
   7  -4  13   19.10    7.30
   7   4  13   21.80    7.30
   8  -4  13  146.59   17.30
   8   4  13  110.89   14.70
 -12  -5  13   -3.60    3.90
 -12   5  13    8.50    6.80
 -11  -5  13   70.59   11.10
 -11  -5  13   67.89    9.50
 -11   5  13   55.09   10.70
 -10  -5  13   56.59    8.50
 -10  -5  13   52.49    9.40
 -10   5  13   48.40    9.40
  -9  -5  13   25.50    6.70
  -9  -5  13   14.70    5.40
  -9   5  13   22.30    7.20
  -8  -5  13    6.10    3.80
  -8  -5  13   12.70    4.50
  -8   5  13   12.60    6.30
  -7  -5  13   43.00    7.10
  -7  -5  13   42.00    7.20
  -7   5  13   50.79    9.60
  -6  -5  13  578.04   21.90
  -6  -5  13  545.65   23.00
  -6   5  13  559.34   25.80
   6   5 -13  531.45   22.30
  -5  -5  13  842.62   27.20
  -5  -5  13  867.11   30.30
  -5   5  13  847.52   32.50
   5   5 -13  741.73   28.40
  -4  -5  13   70.59    9.20
  -4  -5  13   76.69    7.60
  -4   5  13   63.09    9.60
   4   5 -13   67.59    8.80
  -3  -5  13    1.90    2.50
  -3  -5  13    0.10    3.00
   3   5 -13    0.90    3.40
  -3   5  13    0.60    2.10
  -3   5  13   -0.90    3.90
  -2  -5  13   94.29   10.90
  -2   5  13  102.09    7.30
  -2   5  13   97.99   11.50
   2   5 -13   91.09   10.10
  -1  -5  13  704.63   27.90
   1   5 -13  733.83   27.40
  -1   5  13  718.53   23.80
  -1   5  13  720.73   28.70
   0  -5  13  161.58   12.20
   0   5  13  158.68   10.20
   0   5 -13  123.09   11.80
   0   5  13  152.28   14.20
   1  -5  13   31.70    6.20
   1  -5  13   51.79    8.60
   1   5  13   28.80    6.70
   1   5  13   45.40    6.90
   2  -5  13    7.80    4.30
   2  -5  13    7.30    4.00
   2   5  13    8.10    4.50
   2   5  13    5.10    4.00
   3  -5  13    7.80    4.10
   3  -5  13    4.30    4.10
   3   5  13    1.50    2.60
   3   5  13    7.90    4.00
   4  -5  13   55.59    9.00
   4  -5  13   76.49   10.80
   4   5  13   55.29    8.70
   4   5  13   89.39   10.60
   5  -5  13   68.49   10.00
   5  -5  13   78.29   10.70
   5   5  13   62.99    9.10
   5   5  13   68.69   10.30
   6  -5  13   44.30    8.80
   6  -5  13   39.60    8.90
   6   5  13   24.00    7.40
   7  -5  13   78.39   12.70
   7   5  13   59.39   10.80
   8  -5  13   88.79   13.60
   8   5  13   78.99   12.70
 -12  -6  13    0.00    4.50
 -12   6  13    3.60    6.00
 -11  -6  13   10.90    6.00
 -11   6  13   26.80    8.00
 -10  -6  13   28.30    7.00
 -10  -6  13   40.60    7.40
 -10   6  13   45.40    9.90
  -9  -6  13   20.00    5.80
  -9  -6  13    7.30    4.40
  -9   6  13   28.00    7.90
  -8  -6  13  454.95   21.00
  -8  -6  13  473.35   21.60
  -8   6  13  498.05   24.70
  -7  -6  13  360.56   18.00
  -7  -6  13  343.37   17.20
  -7   6  13  327.97   19.90
  -6  -6  13  186.68   12.80
  -6  -6  13  159.28   11.20
  -6   6  13  175.88   16.60
   6   6 -13  146.89   13.20
  -5  -6  13   19.30    4.70
  -5  -6  13   14.20    5.00
   5   6 -13   16.40    5.60
  -5   6  13   16.80    6.60
  -4  -6  13   13.60    3.90
  -4  -6  13   13.60    4.80
   4   6 -13   10.80    4.80
  -4   6  13    8.40    4.70
  -3  -6  13  384.96   19.20
  -3  -6  13  418.06   16.20
  -3   6  13  375.76   14.50
  -3   6  13  418.76   21.10
  -2  -6  13    3.50    3.40
  -2   6  13   -0.20    2.30
  -2   6  13    1.50    4.30
   2   6 -13    1.50    3.90
  -1  -6  13    4.00    3.40
  -1   6  13    4.50    2.80
  -1   6  13    3.10    4.00
   1   6 -13   -2.40    3.80
   0  -6  13   64.39    9.30
   0   6  13   66.89    9.90
   0   6 -13   54.59    8.10
   0   6  13   56.89    7.40
   1  -6  13  174.58   13.10
   1   6  13  182.18   13.40
   1   6  13  174.78   11.60
  -1   6 -13  193.98   13.90
   2  -6  13  112.29   12.00
   2  -6  13  113.39   11.90
   2   6  13  137.39   13.30
   2   6  13  116.79   11.30
   3  -6  13    8.10    5.10
   3  -6  13   18.40    6.20
   3   6  13   13.10    5.10
   3   6  13    7.40    5.30
   4  -6  13   90.29   11.70
   4  -6  13   81.39   10.70
   4   6  13   78.79   10.30
   4   6  13   67.09    9.70
   5  -6  13   19.90    6.10
   5  -6  13   21.50    6.30
   5   6  13   16.70    5.70
   6  -6  13   19.70    6.50
   6  -6  13   21.40    6.80
   6   6  13   21.80    7.40
   7  -6  13    4.10    5.90
   7   6  13    8.10    6.40
   8  -6  13   26.50    8.70
   8   6  13   23.00    9.00
 -12  -7  13   25.50    7.70
 -12   7  13   37.10   10.10
 -11  -7  13   37.70    9.20
 -11   7  13   43.20   10.10
 -10  -7  13   10.80    5.80
 -10  -7  13   12.00    5.10
 -10   7  13    6.10    6.00
  -9  -7  13    0.50    3.80
  -9  -7  13    5.10    4.10
  -9   7  13   10.60    5.80
  -8  -7  13   13.70    5.40
  -8  -7  13   10.80    4.90
  -8   7  13    8.60    5.60
  -7  -7  13  371.46   18.80
  -7  -7  13  407.66   19.60
  -7   7  13  431.86   22.50
   7   7 -13  393.16   26.20
  -6  -7  13   29.60    6.70
  -6  -7  13   24.20    5.60
   6   7 -13   41.10    7.80
  -6   7  13   27.60    7.00
  -5  -7  13   60.69    7.60
  -5  -7  13   68.99    9.60
   5   7 -13   57.59    8.90
  -5   7  13   56.89    9.60
  -4  -7  13  101.59    9.80
  -4  -7  13   95.79   10.80
  -4   7  13  108.09   12.60
  -3  -7  13   40.60    7.80
  -3  -7  13   38.00    6.20
   3   7 -13   27.80    7.00
  -3   7  13   41.50    5.30
  -3   7  13   31.30    7.30
  -2  -7  13  283.47   16.40
   2   7 -13  268.37   16.50
  -2   7  13  258.57   16.80
  -2   7  13  239.68   12.00
  -1  -7  13   26.60    6.40
  -1   7  13   39.30    5.90
   1   7 -13   25.00    6.30
  -1   7  13   39.60    8.30
   0  -7  13   30.00    6.60
   0   7  13   37.10    6.00
   0   7 -13   32.60    7.40
   0   7  13   37.20    7.90
   1  -7  13  741.13   29.10
   1   7  13  680.73   25.80
  -1   7 -13  720.93   29.50
   1   7  13  722.03   28.90
   2  -7  13  277.67   16.50
   2   7  13  264.97   15.40
  -2   7 -13  259.17   17.40
   3  -7  13   88.59   10.90
  -3   7 -13   64.29    9.90
   3   7  13   90.09   11.10
   3   7  13   93.29   11.10
   4  -7  13    5.90    5.10
   4  -7  13   11.00    5.30
   4   7  13   11.00    5.20
   4   7  13    5.90    5.10
   5  -7  13   13.20    6.20
   5  -7  13   28.60    7.40
   5   7  13   22.70    6.90
   6  -7  13    5.00    5.70
   6   7  13   -1.20    5.40
   7  -7  13  270.67   24.00
   7   7  13  246.38   21.90
   8  -7  13   89.69   14.40
   8   7  13   67.09   13.30
 -11  -8  13   19.40    7.10
 -11   8  13   19.80    8.00
 -10  -8  13    2.60    3.50
 -10   8  13    3.80    5.60
  -9  -8  13    5.20    4.30
  -9  -8  13    1.50    4.40
  -9   8  13    5.50    5.70
  -8  -8  13   27.00    6.20
  -8  -8  13   32.30    7.20
  -8   8  13   28.60    7.90
  -7  -8  13    2.60    3.80
  -7  -8  13    3.50    4.30
  -7   8  13    7.00    5.20
   7   8 -13    5.20    6.70
  -6  -8  13   66.29    9.50
  -6  -8  13   74.59    9.40
   6   8 -13   86.09   11.10
  -6   8  13   68.59   10.40
  -5  -8  13  130.09   12.90
  -5  -8  13  102.69   11.10
  -5   8  13  108.69   12.50
   5   8 -13   86.29   11.20
  -4  -8  13  254.97   16.00
  -4  -8  13  270.17   14.60
  -4   8  13  242.68   16.70
   4   8 -13  249.68   16.60
  -3  -8  13   47.80    8.20
   3   8 -13   50.49    9.20
  -3   8  13   45.60    6.60
  -3   8  13   51.49    9.50
  -2  -8  13   40.60    7.60
  -2   8  13   45.30    8.80
   2   8 -13   35.10    7.80
  -2   8  13   29.10    5.40
  -1  -8  13  143.19   13.50
  -1   8  13  148.59   10.30
   1   8 -13  148.89   14.40
  -1   8  13  140.39   14.20
   0  -8  13   84.99   11.00
   0   8 -13  105.59   12.70
   0   8  13  109.39   10.30
   0   8  13  115.59   12.70
   1  -8  13  194.18   13.90
  -1   8 -13  198.68   15.10
   1   8  13  195.88   12.90
   1   8  13  186.78   14.10
   2  -8  13   13.80    5.50
  -2   8 -13   27.40    7.70
   2   8  13   31.20    7.00
   2   8  13   14.70    5.00
   3  -8  13    6.50    4.70
  -3   8 -13   11.20    6.50
   3   8  13    8.00    4.80
   3   8  13   11.60    5.80
   4  -8  13   52.29    9.10
   4   8  13   55.69    9.60
  -4   8 -13   36.60    8.70
   5   8  13    8.20    5.80
  -5   8 -13    3.60    6.30
   6  -8  13   11.10    7.10
   6   8  13    7.10    5.50
   7  -8  13  142.19   17.10
   7   8  13  177.38   18.70
 -11  -9  13    4.00    5.10
 -11   9  13    9.20    7.40
 -10  -9  13   10.40    6.10
 -10   9  13   -0.80    5.40
  -9  -9  13   33.70    8.00
  -9  -9  13   41.00    7.90
  -9   9  13   46.80   10.30
  -8  -9  13   71.79    9.80
  -8  -9  13   79.59   11.10
  -8   9  13   62.09   10.80
  -7  -9  13   97.49   11.20
  -7  -9  13   98.89   11.70
  -7   9  13  119.19   14.80
  -6  -9  13    8.10    4.80
  -6  -9  13   16.40    5.10
  -6   9  13   11.80    6.30
   6   9 -13    9.10    6.20
  -5  -9  13    7.60    4.80
  -5  -9  13    4.90    4.00
  -5   9  13    0.60    4.90
   5   9 -13    7.80    6.00
  -4  -9  13  190.48   14.00
  -4  -9  13  192.08   13.30
  -4   9  13  188.38   14.80
   4   9 -13  169.68   15.70
  -3  -9  13  142.59   13.80
  -3   9  13  164.78   16.10
   3   9 -13  143.89   14.90
  -2  -9  13   40.40    7.70
   2   9 -13   46.30    9.30
  -2   9  13   26.30    5.30
  -2   9  13   38.80    8.70
  -1  -9  13   95.99   11.10
  -1   9  13  100.59   12.60
   1   9 -13  107.69   12.20
  -1   9  13  117.79   10.40
   0  -9  13    3.50    4.00
   0   9 -13    0.10    4.10
   0   9  13   11.20    4.50
   0   9  13    6.20    5.00
   1  -9  13    5.00    4.20
   1   9  13    4.60    4.40
  -1   9 -13    2.60    5.40
   1   9  13   -0.30    4.60
   2  -9  13    9.90    4.80
   2   9  13    7.80    5.40
   2   9  13   17.50    5.70
  -2   9 -13   16.00    6.90
   3  -9  13    3.70    4.60
   3   9  13    6.40    5.40
  -3   9 -13   15.20    7.30
   3   9  13    5.60    4.90
   4  -9  13   71.19   10.60
  -4   9 -13   70.69   11.50
   4   9  13  100.69   12.90
  -5   9 -13    9.10    7.70
   5   9  13   -1.10    5.40
  -6   9 -13   10.50    7.40
   6   9  13   -2.70    5.30
   7   9  13    0.70    6.10
  -7   9 -13   11.50    9.00
 -10 -10  13  140.79   15.60
 -10  10  13  136.09   17.20
  -9 -10  13    3.60    4.70
  -9  10  13    4.10    5.80
  -8 -10  13   36.70    8.80
  -8 -10  13   47.40    8.60
  -8  10  13   43.50   10.30
  -7 -10  13    4.40    4.60
  -7 -10  13    5.60    4.70
   7  10 -13    7.40    6.00
  -7  10  13    3.10    6.00
  -6 -10  13  327.27   18.60
  -6  10  13  323.77   20.40
  -5 -10  13   19.90    6.60
  -5 -10  13   18.90    6.10
  -5  10  13   22.60    7.40
   5  10 -13   24.50    7.50
  -4 -10  13  112.89   13.00
  -4 -10  13   83.09   11.30
   4  10 -13   66.99   11.80
  -4  10  13   84.09   12.00
  -3 -10  13  738.03   29.20
   3  10 -13  686.33   30.60
  -3  10  13  716.73   30.40
  -2 -10  13    8.00    4.70
  -2  10  13    2.90    3.40
  -2  10  13    7.80    5.50
   2  10 -13    2.40    5.80
  -1 -10  13   28.10    6.90
   1  10 -13   24.70    7.20
  -1  10  13   27.50    7.50
  -1  10  13   28.10    5.90
   0 -10  13   42.90    8.50
   0  10 -13   56.89   10.30
   0  10  13   45.50    8.80
   0  10  13   45.20    7.50
   1 -10  13   -1.20    3.60
  -1  10 -13    7.80    6.10
   1  10  13   -0.70    3.80
   1  10  13    0.10    4.50
   2 -10  13    2.50    4.00
   2  10  13    0.00    4.00
   2  10  13    9.70    5.30
  -2  10 -13    2.90    5.10
   3 -10  13  164.48   15.90
  -3  10 -13  134.59   15.20
   3  10  13  171.38   15.90
   4  10  13   16.70    6.60
  -4  10 -13    9.10    5.90
   5  10  13   -6.80    5.30
  -5  10 -13   -0.50    6.10
  -6  10 -13   -3.30    6.70
   6  10  13   -0.90    5.90
  -9 -11  13  173.98   17.70
  -9  11  13  129.39   16.60
  -8 -11  13   24.80    7.60
  -8 -11  13   22.50    6.80
  -8  11  13   10.20    6.40
   8  11 -13    5.40   11.50
  -7 -11  13   75.69   11.20
  -7 -11  13   78.09   10.60
  -7  11  13   81.09   12.60
  -6 -11  13    2.40    4.30
  -6 -11  13   -1.00    3.50
   6  11 -13    2.50    5.90
  -6  11  13    4.90    5.70
  -5 -11  13   13.10    6.00
  -5 -11  13   21.20    6.30
  -5  11  13    8.40    6.10
   5  11 -13    8.20    6.90
  -4 -11  13   11.50    4.90
  -4  11  13    3.50    4.50
   4  11 -13    1.10    6.60
  -3 -11  13   50.49    8.90
   3  11 -13   38.40    9.00
  -3  11  13   51.29   10.00
  -2 -11  13   21.30    6.40
  -2  11  13   26.50    5.80
  -2  11  13   28.00    7.90
   2  11 -13   19.70    7.20
  -1 -11  13   20.60    6.60
   1  11 -13   19.50    8.00
  -1  11  13   21.30    5.50
  -1  11  13   15.40    6.60
   0 -11  13   10.10    5.60
   0  11  13    2.20    4.10
   0  11  13    4.80    4.70
   0  11 -13    2.70    5.70
   1 -11  13   11.20    5.90
  -1  11 -13    8.80    6.40
   1  11  13    9.30    5.30
   1  11  13   -0.50    3.50
   2 -11  13  120.59   14.20
   2  11  13   89.29   11.40
   2  11  13  100.19   12.10
  -2  11 -13   92.19   13.00
  -3  11 -13   74.29   12.40
   3  11  13   81.49   11.90
   4  11  13  139.59   15.90
  -4  11 -13  123.89   16.50
  -5  11 -13   32.20   10.20
   5  11  13   32.20    9.00
   6  11  13   24.60    9.60
  -6  11 -13   24.10   10.20
  -9 -12  13   33.90    9.10
  -9  12  13   20.70    9.00
  -8 -12  13   33.70    8.90
  -8  12  13   34.80    9.50
   8  12 -13    0.30    7.80
  -7 -12  13    9.40    5.40
  -7 -12  13    0.70    5.30
   7  12 -13    7.00    9.20
  -7  12  13   -1.30    5.20
  -6 -12  13   20.80    6.10
  -6 -12  13    0.60    3.90
   6  12 -13   17.00    8.80
  -6  12  13    9.80    6.90
  -5 -12  13  138.59   15.10
  -5 -12  13  150.88   14.40
   5  12 -13  129.89   16.50
  -5  12  13  179.38   18.30
  -4 -12  13   12.30    5.40
   4  12 -13    5.30    6.80
  -4  12  13    8.00    6.30
  -3 -12  13   14.50    5.70
  -3  12  13   12.60    6.20
   3  12 -13   15.30    8.10
  -2 -12  13    9.30    5.70
  -2  12  13    1.30    4.10
  -2  12  13    9.50    5.70
   2  12 -13    4.50    6.40
  -1 -12  13   12.30    5.90
  -1  12  13   12.60    6.00
  -1  12  13   15.50    5.40
   1  12 -13   11.30    7.90
   0 -12  13    9.10    5.10
   0  12  13   15.20    6.60
   0  12 -13   12.90    6.20
   0  12  13   16.80    5.80
   1 -12  13    7.50    5.10
  -1  12 -13   -0.90    6.30
   1  12  13    0.00    4.00
   1  12  13    9.30    5.10
   2  12  13   33.90    7.60
  -2  12 -13   27.30    9.10
  -3  12 -13   79.09   13.20
   3  12  13  110.59   13.50
  -4  12 -13    6.20    8.30
   4  12  13    9.50    6.20
  -5  12 -13  329.07   24.50
   5  12  13  300.77   21.40
  -8 -13  13   34.40    9.50
   8  13 -13   30.90   11.50
  -8  13  13   31.40   10.60
  -7 -13  13   13.00    7.30
  -7 -13  13   12.10    5.80
  -7  13  13   26.70   10.20
   7  13 -13   19.90   10.10
  -6 -13  13    0.80    4.80
  -6 -13  13    2.00    5.10
   6  13 -13   -2.40    8.20
  -6  13  13    2.90    5.70
  -5 -13  13    7.90    5.40
  -5 -13  13   -4.80    4.90
  -5  13  13   -2.20    5.70
   5  13 -13   -3.60    6.90
  -4 -13  13  111.39   13.40
  -4  13  13  136.49   16.60
   4  13 -13  135.09   17.10
  -3 -13  13   17.30    6.40
  -3  13  13   15.70    7.10
   3  13 -13   20.20    9.50
  -2 -13  13    3.70    4.40
  -2  13  13    1.80    5.00
   2  13 -13   -3.20    5.10
  -1 -13  13   20.10    6.80
   1  13 -13   31.10    9.70
  -1  13  13   24.90    8.20
  -1  13  13   22.60    6.50
   0 -13  13    2.00    4.40
   0  13 -13    0.60    6.70
   0  13  13   20.50    7.10
   0  13  13    3.70    5.00
   1  13  13    9.70    6.10
   1  13  13   19.50    7.20
  -1  13 -13   21.10    8.70
  -2  13 -13   38.80   10.90
   2  13  13   48.00    9.30
  -3  13 -13   39.50   10.70
   3  13  13   45.90    9.60
   4  13  13  606.34   29.80
  -4  13 -13  613.04   33.30
  -6 -14  13    1.60    6.10
  -6 -14  13   -3.10    4.40
  -6  14  13   -6.30    6.10
   6  14 -13    1.00    9.90
  -5 -14  13   -2.60    4.50
   5  14 -13  -11.80    6.30
  -5  14  13   -5.70    5.50
  -4 -14  13   23.30    7.10
   4  14 -13   12.30    7.90
  -4  14  13   23.20    8.80
  -3 -14  13  106.89   13.00
   3  14 -13  102.49   16.10
  -3  14  13  133.69   16.10
  -2 -14  13  298.77   18.60
   2  14 -13  250.77   23.20
  -2  14  13  256.87   18.90
   1  14 -13    6.10    8.10
  -1  14  13   16.60    7.70
  -1  14  13   10.00    5.70
   0  14 -13   65.89   12.90
   0  14  13   72.49   10.80
   0  14  13   66.09   11.80
   1  14  13   48.90    9.80
  -1  14 -13   52.99   11.70
  -2  14 -13   10.30    8.50
   2  14  13   -4.60    4.70
   4  15 -13  210.48   22.00
  -4  15  13  217.08   20.80
  -3  15  13   22.30    8.90
   3  15 -13   21.80    9.70
   2  15 -13  116.79   16.80
  -2  15  13   96.89   13.50
  -1  15  13   82.79   11.20
  -1  15  13   87.69   13.10
   1  15 -13   68.79   13.80
   0  15  13   40.50    8.70
   0  15 -13   22.90    9.50
   0  15  13   17.20    7.80
  -1  15 -13   -2.50    7.30
 -12   0  14    2.80    5.20
 -12   0  14   13.20    6.70
 -11   0  14   -0.60    3.40
 -11   0  14   -1.50    4.50
 -10   0  14  179.48   16.40
 -10   0  14  141.39   14.20
  -9   0  14   -2.80    3.80
  -9   0  14   -0.70    2.80
  -8   0  14   82.59   11.00
  -8   0  14   97.99   10.20
  -7   0  14    2.50    4.10
  -7   0  14    1.10    2.90
  -6   0  14   30.60    6.90
  -5   0  14    1.30    3.20
   4   0 -14  525.25   19.10
  -4   0  14  545.05   23.80
  -3   0  14   12.30    4.70
  -3   0  14   19.30    4.10
  -2   0  14  378.26   19.20
  -2   0  14  373.46   15.50
  -1   0  14    0.00    2.40
  -1   0  14    0.20    3.20
   0   0  14   77.69    8.70
   0   0  14   88.59   11.00
   1   0  14   -1.90    3.10
   1   0  14    4.60    3.70
   2   0  14  539.15   24.40
   2   0  14  542.35   22.40
   3   0  14    1.40    4.10
   3   0  14   -2.40    2.60
   4   0  14  107.99   12.70
   4   0  14  110.09   12.10
   5   0  14    5.10    4.80
   5   0  14    1.40    3.80
   6   0  14   43.40    8.60
   7   0  14   -0.20    5.10
   7   0  14    2.30    4.70
   8   0  14  130.69   16.50
 -12  -1  14   75.79   11.80
 -12  -1  14   79.79   11.40
 -12   1  14   64.99   10.80
 -12   1  14   72.79   11.30
 -11  -1  14   17.50    5.90
 -11  -1  14   14.90    6.10
 -11   1  14   13.90    5.60
 -11   1  14   27.80    7.60
 -10  -1  14   44.50    8.60
 -10  -1  14   33.60    7.50
 -10   1  14   25.50    7.00
 -10   1  14   32.80    7.50
  -9  -1  14   55.89    8.40
  -9  -1  14   49.99    8.40
  -9   1  14   60.49    9.70
  -8  -1  14   34.70    6.50
  -8  -1  14   40.40    7.80
  -8   1  14   22.00    6.50
  -7  -1  14   61.29    9.30
  -7  -1  14   62.09    8.00
  -7   1  14   52.89    9.10
  -6  -1  14   90.09   10.80
  -6  -1  14  127.09    9.00
  -6   1  14  109.69   12.20
  -5  -1  14  551.44   19.80
  -5  -1  14  542.15   23.80
  -5   1  14  532.75   24.30
  -4  -1  14   40.20    7.30
  -4  -1  14   67.19    6.80
   4   1 -14   51.49    6.60
  -4   1  14   65.39    9.40
  -3  -1  14   38.00    4.70
  -3  -1  14   32.90    7.00
  -3   1  14   42.80    5.40
   3   1 -14   38.40    5.80
  -3   1  14   42.30    7.70
  -2  -1  14   53.09    6.60
  -2  -1  14   55.69    8.50
  -2   1  14   53.39    6.30
  -2   1  14   52.59    8.70
  -1  -1  14  370.76   18.70
  -1  -1  14  356.26   16.00
  -1   1  14  356.16   15.50
  -1   1  14  372.56   19.00
   0  -1  14   38.80    6.20
   0  -1  14   28.70    6.50
   0   1  14   33.10    5.50
   0   1  14   31.80    6.70
   1  -1  14   66.59    8.50
   1  -1  14   84.09   10.80
   1   1  14   83.19    9.30
   1   1  14   83.39   11.00
   2  -1  14  536.05   22.60
   2  -1  14  565.74   24.80
   2   1  14  557.14   22.60
   2   1  14  533.55   24.10
   3  -1  14  146.09   13.20
   3  -1  14  153.68   15.00
   3   1  14  137.49   13.90
   3   1  14  151.08   13.50
   4  -1  14    8.00    4.70
   4  -1  14    9.20    4.80
   4   1  14    8.80    4.90
   4   1  14   17.00    5.80
   5  -1  14    8.70    4.80
   5  -1  14   10.50    5.40
   5   1  14   17.00    6.30
   5   1  14   11.10    5.50
   6  -1  14  153.08   15.30
   6  -1  14  186.78   17.40
   6   1  14  150.38   15.70
   6   1  14  141.19   14.60
   7  -1  14   63.09   11.20
   7   1  14   65.59   11.30
   8  -1  14   18.70    8.00
   8   1  14   15.90    7.80
 -12  -2  14  236.28   16.80
 -12  -2  14  218.18   15.60
 -12   2  14  226.28   16.80
 -12   2  14  213.08   19.40
 -11  -2  14    2.90    4.20
 -11  -2  14    3.70    4.40
 -11   2  14    0.90    4.40
 -11   2  14    1.50    5.20
 -10  -2  14  106.89   12.00
 -10  -2  14  105.39   11.80
 -10   2  14  101.29   12.80
  -9  -2  14   27.20    6.10
  -9  -2  14   35.20    7.80
  -9   2  14   23.50    6.80
  -8  -2  14    2.90    4.00
  -8  -2  14    2.40    3.60
  -8   2  14    6.50    4.50
  -7  -2  14   75.69   10.00
  -7  -2  14   72.89    8.60
  -7   2  14   82.29   10.90
  -6  -2  14   -0.90    2.70
  -6  -2  14    1.30    3.50
  -6   2  14   -1.90    3.20
  -5  -2  14   76.19    7.80
  -5  -2  14   59.99    8.80
  -5   2  14   54.39    8.90
  -4  -2  14    7.90    3.10
  -4  -2  14    1.00    3.30
  -4   2  14    4.70    3.80
   4   2 -14   -1.40    3.60
  -3  -2  14   28.80    6.40
  -3  -2  14   27.40    4.10
   3   2 -14   27.90    5.40
  -3   2  14   27.60    6.90
  -3   2  14   30.60    4.60
  -2  -2  14  106.09   11.00
  -2  -2  14  107.09   10.10
  -2   2  14  102.09   11.40
  -2   2  14  100.39    7.50
  -1  -2  14  117.49   10.60
  -1  -2  14  119.09   12.40
  -1   2  14  116.99    8.50
  -1   2  14  101.69   11.50
   0  -2  14    1.10    3.00
   0  -2  14   15.50    4.60
   0   2  14   22.80    6.10
   0   2  14    9.30    3.70
   1  -2  14  580.44   25.50
   1  -2  14  599.14   23.60
   1   2  14  620.24   23.20
   1   2  14  630.54   26.00
   2  -2  14  275.37   16.70
   2  -2  14  260.37   15.10
   2   2  14  282.57   16.60
   2   2  14  244.08   14.40
   3  -2  14  189.58   14.30
   3  -2  14  175.28   15.10
   3   2  14  157.58   14.70
   3   2  14  175.28   12.20
   4  -2  14   69.29   11.00
   4  -2  14   64.29    9.40
   4   2  14   63.39    9.20
   4   2  14   60.99    9.90
   5  -2  14  186.78   16.50
   5  -2  14  166.88   15.70
   5   2  14  154.38   15.50
   5   2  14  189.38   14.30
   6  -2  14   16.60    6.40
   6  -2  14    8.00    5.30
   6   2  14   10.10    5.40
   6   2  14    3.20    5.00
   7  -2  14   48.60   10.10
   7  -2  14   45.60    9.00
   7   2  14   41.90    9.20
   8  -2  14   17.40    8.10
   8   2  14    6.70    7.30
 -12  -3  14  100.19   13.00
 -12  -3  14  107.49   12.70
 -12   3  14   95.29   13.60
 -11  -3  14   51.19    9.00
 -11  -3  14   38.40    8.40
 -11   3  14   42.40    9.50
 -10  -3  14   28.00    7.00
 -10  -3  14   40.40    7.90
 -10   3  14   25.50    8.10
  -9  -3  14   72.69    9.60
  -9  -3  14   52.69    8.60
  -9   3  14   47.30    9.20
  -8  -3  14    5.10    3.60
  -8  -3  14    3.30    4.20
  -8   3  14   -1.10    3.90
  -7  -3  14   19.30    4.80
  -7  -3  14   30.90    6.80
  -7   3  14   28.90    7.20
  -6  -3  14   85.59    8.60
  -6  -3  14   92.89   10.90
  -6   3  14   62.49   10.00
  -5  -3  14   20.60    4.70
  -5  -3  14   20.60    5.80
  -5   3  14   24.00    6.30
   5   3 -14   21.80    5.20
  -4  -3  14   12.90    3.70
  -4  -3  14   16.00    5.20
  -4   3  14    9.60    5.00
   4   3 -14   12.40    4.00
  -3  -3  14  137.59   13.20
  -3   3  14  140.39    8.20
  -3   3  14  129.99   13.10
   3   3 -14  139.59   10.60
  -2  -3  14   39.50    7.70
  -2   3  14   56.19    9.30
  -2   3  14   51.39    6.00
   2   3 -14   34.70    6.30
  -1  -3  14   96.49   11.00
  -1  -3  14  112.09   10.70
  -1   3  14  114.39   12.40
  -1   3  14  115.99    8.40
   0  -3  14  333.47   16.60
   0  -3  14  313.47   17.40
   0   3  14  323.27   15.10
   0   3  14  354.46   18.70
   1  -3  14   20.20    5.80
   1  -3  14   23.80    6.40
   1   3  14   16.70    4.80
   1   3  14   12.70    4.90
   2  -3  14  394.86   19.20
   2  -3  14  362.86   20.20
   2   3  14  412.06   18.70
   2   3  14  418.06   20.30
   3  -3  14   78.99   11.00
   3  -3  14   57.39    8.80
   3   3  14   54.39    8.20
   3   3  14   71.19   10.10
   4  -3  14   28.20    7.40
   4  -3  14   25.50    6.80
   4   3  14   28.50    6.80
   5  -3  14   80.69   11.70
   5  -3  14   48.30    9.00
   5   3  14   58.49    9.90
   5   3  14   55.29    9.70
   6  -3  14   92.19   12.50
   6  -3  14   67.49   10.50
   6   3  14   86.49   12.60
   7  -3  14    4.70    5.20
   7  -3  14   14.20    6.90
   7   3  14   19.00    6.90
   8  -3  14  153.38   17.40
   8   3  14   81.39   12.70
 -12  -4  14   89.09   12.60
 -12   4  14   97.49   13.60
 -11  -4  14   20.30    6.60
 -11  -4  14   21.40    6.40
 -11   4  14   10.30    6.70
 -10  -4  14  297.07   17.30
 -10  -4  14  312.77   17.80
 -10   4  14  289.87   19.30
  -9  -4  14    1.30    3.70
  -9  -4  14    0.30    3.70
  -9   4  14   -1.60    4.40
  -8  -4  14    4.80    3.50
  -8  -4  14    1.70    3.80
  -8   4  14    2.30    4.40
  -7  -4  14   14.70    5.20
  -7  -4  14   -0.50    2.30
  -7   4  14   10.80    5.60
  -6  -4  14  275.17   15.90
  -6  -4  14  239.48   13.00
  -6   4  14  254.97   17.10
  -5  -4  14  697.23   27.10
  -5  -4  14  664.33   22.90
  -5   4  14  655.03   28.40
   5   4 -14  637.74   24.70
  -4  -4  14  155.58    9.30
  -4  -4  14  157.78   12.10
  -4   4  14  148.09   14.60
   4   4 -14  158.68   11.70
  -3  -4  14   20.10    5.50
   3   4 -14   25.70    6.00
  -3   4  14   21.40    4.00
  -3   4  14   38.50    7.80
  -2  -4  14   38.50    7.30
   2   4 -14   19.30    5.40
  -2   4  14   43.60    5.50
  -2   4  14   30.00    7.10
  -1  -4  14 1012.50   35.80
  -1   4  14  991.80   36.30
   1   4 -14 1017.60   34.30
  -1   4  14 1065.79   31.40
   0  -4  14  109.09   11.40
   0  -4  14   85.59   11.10
   0   4  14  130.59   13.50
   0   4  14   90.89    9.20
   1  -4  14   10.40    4.50
   1  -4  14   15.30    5.10
   1   4  14   11.50    4.30
   1   4  14   22.40    6.50
   2  -4  14    1.50    3.80
   2  -4  14    0.70    3.60
   2   4  14   -1.00    3.30
   2   4  14    2.70    3.70
   3  -4  14   45.80    9.00
   3  -4  14   27.00    7.00
   3   4  14   30.40    6.90
   3   4  14   35.40    6.80
   4  -4  14   82.39   11.40
   4  -4  14   94.59   11.90
   4   4  14  104.89   12.60
   4   4  14  112.69   12.50
   5  -4  14   -2.50    3.80
   5  -4  14    0.50    4.20
   5   4  14   -3.60    3.20
   5   4  14    2.80    4.90
   6  -4  14   43.30    9.70
   6  -4  14   31.00    8.20
   6   4  14   32.00    8.20
   7  -4  14    6.60    5.50
   7  -4  14   13.20    7.60
   7   4  14   17.40    7.40
   8  -4  14  111.59   16.10
   8   4  14   59.69   12.10
 -12  -5  14    3.20    5.80
 -12   5  14   15.90    7.30
 -11  -5  14  117.29   14.30
 -11  -5  14   82.39   10.60
 -11   5  14   93.09   14.10
 -10  -5  14    4.40    3.90
 -10  -5  14    1.50    3.90
 -10   5  14   -0.60    5.50
  -9  -5  14   49.10    8.70
  -9  -5  14   54.89    8.90
  -9   5  14   54.29   10.20
  -8  -5  14  242.78   15.20
  -8  -5  14  238.18   14.60
  -8   5  14  247.98   17.70
  -7  -5  14  386.56   19.30
  -7   5  14  341.57   20.50
  -6  -5  14  333.57   16.00
  -6  -5  14  322.17   17.60
  -6   5  14  320.77   19.50
  -5  -5  14   69.49    9.40
  -5  -5  14   80.29    8.80
  -5   5  14   73.99   10.60
   5   5 -14   58.19    8.70
  -4  -5  14  108.09    8.00
  -4  -5  14  118.69   12.50
  -4   5  14  106.19   12.90
   4   5 -14  128.29   11.90
  -3  -5  14   72.09   10.30
  -3   5  14   75.89    7.40
  -3   5  14   80.79   11.30
   3   5 -14   77.19    9.90
  -2  -5  14   16.50    5.00
  -2   5  14   21.90    6.40
   2   5 -14   17.20    5.40
  -2   5  14   14.80    3.70
  -1  -5  14  104.49   11.80
   1   5 -14  129.99   12.20
  -1   5  14   97.09   12.00
  -1   5  14  118.69    8.70
   0  -5  14  238.28   15.50
   0   5  14  239.98   15.70
   0   5  14  221.08   12.50
   0   5 -14  224.98   14.80
   1  -5  14    3.50    3.80
   1  -5  14    2.80    4.10
   1   5  14    1.50    3.30
   1   5  14    4.20    3.70
   2  -5  14    3.70    3.80
   2  -5  14    3.10    4.10
   2   5  14    6.60    4.70
   2   5  14    0.40    3.30
   3  -5  14    5.40    4.40
   3  -5  14    3.90    4.10
   3   5  14    1.10    3.50
   3   5  14   -0.90    3.50
   4  -5  14    5.60    4.70
   4  -5  14   11.00    5.20
   4   5  14    9.50    5.00
   4   5  14   13.20    5.90
   5  -5  14   88.09   12.50
   5  -5  14  121.39   13.50
   5   5  14  115.19   13.40
   6  -5  14   11.30    6.10
   6  -5  14    5.10    5.20
   6   5  14   18.70    7.50
   7  -5  14    8.60    6.80
   7   5  14    8.10    6.80
 -11  -6  14    6.20    4.80
 -11   6  14   12.90    7.20
 -10  -6  14   92.59   11.10
 -10  -6  14   71.49   10.90
 -10   6  14   95.19   13.10
  -9  -6  14   56.09    8.70
  -9  -6  14   62.39    9.20
  -9   6  14   56.19   10.60
  -8  -6  14  108.29   11.70
  -8  -6  14   98.09   11.40
  -8   6  14   87.39   12.00
  -7  -6  14  534.75   23.60
  -7   6  14  521.75   26.10
  -6  -6  14  399.76   19.70
  -6  -6  14  362.46   17.10
  -6   6  14  406.76   22.00
   6   6 -14  330.07   19.00
  -5  -6  14  226.18   12.70
  -5  -6  14  232.68   15.00
  -5   6  14  244.88   16.90
   5   6 -14  203.08   14.30
  -4  -6  14  174.28   11.50
  -4  -6  14  182.18   13.40
   4   6 -14  182.28   13.80
  -4   6  14  168.88   16.10
  -3  -6  14    2.80    3.40
   3   6 -14   -2.20    4.10
  -3   6  14    4.40    4.80
  -2  -6  14   50.59    8.70
   2   6 -14   40.80    8.20
  -2   6  14   56.09    9.50
  -2   6  14   53.39    6.60
  -1  -6  14    1.90    3.60
   1   6 -14    0.90    4.20
  -1   6  14    1.70    2.70
  -1   6  14    5.50    4.70
   0  -6  14   57.39    8.90
   0   6  14   57.79    9.80
   0   6 -14   49.60    8.50
   0   6  14   47.00    6.90
   1  -6  14  137.79   14.40
   1   6  14  142.69   14.50
   1   6  14  122.79   11.60
  -1   6 -14  132.99   13.10
   2  -6  14    5.20    4.20
   2  -6  14    8.20    5.10
   2   6  14   11.70    4.40
   2   6  14    2.60    3.70
   3  -6  14   14.10    5.90
   3  -6  14   18.90    6.40
   3   6  14   17.10    5.80
   3   6  14   19.10    5.90
   4  -6  14   -3.00    3.40
   4  -6  14    2.90    4.90
   4   6  14   -4.30    3.50
   4   6  14   -0.20    4.10
   5  -6  14   72.89   11.00
   5  -6  14  100.59   13.30
   5   6  14   90.39   11.90
   6  -6  14   18.50    6.60
   6  -6  14   24.30    8.00
   6   6  14    9.00    6.30
   7  -6  14  245.48   22.30
   7   6  14  225.48   20.80
 -11  -7  14   14.50    6.90
 -11   7  14    2.20    6.30
 -10  -7  14  102.39   11.70
 -10  -7  14  100.49   12.90
 -10   7  14  101.99   13.80
  -9  -7  14   36.00    8.00
  -9  -7  14   20.60    6.10
  -9   7  14   15.00    6.70
  -8  -7  14  263.97   16.20
  -8  -7  14  298.07   17.00
  -8   7  14  254.47   18.50
  -7  -7  14   70.79    9.90
  -7   7  14   81.39   11.80
  -6  -7  14   12.60    4.30
  -6  -7  14   10.20    4.70
   6   7 -14    8.90    6.10
  -6   7  14   12.50    6.40
  -5  -7  14   22.20    5.60
  -5  -7  14   17.30    5.60
   5   7 -14   13.40    5.80
  -5   7  14   14.90    6.40
  -4  -7  14  117.49   12.60
  -4   7  14  107.79   13.20
  -3  -7  14  126.09   13.50
  -3   7  14  143.09   15.20
   3   7 -14  115.29   12.60
  -2  -7  14  102.19   12.30
   2   7 -14   73.39   10.00
  -2   7  14   83.99   12.00
  -2   7  14   76.79    8.00
  -1  -7  14   91.09   11.60
  -1   7  14   72.69   10.70
  -1   7  14  101.29    9.50
   1   7 -14   78.99   10.70
   0  -7  14   29.80    7.00
   0   7  14   19.60    6.40
   0   7 -14   31.90    7.30
   0   7  14   19.20    5.10
   1  -7  14  145.49   14.70
  -1   7 -14  139.19   13.90
   1   7  14  127.89   12.10
   1   7  14  143.79   14.30
   2  -7  14   29.50    7.10
   2   7  14   26.10    6.20
   2   7  14   21.20    6.40
  -2   7 -14   18.40    6.40
   3  -7  14   11.30    5.00
   3   7  14   23.80    6.80
   3   7  14   21.80    6.90
  -3   7 -14   16.00    6.70
   4  -7  14  160.18   16.20
   4  -7  14  161.28   16.60
   4   7  14  145.69   14.50
   5  -7  14    6.10    5.80
   5  -7  14    8.30    5.50
   5   7  14   14.00    6.40
   6  -7  14   91.89   13.60
   6   7  14   83.19   12.70
   7  -7  14  120.99   16.70
   7   7  14  123.19   16.00
 -11  -8  14  100.39   13.40
 -11   8  14   58.39   11.30
 -10  -8  14    9.50    7.10
 -10  -8  14   12.40    5.70
 -10   8  14   14.00    6.50
  -9  -8  14   93.59   12.10
  -9  -8  14   82.89   11.10
  -9   8  14   99.09   13.60
  -8  -8  14   22.10    6.40
  -8  -8  14   20.20    6.30
  -8   8  14   19.10    7.40
  -7  -8  14  135.69   13.60
  -7   8  14  137.59   15.30
  -6  -8  14   16.70    5.60
  -6  -8  14   10.30    5.10
  -6   8  14   16.20    7.20
   6   8 -14   13.70    6.70
  -5  -8  14    0.90    3.90
  -5  -8  14   12.30    4.90
  -5   8  14    0.90    4.90
   5   8 -14    0.90    5.10
  -4  -8  14   12.80    5.20
   4   8 -14    3.50    5.10
  -4   8  14    9.40    5.80
  -3  -8  14    3.60    3.80
   3   8 -14    2.60    4.90
  -3   8  14    2.20    4.90
  -2  -8  14   74.59   10.80
   2   8 -14   71.29   10.30
  -2   8  14   74.49    8.10
  -2   8  14   71.49   10.70
  -1  -8  14   12.50    5.30
  -1   8  14   20.30    4.70
   1   8 -14   15.70    7.00
  -1   8  14   29.90    7.60
   0  -8  14  200.58   14.70
   0   8  14  213.28   15.30
   0   8  14  188.28   12.30
   0   8 -14  200.98   17.20
   1  -8  14   28.60    7.30
   1   8  14   15.50    5.50
  -1   8 -14   13.10    5.60
   1   8  14   18.70    5.40
   2  -8  14    7.60    4.60
   2   8  14    3.00    4.10
  -2   8 -14   -0.80    5.40
   2   8  14   -0.90    3.30
   3  -8  14    5.20    4.80
  -3   8 -14    1.60    4.70
   3   8  14    1.70    4.70
   3   8  14    0.10    4.20
   4  -8  14   18.10    6.80
  -4   8 -14   20.90    8.40
   4   8  14    9.00    5.60
   5  -8  14  131.09   15.10
  -5   8 -14  137.89   16.50
   5   8  14  135.59   15.40
   6  -8  14   57.09   11.90
   6   8  14   65.79   11.60
  -6   8 -14   46.40   11.50
 -10  -9  14   78.89   11.50
 -10   9  14   55.99   11.30
  -9  -9  14   14.20    6.40
  -9  -9  14    6.70    5.20
  -9   9  14    6.20    6.40
  -8  -9  14   63.89    9.80
  -8  -9  14   43.80    8.60
  -8   9  14   58.29   10.70
  -7  -9  14   85.39   11.20
  -7   9  14   49.20    9.80
  -6  -9  14    2.30    4.30
  -6  -9  14    2.10    3.70
  -6   9  14    3.40    4.80
   6   9 -14    9.50    6.50
  -5  -9  14    3.00    4.30
  -5  -9  14    7.20    5.00
  -5   9  14    1.00    4.70
   5   9 -14   -2.00    4.20
  -4  -9  14    0.30    3.60
  -4   9  14    5.80    5.50
   4   9 -14    7.40    5.90
  -3  -9  14  260.87   16.90
   3   9 -14  282.77   18.90
  -3   9  14  275.47   19.50
  -2  -9  14   52.39    9.00
  -2   9  14   48.60    7.00
   2   9 -14   53.69    9.10
  -2   9  14   39.20    8.70
  -1  -9  14    9.20    5.00
   1   9 -14    8.50    5.90
  -1   9  14    5.10    5.20
  -1   9  14    4.70    4.10
   0  -9  14  404.56   21.50
   0   9  14  401.56   19.10
   0   9 -14  439.86   23.50
   0   9  14  450.55   23.00
   1  -9  14  118.79   13.70
  -1   9 -14  124.59   14.20
   1   9  14  123.59   14.10
   1   9  14  124.39   12.50
   2  -9  14   43.00    8.50
   2   9  14   41.00    8.30
   2   9  14   39.20    7.90
  -2   9 -14   37.70    8.90
   3  -9  14  181.08   16.70
   3   9  14  166.78   15.30
  -3   9 -14  187.28   18.50
   4  -9  14  158.48   16.10
  -4   9 -14  149.39   17.40
   4   9  14  163.68   16.50
   5   9  14   18.00    6.80
  -5   9 -14   11.70    7.20
  -6   9 -14    2.50    7.70
   6   9  14   -0.60    6.00
  -9 -10  14    3.80    5.60
  -9 -10  14   -2.30    4.50
  -9  10  14    4.60    6.30
  -8 -10  14  114.69   13.90
  -8 -10  14  110.99   12.90
  -8  10  14  161.88   17.70
  -7 -10  14    3.00    4.60
  -7 -10  14   -0.30    3.50
   7  10 -14    2.80    8.10
  -7  10  14    2.30    5.30
  -6 -10  14    4.80    4.00
  -6 -10  14   -3.00    3.80
   6  10 -14   -6.50    5.30
  -6  10  14    1.50    5.30
  -5 -10  14   33.20    8.00
   5  10 -14   10.10    7.10
  -5  10  14   12.90    5.80
  -4 -10  14  191.48   14.60
  -4  10  14  174.98   17.80
   4  10 -14  182.28   17.20
  -3 -10  14  247.28   16.60
   3  10 -14  261.37   18.60
  -3  10  14  241.38   18.20
  -2 -10  14   43.80    8.30
   2  10 -14   45.20    9.40
  -2  10  14   69.79   11.00
  -1 -10  14  215.08   15.30
  -1  10  14  207.58   13.10
   1  10 -14  201.78   18.40
  -1  10  14  196.38   17.80
   0 -10  14   55.69    9.60
   0  10  14   62.39    8.70
   0  10  14   70.59   10.60
   0  10 -14   84.99   12.50
   1 -10  14  133.69   14.70
   1  10  14  119.09   14.10
  -1  10 -14  110.29   13.60
   1  10  14  135.59   13.40
   2 -10  14   96.99   12.90
   2  10  14   79.19   10.60
   2  10  14   87.39   11.80
  -2  10 -14   92.29   13.50
   3 -10  14   -2.80    3.40
  -3  10 -14    5.40    6.00
   3  10  14    1.90    5.30
   4  10  14    8.00    6.30
  -4  10 -14    7.70    6.20
  -5  10 -14    4.90    8.00
   5  10  14   22.20    7.50
  -9 -11  14   -0.80    5.20
  -9  11  14    3.60    6.60
  -8 -11  14    6.60    5.00
  -8 -11  14    9.90    6.50
  -8  11  14    4.00    6.00
  -7 -11  14   27.70    7.70
  -7 -11  14    5.30    4.70
  -7  11  14   25.70    8.10
   7  11 -14    2.00    7.90
  -6 -11  14   46.40    9.30
  -6 -11  14   34.80    7.90
   6  11 -14   32.80    9.70
  -6  11  14   24.10    8.10
  -5 -11  14   21.00    6.50
   5  11 -14    9.30    7.10
  -5  11  14   11.00    6.70
  -4 -11  14  116.79   13.20
  -4  11  14  148.29   15.90
   4  11 -14  114.59   14.40
  -3 -11  14  140.69   14.50
  -3  11  14  146.19   15.60
   3  11 -14  138.79   16.40
  -2 -11  14  153.58   15.40
   2  11 -14  189.18   18.40
  -2  11  14  163.78   16.90
  -1 -11  14   23.30    6.80
  -1  11  14   29.00    6.10
   1  11 -14   38.00    9.30
  -1  11  14   35.00    8.40
   0 -11  14  157.88   15.80
   0  11  14  184.98   13.20
   0  11  14  157.78   16.10
   0  11 -14  154.18   17.30
   1 -11  14   10.70    6.00
   1  11  14   10.80    6.20
  -1  11 -14   20.80    7.70
   1  11  14   19.60    6.20
   2 -11  14    2.20    4.50
   2  11  14    0.40    4.70
  -2  11 -14    0.10    5.50
   2  11  14    3.70    6.10
  -3  11 -14    4.00    6.40
   3  11  14    8.00    5.70
   4  11  14   29.30    9.20
  -4  11 -14   23.80    9.50
  -5  11 -14   12.40    9.10
  -8 -12  14   19.80    7.50
  -8 -12  14   20.40    8.10
  -8  12  14   21.80    9.20
  -7 -12  14   48.80    9.70
  -7 -12  14   49.99    9.30
   7  12 -14   23.50    8.80
  -7  12  14   49.20   11.30
  -6 -12  14   10.70    5.40
   6  12 -14   17.20    8.50
  -6  12  14   20.40    7.30
  -5 -12  14    2.20    4.50
  -5  12  14    3.10    6.10
   5  12 -14   -4.70    6.70
  -4 -12  14   62.19   10.20
  -4  12  14   89.89   13.60
   4  12 -14   56.69   11.70
  -3 -12  14   80.89   11.40
   3  12 -14   67.39   11.60
  -3  12  14  102.89   13.60
  -2 -12  14    6.60    5.40
  -2  12  14   10.50    6.40
   2  12 -14    3.50    6.90
  -1 -12  14   13.90    6.20
  -1  12  14   30.30    8.00
  -1  12  14   16.00    5.70
   1  12 -14   18.80    7.70
   0 -12  14   55.39    9.60
   0  12 -14   59.49   11.50
   0  12  14   49.10    9.50
   0  12  14   51.29    8.50
   1 -12  14   16.70    6.60
  -1  12 -14   10.40    7.60
   1  12  14   15.70    6.40
   1  12  14    4.10    3.50
  -2  12 -14   11.50    6.80
   2  12  14    6.90    5.20
   3  12  14   55.79   10.60
  -3  12 -14   53.79   11.60
  -4  12 -14  602.44   32.70
   4  12  14  609.24   29.70
  -7 -13  14   21.60    8.70
  -7 -13  14   28.30    7.70
   7  13 -14   20.00    9.90
  -7  13  14   35.60   10.60
  -6 -13  14   25.50    7.70
  -6  13  14   20.00    8.50
   6  13 -14   19.50    9.20
  -5 -13  14  111.09   13.30
  -5  13  14  128.59   16.00
   5  13 -14  122.29   17.20
  -4 -13  14   11.70    6.10
   4  13 -14    4.60    7.10
  -4  13  14   13.50    7.70
  -3 -13  14    6.00    5.40
  -3  13  14    3.00    5.80
   3  13 -14   11.20    7.90
  -2 -13  14   51.19   10.20
  -2  13  14   68.79   11.90
   2  13 -14   49.10   11.90
  -1 -13  14   19.70    7.00
  -1  13  14   33.70    7.70
  -1  13  14   25.60    8.50
   1  13 -14   21.50    9.00
   0 -13  14   13.90    6.20
   0  13 -14   14.60    8.40
   0  13  14   11.90    5.80
   0  13  14   10.90    6.70
   1  13  14  101.79   12.20
   1  13  14   65.49   12.10
  -1  13 -14   76.09   13.50
  -2  13 -14   38.10   10.70
   2  13  14   49.80    9.80
  -5 -14  14   37.90    8.40
  -5  14  14   59.39   12.40
   5  14 -14   24.20   11.10
  -4 -14  14    6.90    5.80
  -4  14  14    3.20    6.70
   4  14 -14    1.90    8.40
  -3 -14  14  114.89   14.00
  -3  14  14  112.39   14.90
   3  14 -14  108.09   16.60
  -2 -14  14   88.49   12.50
  -2  14  14  111.59   14.20
   2  14 -14   98.89   14.40
  -1 -14  14   61.89   10.80
  -1  14  14   48.30   10.40
   1  14 -14   39.50   11.30
   0  14 -14   20.20    9.70
   0  14  14    7.60    5.70
   0  14  14   20.70    7.50
   1  14  14   28.50    7.70
  -1  14 -14   19.80    9.10
 -12   0  15    4.90    5.80
 -12   0  15   -5.70    4.00
 -11   0  15    4.60    5.60
 -11   0  15    2.90    4.40
 -10   0  15    2.40    4.00
 -10   0  15   -4.30    4.40
  -9   0  15  113.99   13.20
  -9   0  15  117.49   12.40
  -8   0  15   17.00    5.90
  -8   0  15   10.70    4.50
  -7   0  15  154.98   15.00
  -7   0  15   92.09    9.70
  -6   0  15    7.80    3.70
  -6   0  15   -0.20    3.30
  -5   0  15 2497.95   63.29
  -5   0  15 2425.16   69.89
  -4   0  15   14.30    3.80
  -4   0  15   11.20    5.50
  -3   0  15  167.38   10.20
  -3   0  15  124.49   13.00
  -2   0  15    0.60    3.30
  -2   0  15    0.80    2.80
  -1   0  15  439.36   21.60
  -1   0  15  434.26   18.30
   0   0  15    4.80    4.20
   0   0  15    0.40    2.50
   1   0  15   60.79    9.40
   1   0  15  110.49   11.20
   2   0  15    5.50    3.70
   2   0  15   -2.70    3.70
   3   0  15   35.10    7.40
   3   0  15   40.00    8.20
   4   0  15   -4.70    3.60
   4   0  15    1.10    3.60
   5   0  15   12.90    6.10
   5   0  15   13.80    5.70
   6   0  15    4.20    5.20
   6   0  15    1.70    5.00
   7   0  15   92.49   13.80
 -12  -1  15   38.50    8.90
 -12  -1  15   77.59   11.40
 -12   1  15   78.69   12.20
 -12   1  15   49.00    9.60
 -11  -1  15   13.90    6.00
 -11  -1  15   13.00    6.10
 -11   1  15   10.50    6.30
 -11   1  15   11.10    5.90
 -10  -1  15   44.20    8.10
 -10  -1  15   48.60    8.80
 -10   1  15   42.30    8.10
 -10   1  15   33.10    8.40
  -9  -1  15   41.90    7.90
  -9  -1  15   36.20    7.80
  -9   1  15   34.80    7.00
  -9   1  15   35.90    8.10
  -8  -1  15   86.79   11.20
  -8  -1  15  101.79   10.70
  -8   1  15   88.59   11.70
  -7  -1  15   36.40    7.90
  -7   1  15   44.40    8.70
  -6  -1  15  168.48   15.60
  -6  -1  15  150.68   10.30
  -6   1  15  176.08   17.10
  -5  -1  15  144.29   14.40
  -5  -1  15  155.38   10.10
  -5   1  15  147.79   15.00
  -4  -1  15  577.04   25.40
  -4  -1  15  559.74   19.60
   4   1 -15  594.04   22.30
  -4   1  15  582.14   25.80
  -3  -1  15   21.70    6.10
   3   1 -15   32.80    6.20
  -3   1  15   33.80    7.80
  -3   1  15   28.50    4.90
  -2  -1  15  212.58   14.60
  -2  -1  15  221.78   12.40
  -2   1  15  210.78   11.40
  -2   1  15  191.78   14.30
  -1  -1  15    7.30    3.90
  -1  -1  15    5.50    4.50
  -1   1  15   21.00    6.00
  -1   1  15   13.00    4.00
   0  -1  15  191.38   12.30
   0  -1  15  179.38   13.60
   0   1  15  180.38   11.60
   0   1  15  163.48   15.10
   1  -1  15  463.75   22.70
   1  -1  15  474.55   20.60
   1   1  15  432.96   22.10
   1   1  15  467.85   20.10
   2  -1  15  365.06   20.20
   2  -1  15  328.37   17.70
   2   1  15  326.67   17.30
   2   1  15  358.16   20.00
   3  -1  15   31.10    7.70
   3  -1  15   25.30    6.40
   3   1  15   35.90    8.40
   3   1  15   31.60    7.10
   4  -1  15   12.30    5.50
   4  -1  15    6.30    4.70
   4   1  15   13.10    5.70
   4   1  15   16.40    6.40
   5  -1  15    4.00    4.90
   5  -1  15    8.50    4.70
   5   1  15    1.70    4.50
   5   1  15    1.40    4.20
   6  -1  15   14.30    6.60
   6  -1  15   21.70    7.60
   6   1  15   21.10    7.40
   6   1  15   17.90    6.70
   7  -1  15    8.00    6.30
   7  -1  15    0.20    4.60
   7   1  15    6.30    5.90
 -12  -2  15    8.00    5.60
 -12  -2  15    3.20    4.80
 -12   2  15    1.50    4.90
 -12   2  15    3.80    5.50
 -11  -2  15  190.38   14.90
 -11  -2  15  223.68   15.90
 -11   2  15  161.88   15.70
 -11   2  15  214.88   16.60
 -10  -2  15   23.50    6.60
 -10  -2  15   21.60    6.40
 -10   2  15   27.80    7.70
  -9  -2  15   39.00    7.60
  -9  -2  15   39.50    7.90
  -9   2  15   27.00    7.30
  -8  -2  15   17.20    6.10
  -8  -2  15   23.00    5.60
  -8   2  15   17.40    6.40
  -7  -2  15  142.29   10.50
  -7  -2  15  217.88   14.80
  -7   2  15  234.08   16.20
  -6  -2  15   39.90    7.90
  -6  -2  15   61.69    7.90
  -6   2  15   59.19   10.00
  -5  -2  15  391.66   20.00
  -5  -2  15  357.06   15.70
  -5   2  15  381.26   20.90
  -4  -2  15  118.99   12.90
  -4   2  15   98.99   12.20
   4   2 -15  113.69   10.40
  -3  -2  15  182.08   13.50
  -3   2  15  152.48   14.70
  -3   2  15  181.08    9.90
   3   2 -15  192.48   11.90
  -2  -2  15   16.90    5.80
  -2  -2  15   26.90    5.90
  -2   2  15   21.90    4.40
  -2   2  15   14.10    5.70
  -1  -2  15   87.49   11.00
  -1  -2  15   94.59    9.90
  -1   2  15   81.89   10.90
  -1   2  15  101.19    9.40
   0  -2  15    2.20    3.50
   0  -2  15    5.70    4.00
   0   2  15   11.30    4.10
   0   2  15    4.40    4.30
   1  -2  15   67.69    9.30
   1  -2  15   61.89   10.00
   1   2  15   61.69    9.40
   1   2  15   56.89    7.90
   2  -2  15  416.76   20.00
   2  -2  15  388.66   21.20
   2   2  15  395.66   21.10
   2   2  15  385.06   18.90
   3  -2  15  122.69   14.00
   3  -2  15  118.39   12.20
   3   2  15  117.59   13.30
   3   2  15  150.28   14.10
   4  -2  15   55.69    9.80
   4  -2  15   60.89    9.80
   4   2  15   62.39    9.80
   4   2  15   75.49   11.40
   5  -2  15   43.00    9.00
   5  -2  15   34.60    8.40
   5   2  15   36.00    8.20
   6  -2  15    4.90    5.40
   6  -2  15   12.00    6.30
   6   2  15   -2.00    5.00
   7  -2  15   38.00    9.60
   7  -2  15   27.30    8.90
   7   2  15   42.50   10.80
 -12  -3  15  443.36   23.70
 -12  -3  15  425.46   22.40
 -12   3  15  448.86   24.30
 -12   3  15  475.75   26.20
 -11  -3  15   77.09   11.00
 -11  -3  15   89.79   11.60
 -11   3  15   42.10    9.90
 -10  -3  15    8.40    4.90
 -10  -3  15    9.90    5.50
 -10   3  15    8.20    6.00
  -9  -3  15   80.79   10.70
  -9  -3  15   74.79    9.70
  -9   3  15   79.29   12.00
  -8  -3  15    9.80    4.30
  -8  -3  15    8.90    4.90
  -8   3  15    1.50    4.70
  -7  -3  15   16.80    4.80
  -7  -3  15   13.00    5.20
  -7   3  15   18.70    6.60
  -6  -3  15   55.29    9.00
  -6  -3  15   60.09    7.80
  -6   3  15   91.39   12.50
  -5  -3  15    6.90    4.70
  -5  -3  15    6.10    3.90
  -5   3  15    5.20    5.10
  -4  -3  15   31.20    7.10
  -4   3  15   41.20    8.50
   4   3 -15   29.50    6.70
  -3  -3  15    5.30    4.10
  -3   3  15    5.90    4.10
   3   3 -15    2.60    3.70
  -2  -3  15   32.60    6.80
   2   3 -15   39.00    7.10
  -2   3  15   21.40    6.60
  -2   3  15   39.40    5.60
  -1  -3  15  155.78   15.20
  -1  -3  15  133.99   12.10
  -1   3  15  123.99   13.40
  -1   3  15  144.49    9.90
   0  -3  15   61.89    8.60
   0  -3  15   52.59    8.70
   0   3  15   58.59    7.80
   0   3  15   58.49    9.60
   1  -3  15  108.89   11.80
   1  -3  15  132.99   14.60
   1   3  15  123.29   11.40
   1   3  15  111.29   13.10
   2  -3  15  268.07   16.00
   2  -3  15  255.57   17.00
   2   3  15  247.18   14.70
   2   3  15  248.58   16.30
   3  -3  15  182.78   16.80
   3  -3  15  191.08   16.40
   3   3  15  175.68   13.30
   3   3  15  199.98   14.80
   4  -3  15    3.10    4.60
   4  -3  15    9.70    5.40
   4   3  15    7.50    5.40
   4   3  15   10.50    5.60
   5  -3  15   -3.00    4.20
   5  -3  15    2.90    4.90
   5   3  15    1.80    5.40
   5   3  15    1.40    4.30
   6  -3  15   47.40    9.90
   6  -3  15   34.10    8.60
   6   3  15   44.60    9.40
   7  -3  15   54.39   10.70
   7  -3  15   57.49   11.70
   7   3  15   46.00   10.10
 -11  -4  15   11.00    5.80
 -11  -4  15   12.90    6.40
 -11   4  15   14.00    7.40
 -10  -4  15   -1.50    3.60
 -10  -4  15   -2.50    3.70
 -10   4  15   -2.60    4.90
  -9  -4  15   58.39    9.40
  -9  -4  15   64.59    9.40
  -9   4  15   97.39   13.30
  -8  -4  15   19.40    5.40
  -8  -4  15    9.00    4.70
  -8   4  15   17.10    6.70
  -7  -4  15   11.10    4.40
  -7  -4  15   10.80    4.90
  -7   4  15    6.60    5.40
  -6  -4  15  196.28   12.00
  -6  -4  15  175.78   13.40
  -6   4  15  177.68   17.00
  -5  -4  15    1.10    2.90
  -5  -4  15   11.90    5.00
  -5   4  15    7.70    4.80
  -4  -4  15   45.80    8.20
  -4   4  15   25.80    7.10
   4   4 -15   35.80    7.30
  -3  -4  15    8.70    4.80
  -3   4  15    5.60    4.90
   3   4 -15   11.00    5.00
  -2  -4  15   50.39    8.50
  -2   4  15   57.99    6.90
  -2   4  15   56.39   10.00
  -1  -4  15   28.40    6.70
  -1   4  15   30.00    5.40
   1   4 -15   23.70    6.40
  -1   4  15   48.50    9.30
   0  -4  15  170.38   14.80
   0  -4  15  179.08   13.70
   0   4  15  175.58   11.40
   0   4  15  140.49   14.60
   1  -4  15   17.30    5.50
   1  -4  15   10.80    5.70
   1   4  15   11.50    4.40
   1   4  15   12.80    5.70
   2  -4  15   90.89   12.00
   2  -4  15   79.39   10.70
   2   4  15   66.09   10.40
   2   4  15   81.09    9.80
   3  -4  15   72.69   10.80
   3  -4  15   86.89   12.40
   3   4  15   64.09    9.20
   3   4  15   68.79   10.80
   4  -4  15  103.49   13.20
   4  -4  15  119.69   13.80
   4   4  15  131.49   13.70
   5  -4  15   85.59   12.40
   5  -4  15  110.09   13.70
   5   4  15   72.19   10.70
   5   4  15   94.29   14.10
   6  -4  15   36.00    9.20
   6  -4  15   44.50    9.50
   6   4  15   68.99   11.30
   7  -4  15    0.60    6.20
   7  -4  15    3.30    5.60
   7   4  15   -6.90    5.40
 -11  -5  15    8.00    5.70
 -11  -5  15   14.80    6.70
 -11   5  15   12.70    7.30
 -10  -5  15  124.39   13.20
 -10  -5  15  147.29   15.20
 -10   5  15  142.59   15.90
  -9  -5  15   20.40    6.50
  -9  -5  15   14.70    5.80
  -9   5  15   17.20    7.10
  -8  -5  15   93.89   11.70
  -8  -5  15   93.79   11.40
  -8   5  15   61.09   10.70
  -7  -5  15   17.30    5.60
  -7  -5  15   20.70    6.20
  -7   5  15   12.50    6.40
  -6  -5  15   38.40    7.60
  -6  -5  15   32.90    6.30
  -6   5  15   29.00    8.00
  -5  -5  15   31.60    8.70
  -5  -5  15   33.90    7.20
   5   5 -15   39.50    7.90
  -5   5  15   54.29   12.50
  -4  -5  15   -1.00    3.20
  -4   5  15    3.70    4.20
   4   5 -15    0.50    4.70
  -3  -5  15   47.40    8.60
   3   5 -15   43.00    8.00
  -3   5  15   49.30    9.10
  -2  -5  15  267.47   16.60
  -2   5  15  264.37   12.80
  -2   5  15  226.38   16.50
   2   5 -15  289.27   16.30
  -1  -5  15    1.70    3.50
  -1   5  15    4.10    3.20
   1   5 -15   13.40    5.30
  -1   5  15    2.30    4.70
   0  -5  15   54.39    9.10
   0   5  15   55.59    9.80
   0   5  15   57.09    7.80
   0   5 -15   56.99    9.20
   1  -5  15   41.40    8.70
   1  -5  15   30.60    7.60
   1   5  15   37.00    6.70
   1   5  15   31.40    7.70
   2  -5  15    3.40    4.50
   2  -5  15    2.60    4.10
   2   5  15    2.10    3.60
   2   5  15   -1.60    3.60
   3  -5  15  228.28   16.30
   3  -5  15  251.77   16.70
   3   5  15  235.58   15.50
   3   5  15  226.98   15.90
   4  -5  15    2.10    5.00
   4  -5  15   13.10    6.10
   4   5  15    5.20    4.60
   4   5  15    5.60    4.60
   5  -5  15  113.49   13.80
   5  -5  15  130.89   14.70
   5   5  15  154.38   16.10
   6  -5  15   14.90    7.40
   6  -5  15    6.80    6.00
   6   5  15   17.90    7.20
   7  -5  15    9.50    7.80
   7   5  15    1.40    5.90
 -11  -6  15   44.90    9.50
 -11  -6  15   58.09    9.90
 -11   6  15   46.60   10.90
 -10  -6  15   78.19   11.20
 -10  -6  15   74.59   11.20
 -10   6  15   62.19   12.50
  -9  -6  15   11.30    5.40
  -9  -6  15    6.00    5.30
  -9   6  15    4.80    6.20
  -8  -6  15  454.15   21.40
  -8  -6  15  422.96   21.50
  -8   6  15  448.66   24.50
  -7  -6  15  139.69   14.00
  -7  -6  15  129.79   12.30
  -7   6  15  132.99   15.00
  -6  -6  15   12.00    5.20
  -6  -6  15   15.70    5.00
  -6   6  15    9.80    5.60
  -5  -6  15    9.40    5.00
  -5   6  15    9.90    6.00
   5   6 -15   11.60    6.40
  -4  -6  15   75.19   10.50
   4   6 -15   52.29    8.80
  -4   6  15   57.29   10.00
  -3  -6  15   37.20    7.80
  -3   6  15   24.50    7.20
  -2  -6  15  281.57   17.70
   2   6 -15  315.57   17.90
  -2   6  15  285.17   18.50
  -2   6  15  277.37   13.50
  -1  -6  15    1.40    3.80
  -1   6  15    2.80    5.00
   1   6 -15    6.00    4.20
  -1   6  15   10.10    3.70
   0  -6  15   41.10    8.60
   0   6  15   16.60    5.00
   0   6 -15   26.00    7.10
   0   6  15   24.90    7.30
   1  -6  15   21.10    6.40
   1   6  15   24.10    6.00
   1   6  15   17.80    6.60
  -1   6 -15   32.70    8.00
   2  -6  15    1.50    4.80
   2  -6  15   -0.10    3.40
  -2   6 -15   -0.80    5.50
   2   6  15    1.50    4.60
   2   6  15    7.60    4.60
   3  -6  15    6.20    5.50
   3  -6  15    3.90    4.70
   3   6  15   -1.30    3.00
   3   6  15   14.90    5.90
   4  -6  15  178.18   16.80
   4  -6  15  187.08   17.40
   4   6  15  159.98   15.50
   4   6  15  181.48   17.00
   5  -6  15   15.50    7.30
   5  -6  15   31.20    8.50
   5   6  15   21.10    7.60
   6  -6  15   48.70    9.70
   6  -6  15   44.10   10.30
   6   6  15   45.50    9.40
 -10  -7  15   54.69    9.90
 -10  -7  15   33.80    8.10
 -10   7  15   44.20   10.20
  -9  -7  15   29.60    7.60
  -9  -7  15   28.30    7.30
  -9   7  15   24.50    8.20
  -8  -7  15   34.60    7.80
  -8  -7  15   32.20    7.40
  -8   7  15   36.90    9.10
  -7  -7  15  136.79   13.00
  -7  -7  15  144.59   14.60
  -7   7  15  133.39   15.20
  -6  -7  15   32.40    7.90
  -6  -7  15   17.80    5.30
  -6   7  15   25.50    8.30
  -5  -7  15   68.39   10.30
   5   7 -15   79.49   11.00
  -5   7  15   70.89   10.90
  -4  -7  15   39.10    8.30
  -4   7  15   34.00    8.00
   4   7 -15   22.80    6.90
  -3  -7  15    5.30    4.70
   3   7 -15    3.80    5.60
  -3   7  15   -3.90    4.00
  -2  -7  15   29.40    7.60
  -2   7  15   24.70    5.40
   2   7 -15   17.50    6.70
  -2   7  15   38.90    8.60
  -1  -7  15   22.30    6.80
   1   7 -15   15.20    6.20
  -1   7  15   30.30    5.90
  -1   7  15   14.10    6.50
   0  -7  15   10.90    5.10
   0   7  15   10.60    4.70
   0   7 -15    7.30    5.50
   0   7  15   12.00    4.90
   1  -7  15    6.00    4.80
   1   7  15    1.30    4.00
  -1   7 -15   11.00    6.30
   1   7  15    2.50    4.60
   2  -7  15   39.60    8.70
  -2   7 -15   34.40    8.40
   2   7  15   25.20    7.60
   2   7  15   37.90    7.70
   3  -7  15   45.20    8.90
   3   7  15   26.20    7.20
  -3   7 -15   30.20    8.20
   3   7  15   37.60    7.80
   4  -7  15   86.39   13.00
   4  -7  15   90.09   12.70
   4   7  15   93.39   12.80
   5  -7  15  305.57   21.00
   5  -7  15  307.97   20.30
   5   7  15  285.17   19.40
   6  -7  15   65.59   12.10
   6   7  15   85.69   13.50
 -10  -8  15  373.46   21.80
 -10  -8  15  355.26   20.30
 -10   8  15  390.76   24.50
  -9  -8  15   48.40    9.10
  -9  -8  15   46.90    9.10
  -9   8  15   44.90   10.20
  -8  -8  15   30.30    7.20
  -8  -8  15   24.50    7.10
  -8   8  15   44.40   10.20
  -7  -8  15   35.70    8.20
  -7  -8  15   30.00    7.00
  -7   8  15   34.70    9.10
  -6  -8  15   19.50    6.50
   6   8 -15   17.50   10.50
  -6   8  15   20.40    7.80
  -5  -8  15   11.50    5.40
  -5   8  15   11.00    6.10
   5   8 -15    3.10    6.10
  -4  -8  15   18.90    6.60
  -4   8  15    5.00    4.80
   4   8 -15   10.70    5.60
  -3  -8  15   11.20    5.50
  -3   8  15   25.40    7.70
   3   8 -15   21.50    7.10
  -2  -8  15   83.79   11.80
  -2   8  15   87.99   12.40
   2   8 -15   91.79   12.00
  -1  -8  15   16.10    6.10
   1   8 -15   11.50    5.90
  -1   8  15    8.30    5.40
  -1   8  15    6.40    4.20
   0  -8  15  382.86   21.20
   0   8  15  392.26   22.20
   0   8 -15  387.66   21.90
   0   8  15  375.06   18.30
   1  -8  15  146.69   14.80
   1   8  15  124.09   12.10
   1   8  15  148.59   15.30
  -1   8 -15  156.88   15.50
   2  -8  15    2.00    4.10
   2   8  15    2.80    4.50
   2   8  15   -2.50    3.70
  -2   8 -15   -0.60    5.40
   3  -8  15   71.79   10.90
   3   8  15   50.89    9.20
  -3   8 -15   60.19   11.90
   3   8  15   69.39   10.90
   4  -8  15  389.46   22.40
   4   8  15  311.97   20.20
  -4   8 -15  380.16   23.80
   5  -8  15   45.20    9.70
  -5   8 -15   42.90   11.30
   5   8  15   81.19   12.30
  -9  -9  15  133.99   14.60
  -9  -9  15  121.19   14.70
  -9   9  15  120.69   15.70
  -8  -9  15   86.59   12.30
  -8  -9  15   89.39   12.10
  -8   9  15   74.99   12.60
  -7  -9  15   42.30    8.60
  -7  -9  15   44.90    9.00
  -7   9  15   21.50    8.00
  -6  -9  15    9.70    5.30
  -6   9  15   16.00    7.10
   6   9 -15    7.50    6.70
  -5  -9  15    0.70    4.20
  -5   9  15   -2.90    4.70
   5   9 -15   -4.50    5.70
  -4  -9  15    4.10    4.90
   4   9 -15    8.00    6.90
  -4   9  15    4.80    6.30
  -3  -9  15  310.47   19.10
  -3   9  15  328.37   20.60
   3   9 -15  339.47   20.50
  -2  -9  15   21.00    6.60
  -2   9  15    2.70    5.70
   2   9 -15    6.30    6.10
  -1  -9  15  119.29   14.20
  -1   9  15  104.69   10.60
  -1   9  15  102.79   13.00
   1   9 -15   89.79   12.20
   0  -9  15  375.06   21.10
   0   9 -15  365.96   21.70
   0   9  15  344.57   18.00
   0   9  15  374.26   21.70
   1  -9  15  221.78   16.40
   1   9  15  217.08   16.30
   1   9  15  212.18   14.50
  -1   9 -15  208.98   19.10
   2  -9  15   75.69   11.40
   2   9  15   84.49   10.90
  -2   9 -15   49.99   10.20
   3  -9  15    3.00    4.90
  -3   9 -15   -4.00    6.30
   3   9  15   -2.10    4.70
   4  -9  15   -2.10    4.60
  -4   9 -15    2.40    6.90
   4   9  15   -0.60    5.50
   5   9  15  116.39   15.10
  -5   9 -15  119.79   16.50
  -9 -10  15   23.20    8.10
  -9 -10  15   19.80    7.40
  -9  10  15   36.70    9.80
  -8 -10  15   20.50    7.50
  -8 -10  15   30.10    7.80
  -8  10  15   16.60    7.50
  -7 -10  15   20.60    8.60
  -7 -10  15   12.10    6.10
  -7  10  15   17.00    7.90
  -6 -10  15  122.59   14.10
   6  10 -15  107.59   13.80
  -6  10  15  155.88   17.20
  -5 -10  15   13.80    6.20
   5  10 -15    5.60    6.60
  -5  10  15   29.30    8.90
  -4 -10  15  488.15   24.50
  -4  10  15  457.15   25.30
   4  10 -15  483.15   25.70
  -3 -10  15   79.19   11.80
  -3  10  15   86.89   12.90
   3  10 -15   70.59   11.40
  -2 -10  15  124.19   14.10
   2  10 -15  123.29   14.80
  -2  10  15  170.78   17.40
  -1 -10  15   10.90    5.60
   1  10 -15   10.10    7.50
  -1  10  15    9.70    6.40
  -1  10  15    5.70    4.50
   0 -10  15  450.25   23.80
   0  10 -15  429.26   24.90
   0  10  15  489.75   24.70
   0  10  15  491.65   21.80
   1 -10  15  145.89   15.20
   1  10  15  163.78   16.80
   1  10  15  133.29   13.50
  -1  10 -15  154.38   17.10
   2 -10  15   13.50    6.90
   2  10  15    9.90    6.40
   2  10  15   12.50    5.70
  -2  10 -15    3.00    6.60
   3 -10  15   44.20    9.40
   3  10  15   44.60    8.90
  -3  10 -15   36.10    8.90
  -4  10 -15   12.10    9.00
   4  10  15   22.10    8.00
  -8 -11  15    7.50    5.90
  -8 -11  15    1.20    5.80
  -8  11  15   10.40    7.80
  -7 -11  15  188.08   17.60
  -7  11  15  215.98   20.70
  -6 -11  15   64.69   10.40
   6  11 -15   32.00   10.10
  -6  11  15   57.99   11.20
  -5 -11  15   21.50    6.90
  -5  11  15   14.70    7.50
   5  11 -15    9.90    8.40
  -4 -11  15   14.10    6.20
  -4  11  15   14.50    7.70
   4  11 -15   11.70    7.80
  -3 -11  15  410.66   22.40
  -3  11  15  407.86   23.40
   3  11 -15  387.06   23.90
  -2 -11  15   21.50    7.50
   2  11 -15   12.80    7.40
  -2  11  15    7.90    6.20
  -1 -11  15    1.80    4.60
  -1  11  15    3.50    6.00
   1  11 -15    8.20    6.90
  -1  11  15    8.60    6.00
   0 -11  15    9.60    5.30
   0  11 -15   13.30    7.90
   0  11  15   11.90    5.50
   0  11  15    9.60    6.30
   1 -11  15    5.90    5.50
   1  11  15    1.10    4.90
   1  11  15   10.10    6.50
  -1  11 -15    3.70    6.90
   2 -11  15   21.00    7.90
  -2  11 -15   15.70    8.30
   2  11  15    1.90    5.00
   3 -11  15   -3.10    3.40
   3  11  15    2.70    5.80
  -3  11 -15    3.00    6.60
  -7 -12  15  211.68   16.30
  -7  12  15  247.58   23.10
  -6 -12  15  227.88   17.60
   6  12 -15  202.78   20.90
  -6  12  15  237.18   21.80
  -5 -12  15   22.00    7.10
  -5  12  15   39.60    9.80
   5  12 -15   24.90   10.00
  -4 -12  15   89.09   12.50
  -4  12  15   94.79   13.90
   4  12 -15   82.29   13.90
  -3 -12  15    5.90    4.90
   3  12 -15    7.00    7.10
  -3  12  15   -2.10    6.20
  -2 -12  15    4.60    5.70
  -2  12  15    9.90    7.20
   2  12 -15   11.00    7.70
  -1 -12  15  176.78   17.60
   1  12 -15  193.98   19.90
  -1  12  15  213.68   19.20
   0 -12  15   14.00    6.30
   0  12  15    6.90    5.10
   0  12  15   12.90    6.90
   0  12 -15    0.00    6.70
   1 -12  15    3.50    5.40
   1  12  15    7.40    5.80
   1  12  15   -1.10    4.70
  -1  12 -15    8.20    6.80
   2 -12  15   14.30    6.80
  -2  12 -15    9.30    8.20
   2  12  15   19.10    7.10
  -5 -13  15   13.30    6.50
  -5  13  15    6.90    7.40
   5  13 -15    6.60    8.40
  -4 -13  15   32.80    8.90
   4  13 -15   27.90    9.60
  -4  13  15   19.30    7.80
  -3 -13  15   22.30    7.70
  -3  13  15   15.50    7.40
   3  13 -15   30.50   11.00
  -2 -13  15   31.90    8.40
  -2  13  15   49.00   10.00
   2  13 -15   14.00    8.40
  -1 -13  15    7.80    6.20
   1  13 -15    0.90    6.40
  -1  13  15    1.70    6.10
   0 -13  15   22.20    7.80
   0  13  15   38.40    8.10
   0  13 -15   36.60   10.80
   0  13  15   21.80    8.30
  -1  13 -15    4.10    6.80
 -11   0  16   -2.30    4.30
 -11   0  16   -0.70    4.60
 -10   0  16   80.29   11.80
 -10   0  16   67.09   10.10
  -9   0  16   11.00    5.80
  -9   0  16    4.00    3.90
  -8   0  16  213.68   13.70
  -8   0  16  239.68   16.70
  -7   0  16   -2.60    3.70
  -7   0  16   -1.00    3.10
  -6   0  16  243.78   16.70
  -6   0  16  237.68   13.00
  -5   0  16    4.80    4.60
  -5   0  16    5.80    3.50
  -4   0  16  378.56   20.70
  -3   0  16    4.50    2.90
  -3   0  16    3.50    4.70
  -2   0  16   24.20    6.80
  -2   0  16   22.70    4.90
  -1   0  16    0.20    3.30
  -1   0  16   -1.10    3.10
   0   0  16   43.60    7.20
   0   0  16   21.60    6.60
   1   0  16    0.00    3.00
   1   0  16   -0.70    3.40
   2   0  16    1.30    4.00
   2   0  16    3.40    4.60
   3   0  16   -0.40    3.90
   3   0  16   -1.00    3.30
   4   0  16   27.50    7.90
   4   0  16   14.00    6.40
   5   0  16    2.10    5.10
   5   0  16    1.10    5.10
   6   0  16   15.60    7.20
   6   0  16    8.70    5.80
 -11  -1  16   12.60    6.00
 -11  -1  16   15.80    7.00
 -11   1  16    5.30    6.00
 -11   1  16    2.00    4.60
 -10  -1  16   46.60    8.60
 -10  -1  16   45.50    9.20
 -10   1  16   38.40    9.00
 -10   1  16   51.89    8.80
  -9  -1  16   48.80    9.70
  -9  -1  16   46.40    8.30
  -9   1  16   38.50    9.20
  -9   1  16   33.60    7.30
  -8  -1  16   18.60    5.60
  -8  -1  16   24.50    7.20
  -8   1  16   26.20    7.40
  -8   1  16   22.30    5.80
  -7  -1  16   50.29    9.00
  -7  -1  16   39.60    6.90
  -7   1  16   52.69    9.70
  -6  -1  16   90.49   11.90
  -6  -1  16   85.39    9.50
  -6   1  16   72.39   10.70
  -5  -1  16  637.84   27.80
  -5   1  16  621.84   28.10
  -4  -1  16  124.69   13.50
  -4   1  16  122.19   13.60
  -3  -1  16  100.49   12.40
  -3   1  16  128.09   14.30
   3   1 -16  114.59   10.60
  -2  -1  16   32.80    6.10
  -2  -1  16   45.50    9.20
  -2   1  16   31.20    6.00
  -2   1  16   33.50    8.10
  -1  -1  16   60.99    8.30
  -1  -1  16   49.99    8.90
  -1   1  16   50.19    7.10
  -1   1  16   53.09    9.60
   0  -1  16   86.49   11.60
   0  -1  16   68.89    9.20
   0   1  16   50.19    9.00
   0   1  16   67.99    9.00
   1  -1  16    2.50    4.00
   1  -1  16   13.50    5.00
   1   1  16    8.20    5.40
   1   1  16    8.40    4.40
   2  -1  16   55.99    9.90
   2  -1  16   50.19    8.70
   2   1  16   44.90    9.00
   2   1  16   41.60    7.60
   3  -1  16    1.10    4.20
   3  -1  16    3.00    5.40
   3   1  16    2.10    4.60
   3   1  16    8.40    4.80
   4  -1  16   11.70    5.50
   4  -1  16   22.70    7.40
   4   1  16    3.70    5.00
   4   1  16   17.10    5.90
   5  -1  16   53.39    9.90
   5  -1  16   55.79   11.10
   5   1  16   53.79   10.60
   5   1  16   59.29   10.50
   6  -1  16   54.29   10.90
   6  -1  16   97.09   13.60
   6   1  16   72.59   11.70
 -11  -2  16  102.99   12.50
 -11  -2  16   82.09   11.70
 -11   2  16   82.69   12.00
 -11   2  16   71.89   11.80
 -10  -2  16   45.20    8.50
 -10  -2  16   33.10    8.00
 -10   2  16   72.49   11.70
 -10   2  16   38.80    8.00
  -9  -2  16  357.66   18.90
  -9  -2  16  398.36   21.40
  -9   2  16  363.66   21.70
  -8  -2  16   11.90    5.50
  -8  -2  16    2.70    3.70
  -8   2  16    9.20    6.00
  -7  -2  16   18.00    5.20
  -7  -2  16   16.30    6.10
  -7   2  16   16.40    6.00
  -6  -2  16   32.70    7.50
  -6  -2  16   29.90    6.00
  -6   2  16   22.10    6.80
  -5  -2  16  128.79   13.50
  -5   2  16  113.79   13.30
  -4  -2  16    5.00    4.60
  -4   2  16   -1.70    3.90
  -3  -2  16   19.90    5.80
   3   2 -16   17.20    5.40
  -3   2  16    7.00    4.80
  -2  -2  16   24.90    5.80
  -2  -2  16   26.20   13.40
  -2   2  16   35.20    8.20
  -2   2  16   27.60    5.40
  -1  -2  16   15.40    4.90
  -1  -2  16   11.60    4.50
  -1   2  16    7.60    5.30
  -1   2  16   15.00    4.40
   0  -2  16  115.79   11.90
   0  -2  16   90.29   11.80
   0   2  16  109.89   10.90
   0   2  16  117.69   13.60
   1  -2  16  162.08   12.40
   1  -2  16  155.08   15.60
   1   2  16  162.08   11.90
   1   2  16  168.88   16.60
   2  -2  16  148.59   15.80
   2  -2  16  160.58   14.60
   2   2  16  138.39   14.80
   2   2  16  153.88   13.60
   3  -2  16  115.29   13.30
   3  -2  16  124.29   15.40
   3   2  16  111.89   14.10
   3   2  16  115.49   12.80
   4  -2  16   14.80    6.10
   4  -2  16    8.40    5.00
   4   2  16   11.80    6.40
   4   2  16   24.80    7.20
   5  -2  16  226.78   16.80
   5  -2  16  227.58   17.50
   5   2  16  196.18   19.00
   5   2  16  269.87   18.10
   6  -2  16    5.00    6.20
   6  -2  16    6.90    5.30
   6   2  16    1.10    5.60
 -11  -3  16  111.19   13.50
 -11  -3  16  107.19   13.10
 -11   3  16  137.89   16.10
 -10  -3  16   91.79   12.00
 -10  -3  16   78.49   11.00
 -10   3  16   62.19   10.80
  -9  -3  16   71.99    9.70
  -9  -3  16   75.59   10.80
  -9   3  16   89.89   12.90
  -8  -3  16   41.40    8.20
  -8   3  16   38.90    8.60
  -7  -3  16   76.89   11.20
  -7  -3  16   88.69    9.70
  -7   3  16   68.89   11.40
  -6  -3  16    7.00    3.80
  -6  -3  16    2.00    4.00
  -6   3  16    1.90    5.00
  -5  -3  16   21.20    6.80
  -5   3  16   13.90    6.10
  -4  -3  16   14.60    5.60
   4   3 -16   19.40    6.50
  -4   3  16    8.90    5.40
  -3  -3  16    5.10    4.50
   3   3 -16    8.80    5.30
  -3   3  16    0.80    4.20
  -2  -3  16   53.89    8.90
  -2   3  16   59.19    7.30
   2   3 -16   50.39    8.00
  -2   3  16   83.69   11.40
  -1  -3  16   11.20    4.90
  -1  -3  16    4.20    4.20
  -1   3  16    3.90    3.20
  -1   3  16    7.80    5.10
   0  -3  16   20.20    5.90
   0  -3  16   20.80    7.00
   0   3  16   17.10    6.40
   0   3  16   26.00    5.90
   1  -3  16   10.30    5.90
   1  -3  16   17.30    5.40
   1   3  16    9.20    4.70
   1   3  16    8.60    5.50
   2  -3  16  149.39   15.60
   2  -3  16  151.38   14.30
   2   3  16  158.78   16.10
   2   3  16  180.38   13.20
   3  -3  16  121.69   14.20
   3  -3  16   93.79   12.80
   3   3  16   75.89   11.80
   3   3  16   88.39   11.20
   4  -3  16   76.09   11.40
   4  -3  16   58.89   10.70
   4   3  16   61.99   10.30
   4   3  16   64.89   11.20
   5  -3  16    1.40    5.80
   5  -3  16    7.00    6.00
   5   3  16   13.30    6.90
   5   3  16   22.20    7.30
   6  -3  16  146.79   16.80
   6  -3  16  174.88   18.70
   6   3  16  181.68   18.40
 -11  -4  16  122.99   13.90
 -11  -4  16  136.59   14.70
 -11   4  16  114.29   15.30
 -10  -4  16    8.10    5.60
 -10  -4  16   13.70    5.90
 -10   4  16   14.90    7.50
  -9  -4  16  155.58   14.30
  -9  -4  16  165.48   16.00
  -9   4  16  186.28   18.90
  -8  -4  16    0.00    2.80
  -8  -4  16   12.20    5.50
  -8   4  16   15.90    6.40
  -7  -4  16    2.20    3.40
  -7  -4  16   14.90    5.80
  -7   4  16   12.20    6.10
  -6  -4  16  222.68   15.70
  -6   4  16  244.68   17.60
  -5  -4  16    8.80    5.30
  -5   4  16   16.80    6.30
  -4  -4  16   84.89   11.50
   4   4 -16   67.09    9.40
  -4   4  16   60.99   10.60
  -3  -4  16  153.78   15.70
   3   4 -16  135.59   12.70
  -3   4  16  157.48   16.20
  -2  -4  16  174.68   16.50
  -2   4  16  174.38   10.90
  -2   4  16  183.48   17.70
  -1  -4  16   83.19   12.00
  -1   4  16   83.09   11.80
  -1   4  16   81.79    9.00
   1   4 -16   91.49   10.80
   0  -4  16  207.88   14.40
   0  -4  16  182.78   17.20
   0   4  16  219.88   16.30
   0   4  16  226.18   13.30
   1  -4  16   77.69   11.00
   1  -4  16   50.09    9.20
   1   4  16   69.39    9.20
   1   4  16   66.79   10.80
   2  -4  16  190.78   17.90
   2  -4  16  213.68   15.40
   2   4  16  209.98   14.30
   2   4  16  231.98   16.70
   3  -4  16  668.33   28.90
   3  -4  16  603.84   29.20
   3   4  16  660.63   29.50
   3   4  16  651.43   27.50
   4  -4  16   10.70    6.40
   4  -4  16    6.80    5.80
   4   4  16    3.90    5.60
   4   4  16    1.60    4.30
   5  -4  16   89.39   13.20
   5  -4  16   96.39   13.80
   5   4  16  100.79   13.70
   6  -4  16   19.00    8.00
   6  -4  16   30.40    8.60
   6   4  16   37.40    9.70
 -10  -5  16   12.70    6.40
 -10  -5  16    2.60    4.60
 -10   5  16    3.70    6.00
  -9  -5  16   -4.70    4.30
  -9  -5  16   -1.80    4.20
  -9   5  16    0.70    5.10
  -8  -5  16   14.40    5.00
  -8  -5  16   31.80    8.00
  -8   5  16   65.19   11.90
  -7  -5  16   26.90    6.50
  -7  -5  16   36.30    8.10
  -7   5  16   37.70    9.30
  -6  -5  16    4.70    4.80
  -6   5  16    7.90    5.40
  -5  -5  16    0.80    3.90
  -5   5  16    5.40    4.80
  -4  -5  16  120.49   13.70
   4   5 -16  115.69   12.50
  -4   5  16  138.79   15.90
  -3  -5  16  617.14   27.60
  -3   5  16  581.54   28.20
   3   5 -16  640.64   26.60
  -2  -5  16  589.24   26.90
  -2   5  16  550.54   26.90
   2   5 -16  573.44   25.00
  -1  -5  16   25.40    7.00
  -1   5  16   13.10    6.50
  -1   5  16   27.30    5.60
   1   5 -16   15.40    5.90
   0  -5  16    1.90    4.20
   0   5  16    8.40    4.50
   0   5 -16    4.10    4.60
   0   5  16   12.50    6.00
   1  -5  16  121.59   14.10
   1  -5  16  106.19   12.90
   1   5  16  110.29   11.40
   1   5  16   99.39   13.10
   2  -5  16  259.17   17.50
   2  -5  16  251.57   18.00
   2   5  16  274.97   16.50
   2   5  16  274.57   18.40
   3  -5  16   26.30    6.90
   3  -5  16   29.80    7.50
   3   5  16   33.40    7.60
   3   5  16   23.60    7.80
   4  -5  16    0.00    5.30
   4  -5  16    2.10    4.70
   4   5  16    6.50    5.60
   4   5  16    3.40    5.60
   5  -5  16   10.50    6.20
   5  -5  16   14.50    5.90
   5   5  16    3.40    6.20
   6  -5  16   19.40    7.40
   6  -5  16    2.50    6.10
   6   5  16   -0.60    6.50
 -10  -6  16   10.70    5.60
 -10  -6  16    5.00    5.60
 -10   6  16    7.70    6.50
  -9  -6  16   29.80    7.90
  -9  -6  16   35.40    8.00
  -9   6  16   21.40    7.50
  -8  -6  16    6.70    5.50
  -8  -6  16    7.90    4.80
  -8   6  16    8.90    6.70
  -7  -6  16   21.30    6.50
  -7  -6  16   13.10    5.80
  -7   6  16   22.00    8.00
  -6  -6  16   38.00    7.90
  -6   6  16   35.90    8.90
  -5  -6  16  273.97   17.70
  -5   6  16  254.07   18.40
  -4  -6  16  304.07   18.70
  -4   6  16  292.37   19.50
   4   6 -16  301.07   18.30
  -3  -6  16   17.50    6.60
  -3   6  16    8.80    5.70
   3   6 -16    0.90    3.60
  -2  -6  16   93.59   12.60
   2   6 -16   84.69   11.10
  -2   6  16   69.19   11.90
  -1  -6  16  109.79   13.50
  -1   6  16  123.39   10.90
   1   6 -16  119.49   13.10
  -1   6  16  109.29   13.40
   0  -6  16  268.87   18.40
   0   6 -16  284.37   18.00
   0   6  16  273.37   15.40
   0   6  16  238.98   17.30
   1  -6  16   11.70    5.70
   1   6  16   12.60    5.10
   1   6  16   25.50    7.80
  -1   6 -16    7.60    6.80
   2  -6  16    4.80    4.70
   2   6  16   16.00    7.00
  -2   6 -16   13.80    7.50
   2   6  16   12.60    5.40
   3  -6  16   12.80    7.00
   3  -6  16    6.50    5.30
   3   6  16   13.00    6.00
   3   6  16    1.10    4.50
   4  -6  16   73.39   12.70
   4  -6  16   64.69   11.30
   4   6  16   60.09   10.50
   5  -6  16  110.39   14.70
   5  -6  16   95.69   13.50
   5   6  16  112.09   14.40
 -10  -7  16   93.09   13.10
 -10  -7  16   80.09   11.40
 -10   7  16  111.99   15.50
  -9  -7  16   50.89    9.40
  -9  -7  16   45.60    9.20
  -9   7  16   34.30    9.10
  -8  -7  16   24.40    6.60
  -8  -7  16   35.90    8.40
  -8   7  16   35.60    9.20
  -7  -7  16   12.20    6.50
  -7   7  16    3.00    5.40
  -6  -7  16   16.20    6.30
  -6   7  16   19.80    7.60
  -5  -7  16    9.90    6.00
   5   7 -16    3.10    6.60
  -5   7  16    7.50    5.80
  -4  -7  16  393.56   21.90
   4   7 -16  426.56   22.60
  -4   7  16  399.96   23.20
  -3  -7  16   39.80    8.50
   3   7 -16   47.20    9.20
  -3   7  16   29.70    8.40
  -2  -7  16   59.99   10.20
   2   7 -16   71.09   10.50
  -2   7  16   70.79   11.60
  -1  -7  16   35.00    8.00
   1   7 -16   37.20    8.50
  -1   7  16   36.10    6.50
  -1   7  16   33.00    8.80
   0  -7  16   47.10    9.70
   0   7  16   33.00    7.10
   0   7  16   27.20    7.70
   0   7 -16   32.20    8.20
   1  -7  16   83.29   11.80
   1   7  16   97.19   12.60
  -1   7 -16   81.19   11.60
   1   7  16   85.09   10.60
   2  -7  16   12.30    6.40
  -2   7 -16    6.80    6.00
   2   7  16    4.30    4.70
   2   7  16    2.70    5.20
   3  -7  16    9.30    6.10
  -3   7 -16   11.00    6.70
   3   7  16    5.70    5.40
   3   7  16    9.30    6.00
   4  -7  16  230.98   21.10
   4  -7  16  241.98   18.10
  -4   7 -16  200.58   19.80
   4   7  16  205.18   18.10
   5  -7  16  144.59   17.20
   5  -7  16  156.08   17.30
   5   7  16  125.09   15.50
  -9  -8  16   96.49   12.90
  -9  -8  16  122.79   13.90
  -9   8  16  107.29   15.00
  -8  -8  16   34.30    7.70
  -8  -8  16   22.80    6.90
  -8   8  16   41.30   10.00
  -7  -8  16    7.40    5.50
  -7   8  16    6.30    6.10
  -6  -8  16    5.80    5.50
  -6   8  16   12.60    6.30
  -5  -8  16   26.40    7.40
  -5   8  16   10.80    6.80
   5   8 -16    9.70    6.40
  -4  -8  16   11.00    5.40
   4   8 -16   -0.30    5.10
  -4   8  16    8.40    6.10
  -3  -8  16   21.40    6.80
  -3   8  16   35.20    9.20
   3   8 -16   17.40    7.50
  -2  -8  16   41.20    9.40
   2   8 -16   29.20    8.30
  -2   8  16   29.80    7.90
  -1  -8  16   83.19   11.80
  -1   8  16   94.99   13.30
  -1   8  16  101.39   10.50
   1   8 -16   81.49   12.00
   0  -8  16   23.70    7.30
   0   8 -16   24.40    8.20
   0   8  16   29.10    6.70
   0   8  16   30.70    8.30
   1  -8  16   65.99   11.10
   1   8  16   52.19    8.60
   1   8  16   43.40    9.40
  -1   8 -16   55.09   10.20
   2  -8  16   38.30    8.70
   2   8  16   35.60    7.90
  -2   8 -16   18.00    8.40
   2   8  16   45.60    9.70
   3  -8  16   44.70    9.40
  -3   8 -16   36.30    9.40
   3   8  16   37.40    8.40
   4  -8  16  115.69   14.90
  -4   8 -16  106.09   14.80
   4   8  16  126.79   14.70
  -8  -9  16   -0.10    4.70
  -8   9  16    4.70    6.30
  -7  -9  16   13.40    6.40
  -7   9  16    7.60    6.50
  -6  -9  16   12.00    6.40
  -6   9  16   22.20    8.40
  -5  -9  16   43.70    9.60
   5   9 -16   27.50    8.60
  -5   9  16   44.20    9.70
  -4  -9  16   73.79   11.60
   4   9 -16   58.39   10.80
  -4   9  16   86.49   13.70
  -3  -9  16   14.50    6.60
  -3   9  16   17.20    7.80
   3   9 -16   22.90    7.70
  -2  -9  16    5.30    4.70
  -2   9  16    7.80    6.00
   2   9 -16   -0.50    5.40
  -1  -9  16   63.79   10.30
  -1   9  16   54.19   10.40
   1   9 -16   47.80    9.80
   0  -9  16   80.39   11.60
   0   9  16   89.99   12.50
   0   9 -16   80.59   12.70
   0   9  16   98.79   11.00
   1  -9  16   92.69   12.40
  -1   9 -16  108.69   14.80
   1   9  16  111.99   12.30
   1   9  16  111.09   14.30
   2  -9  16   20.20    6.60
  -2   9 -16   14.20    7.80
   2   9  16    3.30    3.70
   2   9  16    7.00    5.90
   3  -9  16    1.50    5.50
   3   9  16   -0.10    5.50
  -3   9 -16    4.40    7.30
   4  -9  16    0.50    5.70
   4   9  16   -0.70    5.40
  -4   9 -16   -3.30    6.10
  -8 -10  16   24.00    7.90
  -8  10  16   15.60    7.90
  -7 -10  16  148.29   16.00
  -7  10  16  136.09   16.00
  -6 -10  16   15.00    6.80
  -6  10  16   31.60    9.60
  -5 -10  16   -1.20    4.60
  -5  10  16    9.90    7.00
   5  10 -16    2.70    6.00
  -4 -10  16    6.50    5.20
   4  10 -16   -4.10    6.70
  -4  10  16   12.00    6.70
  -3 -10  16  277.87   19.00
  -3  10  16  282.07   20.00
   3  10 -16  305.77   20.70
  -2 -10  16   19.80    6.80
   2  10 -16   12.90    7.50
  -2  10  16   16.10    7.00
  -1 -10  16   18.50    7.00
  -1  10  16   26.10    8.10
   1  10 -16   11.60    6.60
   0 -10  16  267.97   18.90
   0  10  16  298.37   19.90
   0  10  16  298.87   17.20
   0  10 -16  287.37   21.00
   1 -10  16   -1.20    4.50
   1  10  16    5.50    5.40
  -1  10 -16    8.90    7.10
   1  10  16    3.00    4.90
   2 -10  16    9.10    6.50
  -2  10 -16    3.10    6.80
   2  10  16    6.90    5.90
   3 -10  16   34.30    9.00
   3  10  16   53.99   10.50
  -3  10 -16   27.20    9.70
  -7  11  16  201.08   21.10
  -6 -11  16  164.78   16.40
  -6  11  16  149.29   17.00
  -5 -11  16    7.70    5.70
  -5  11  16    7.00    6.60
   5  11 -16   -0.80    7.40
  -4 -11  16   45.80    9.40
  -4  11  16   82.29   13.60
   4  11 -16   72.79   12.90
  -3 -11  16    8.00    5.70
  -3  11  16    6.50    6.50
   3  11 -16    8.30    6.80
  -2 -11  16    8.20    5.90
   2  11 -16    7.50    7.00
  -2  11  16   14.00    7.10
  -1 -11  16   25.30    7.00
   1  11 -16   12.80    7.20
  -1  11  16   16.90    6.30
   0 -11  16   37.20    9.10
   0  11  16   51.59   10.10
   0  11 -16   42.20   10.50
   0  11  16   33.80    7.20
   1 -11  16   44.70    9.60
  -1  11 -16   63.09   12.80
   1  11  16   51.79    9.00
   1  11  16   67.79   11.80
   2 -11  16    3.30    5.80
  -2  11 -16    3.40    6.50
   2  11  16    0.90    5.40
  -5 -12  16   67.39   11.40
  -5  12  16   89.19   14.00
   5  12 -16   57.39   13.30
  -4 -12  16    5.80    6.50
  -4  12  16   -4.20    6.50
   4  12 -16    4.60    8.80
  -3 -12  16   19.60    7.10
  -3  12  16   15.80    7.20
   3  12 -16    9.60    7.40
  -2 -12  16   77.99   11.70
   2  12 -16   92.39   14.40
  -2  12  16  117.89   15.70
  -1 -12  16   21.40    7.50
   1  12 -16   23.60    9.20
  -1  12  16    8.20    7.20
   0 -12  16   12.80    7.30
   0  12  16   15.40    8.10
   0  12 -16    7.00    8.40
 -10   0  17    2.90    4.20
 -10   0  17    5.50    5.60
  -9   0  17   10.40    6.10
  -9   0  17    6.10    4.90
  -8   0  17    0.80    2.80
  -8   0  17   -2.50    4.50
  -7   0  17   84.39    9.80
  -7   0  17   73.69   11.50
  -6   0  17    2.70    4.70
  -5   0  17   30.50    7.70
  -4   0  17   -2.50    3.60
  -3   0  17   19.80    6.60
  -2   0  17    6.70    3.90
  -2   0  17   -0.60    3.90
  -1   0  17  694.03   26.20
  -1   0  17  677.53   30.20
   0   0  17    3.90    5.00
   0   0  17    6.70    4.20
   1   0  17  363.66   19.00
   1   0  17  379.56   22.10
   2   0  17    2.40    4.60
   2   0  17    2.10    4.40
   3   0  17  110.59   13.60
   3   0  17  122.69   14.80
   4   0  17    3.90    5.90
   4   0  17   -0.90    5.00
   5   0  17  151.98   16.00
   5   0  17  163.08   17.40
 -10  -1  17   17.00    7.00
 -10  -1  17   23.00    6.60
 -10   1  17    6.20    5.30
 -10   1  17   11.40    7.10
  -9  -1  17  123.89   15.00
  -9  -1  17   97.79   11.70
  -9   1  17  108.49   14.50
  -9   1  17  106.39   12.00
  -8  -1  17    1.60    5.00
  -8  -1  17   -1.10    2.50
  -8   1  17   -0.20    4.00
  -8   1  17   -1.80    3.50
  -7  -1  17    6.30    4.50
  -7  -1  17   12.30    5.80
  -7   1  17   12.50    4.50
  -7   1  17   22.20    6.70
  -6  -1  17    8.30    4.90
  -6   1  17    8.80    5.60
  -5  -1  17   22.30    7.10
  -5   1  17   10.40    5.80
  -4  -1  17   24.40    6.80
  -4   1  17   24.10    6.90
  -3  -1  17   37.10    8.10
  -3   1  17   36.60    8.30
  -2  -1  17  297.67   16.10
  -2  -1  17  316.17   19.30
  -2   1  17  308.17   15.50
  -2   1  17  334.77   20.30
  -1  -1  17   27.80    6.50
  -1  -1  17   35.00    8.20
  -1   1  17   35.30    8.40
  -1   1  17   32.90    6.50
   0  -1  17   -0.10    4.20
   0  -1  17   16.90    5.50
   0   1  17   14.00    6.50
   0   1  17   12.10    4.80
   1  -1  17    4.00    4.90
   1  -1  17   11.90    5.50
   1   1  17   14.20    6.40
   1   1  17   14.10    5.50
   2  -1  17  139.99   14.50
   2  -1  17  132.09   15.70
   2   1  17  112.79   14.60
   2   1  17  110.49   12.30
   3  -1  17    8.50    5.60
   3  -1  17   11.80    6.00
   3   1  17   11.00    5.70
   3   1  17    4.90    6.10
   4  -1  17    9.20    6.60
   4  -1  17   13.40    6.10
   4   1  17    1.40    5.10
   4   1  17    8.40    5.60
   5  -1  17  237.78   18.10
   5  -1  17  204.68   19.70
   5   1  17  233.38   20.20
   5   1  17  198.48   19.60
 -10  -2  17  144.29   15.10
 -10  -2  17  144.79   14.20
 -10   2  17  119.29   15.00
 -10   2  17  154.98   15.90
  -9  -2  17  302.47   17.70
  -9  -2  17  333.37   20.20
  -9   2  17  272.17   19.80
  -8  -2  17   13.10    4.80
  -8  -2  17   13.90    6.40
  -8   2  17    5.20    5.50
  -7  -2  17   52.39    9.70
  -7  -2  17   48.10   11.00
  -7   2  17   45.00    9.80
  -6  -2  17   24.40    7.40
  -6   2  17   27.50    7.90
  -5  -2  17   38.80    8.40
  -5   2  17   36.60    8.90
  -4  -2  17   27.60    7.00
  -4   2  17   26.80    7.80
  -3  -2  17    1.20    4.10
   3   2 -17   16.10    5.70
  -3   2  17    9.50    5.70
  -2  -2  17   12.50    5.80
  -2   2  17   21.00    7.00
   2   2 -17    8.20    5.80
  -1  -2  17   65.59   10.60
  -1  -2  17   83.19   10.40
  -1   2  17   75.19    9.00
  -1   2  17   83.19   12.20
   0  -2  17   13.20    6.20
   0  -2  17    2.10    3.80
   0   2  17    6.90    5.40
   0   2  17    6.00    4.40
   1  -2  17   73.19   10.10
   1  -2  17   84.79   12.60
   1   2  17   69.49   11.60
   1   2  17   81.49   10.10
   2  -2  17   50.69    9.10
   2  -2  17   68.29   11.50
   2   2  17   60.19   10.90
   2   2  17   72.39   10.60
   3  -2  17    8.10    5.60
   3  -2  17    3.70    5.40
   3   2  17    3.40    4.90
   3   2  17    6.80    5.30
   4  -2  17   94.49   13.50
   4  -2  17   99.59   13.20
   4   2  17   78.39   12.20
   4   2  17   89.99   12.10
   5  -2  17  136.29   16.40
   5  -2  17  122.19   15.10
   5   2  17  119.89   15.20
   5   2  17  146.39   16.40
 -10  -3  17  127.19   14.60
 -10  -3  17  137.19   14.40
 -10   3  17  107.89   14.40
  -9  -3  17  219.18   16.80
  -9  -3  17  173.38   15.90
  -9   3  17  191.18   18.90
  -8  -3  17   86.59   12.20
  -8  -3  17   81.99   10.40
  -8   3  17   79.99   12.00
  -7  -3  17   12.10    6.10
  -7   3  17   16.20    7.20
  -6  -3  17  140.29   15.50
  -6   3  17  108.69   14.30
  -5  -3  17    6.10    4.50
  -5   3  17   -0.10    3.90
  -4  -3  17   29.20    7.70
  -4   3  17   38.80    8.70
  -3  -3  17   14.00    6.00
   3   3 -17   19.90    6.00
  -3   3  17   26.20    8.10
  -2  -3  17    2.50    4.40
  -2   3  17    3.00    4.80
   2   3 -17    1.90    4.60
  -1  -3  17   11.20    5.10
  -1  -3  17    4.20    4.80
  -1   3  17    6.60    3.90
  -1   3  17    0.40    4.30
   0  -3  17   49.99    9.80
   0  -3  17   66.69    9.90
   0   3  17   52.79    8.40
   0   3  17   46.60    9.60
   1  -3  17   16.40    6.50
   1  -3  17   14.00    5.50
   1   3  17   13.90    5.50
   1   3  17   14.50    6.80
   2  -3  17   86.59   12.40
   2  -3  17   96.79   12.20
   2   3  17   82.09   10.70
   2   3  17   74.09   12.30
   3  -3  17  284.57   19.90
   3  -3  17  307.97   19.30
   3   3  17  292.47   20.50
   3   3  17  323.87   19.10
   4  -3  17   17.60    7.30
   4  -3  17   15.20    6.70
   4   3  17   10.20    6.30
   4   3  17   12.40    7.10
   5  -3  17  248.98   21.40
   5  -3  17  204.08   19.60
   5   3  17  225.58   20.50
 -10  -4  17   12.80    6.00
 -10  -4  17   19.70    7.00
 -10   4  17   23.20    8.20
  -9  -4  17  208.98   15.10
  -9  -4  17  237.88   17.30
  -9   4  17  220.48   20.90
  -8  -4  17   25.80    7.60
  -8  -4  17   14.30    5.70
  -8   4  17   15.10    7.10
  -7  -4  17  174.18   16.60
  -7   4  17  147.99   17.00
  -6  -4  17    0.60    4.30
  -6   4  17    6.60    6.10
  -5  -4  17   15.40    6.40
  -5   4  17   14.40    6.90
  -4  -4  17   34.30    8.40
  -4   4  17   26.90    8.30
  -3  -4  17  151.78   15.80
   3   4 -17  191.68   14.00
  -3   4  17  170.48   17.80
  -2  -4  17  392.16   22.00
  -2   4  17  374.86   22.20
  -1  -4  17   55.19   10.20
  -1   4  17   62.29    8.40
  -1   4  17   44.60   10.00
   1   4 -17   60.79    9.90
   0  -4  17   16.60    6.90
   0  -4  17    6.70    5.10
   0   4  17    5.10    4.20
   0   4  17   13.60    6.70
   1  -4  17    5.50    4.90
   1  -4  17    4.70    5.10
   1   4  17    7.50    5.10
   1   4  17    6.70    5.00
   2  -4  17  329.77   21.10
   2  -4  17  298.07   18.90
   2   4  17  302.77   17.80
   2   4  17  308.07   20.50
   3  -4  17   29.50    8.60
   3  -4  17   29.20    8.30
   3   4  17   54.89   11.00
   3   4  17   39.50    8.50
   4  -4  17   16.30    6.90
   4  -4  17   16.20    7.20
   4   4  17   14.00    7.10
   4   4  17   25.00    8.60
   5  -4  17   13.70    7.00
   5  -4  17   10.80    7.40
   5   4  17   11.70    6.90
 -10  -5  17    2.30    5.50
 -10  -5  17    0.60    4.90
 -10   5  17    3.20    6.60
  -9  -5  17   27.50    8.00
  -9  -5  17   21.70    6.90
  -9   5  17   38.20    9.60
  -8  -5  17   59.69   10.40
  -8   5  17   53.99   10.90
  -7  -5  17   12.30    6.20
  -7   5  17    1.30    4.80
  -6  -5  17   79.79   11.50
  -6   5  17   72.39   11.90
  -5  -5  17  224.38   16.50
  -5   5  17  232.08   17.90
  -4  -5  17  406.86   22.20
  -4   5  17  360.06   22.50
  -3  -5  17   98.09   13.30
  -3   5  17   68.09   11.40
   3   5 -17   91.69   11.30
  -2  -5  17   89.79   13.00
  -2   5  17   73.99   11.80
   2   5 -17   75.69   10.60
  -1  -5  17   84.89   12.20
  -1   5  17   91.19   13.10
  -1   5  17   88.39    9.60
   1   5 -17   98.49   12.20
   0  -5  17   48.20    9.80
   0   5  17   34.40    9.00
   0   5 -17   43.60    9.30
   0   5  17   47.90    7.70
   1  -5  17   13.40    6.00
   1  -5  17   19.50    7.50
   1   5  17    9.10    6.60
  -1   5 -17   19.90    7.10
   1   5  17   17.70    5.70
   2  -5  17   26.90    8.10
   2  -5  17   31.50    8.50
   2   5  17   36.70    8.50
   2   5  17   46.20    8.50
   3  -5  17  118.99   14.50
   3  -5  17  112.59   14.40
   3   5  17   96.59   13.90
   3   5  17   91.69   11.90
   4  -5  17    5.10    5.40
   4  -5  17   -0.10    5.00
   4   5  17    6.50    6.10
   4   5  17    0.90    6.30
  -9  -6  17    7.30    5.60
  -9  -6  17   -2.20    3.60
  -9   6  17    2.80    6.00
  -8  -6  17   40.70    8.50
  -8   6  17   19.30    8.00
  -7  -6  17   92.79   12.50
  -7   6  17   85.59   13.10
  -6  -6  17   25.10    7.70
  -6   6  17   35.70    9.20
  -5  -6  17   49.50    9.50
  -5   6  17   57.29   10.80
  -4  -6  17  644.74   29.30
  -4   6  17  602.54   29.80
   4   6 -17  634.34   27.90
  -3  -6  17  400.86   22.60
  -3   6  17  385.26   23.30
  -2  -6  17  158.18   17.20
  -2   6  17  107.59   14.10
   2   6 -17  133.99   13.60
  -1  -6  17   84.49   12.50
  -1   6  17   60.49   10.80
   1   6 -17   63.59    9.70
   0  -6  17    4.10    5.50
   0   6 -17    7.40    6.00
   0   6  17    1.20    4.30
   0   6  17    5.60    4.80
   1  -6  17   44.90    9.50
   1   6  17   65.09   11.30
  -1   6 -17   53.09   10.50
   1   6  17   52.09    8.70
   2  -6  17    7.80    5.50
   2   6  17    8.50    5.40
   2   6  17    1.00    5.50
  -2   6 -17    4.70    6.60
   3  -6  17    4.90    5.90
   3  -6  17   19.70    7.00
   3   6  17   11.00    6.30
   3   6  17    9.30    6.40
   4  -6  17   11.00    6.80
   4  -6  17   25.90    8.30
   4   6  17   20.10    7.50
  -9  -7  17   30.10    8.00
  -9   7  17   42.90   11.10
  -8  -7  17   23.20    7.50
  -8   7  17   34.60    9.50
  -7  -7  17  121.19   14.30
  -7   7  17  112.69   14.60
  -6  -7  17    9.40    6.20
  -6   7  17    7.40    6.80
  -5  -7  17  144.99   16.00
  -5   7  17  146.39   16.60
  -4  -7  17   46.70    9.20
   4   7 -17   45.70   10.00
  -4   7  17   56.99   11.10
  -3  -7  17   15.40    6.30
   3   7 -17   15.00    7.20
  -3   7  17   21.90    7.40
  -2  -7  17   -2.60    4.40
   2   7 -17    3.80    5.90
  -2   7  17    3.70    5.60
  -1  -7  17   73.89   12.00
   1   7 -17   65.39   11.00
  -1   7  17   58.79   10.90
   0  -7  17   35.10    8.80
   0   7 -17   26.40    8.30
   0   7  17   35.20    7.40
   0   7  17   33.80    8.90
   1  -7  17   36.90    9.10
   1   7  17   37.50    9.20
  -1   7 -17   32.80    9.70
   1   7  17   37.90    7.90
   2  -7  17   24.70    7.80
  -2   7 -17   32.20    9.00
   2   7  17   27.20    7.10
   2   7  17   15.90    7.70
   3  -7  17   13.60    7.00
  -3   7 -17   20.30    8.70
   3   7  17   20.90    7.20
   3   7  17   -1.60    4.60
  -8  -8  17   75.69   12.10
  -8   8  17   97.79   14.80
  -7  -8  17   14.60    6.60
  -7   8  17   14.20    7.60
  -6  -8  17  217.28   17.00
  -6   8  17  230.18   21.00
  -5  -8  17   33.20    8.80
  -5   8  17   10.70    7.30
  -4  -8  17  121.99   15.00
  -4   8  17  138.19   16.30
  -3  -8  17   13.20    6.40
   3   8 -17    4.90    5.70
  -3   8  17   12.80    6.70
  -2  -8  17   -3.00    4.20
  -2   8  17    6.70    5.40
   2   8 -17    3.80    6.10
  -1  -8  17    8.80    6.00
   1   8 -17   19.10    7.70
  -1   8  17    2.60    5.60
   0  -8  17    1.80    4.60
   0   8 -17   -1.90    5.20
   0   8  17   -2.30    5.50
   0   8  17    2.00    4.60
   1  -8  17   14.20    6.40
   1   8  17    5.90    6.20
   1   8  17   17.60    6.50
  -1   8 -17   14.90    7.60
   2  -8  17    4.40    5.60
   2   8  17    5.80    5.40
  -2   8 -17    0.90    6.60
   2   8  17   -2.00    5.20
   3  -8  17   42.80   10.30
  -3   8 -17   42.70   11.20
   3   8  17   58.49   10.80
  -7  -9  17   18.10    7.40
  -7   9  17   46.00   11.60
  -6  -9  17    7.60    6.10
  -6   9  17    7.10    6.90
  -5  -9  17   44.70    9.70
  -5   9  17   46.70   10.10
  -4  -9  17   99.99   13.70
   4   9 -17  107.99   14.20
  -4   9  17  117.09   15.00
  -3  -9  17    2.60    4.90
  -3   9  17    8.30    5.90
   3   9 -17    6.00    6.40
  -2  -9  17   12.20    6.30
   2   9 -17   20.20    8.10
  -2   9  17   10.40    7.30
  -1  -9  17   30.40    8.40
  -1   9  17   23.00    8.50
   1   9 -17   19.70    8.40
   0  -9  17  104.29   13.50
   0   9  17  106.09   13.10
   0   9  17  120.49   15.10
   0   9 -17  106.59   14.10
   1  -9  17   42.40    9.90
   1   9  17   87.99   13.40
   1   9  17   72.49   10.40
  -1   9 -17   63.09   12.00
   2  -9  17    8.00    5.70
  -2   9 -17   15.30    8.00
   2   9  17    3.40    5.50
   2   9  17    8.70    7.50
  -6 -10  17    2.50    5.60
  -6  10  17    5.40    6.60
  -5 -10  17   64.59   11.50
  -5  10  17   71.59   12.70
  -4 -10  17    4.80    5.40
  -4  10  17   14.60    7.20
   4  10 -17   24.30    9.90
  -3 -10  17   -4.10    4.50
   3  10 -17    7.50    7.10
  -3  10  17    7.00    6.30
  -2 -10  17    5.20    5.90
  -2  10  17    6.30    5.80
   2  10 -17   -2.00    6.50
  -1 -10  17   45.60    9.60
  -1  10  17   38.60   10.20
   1  10 -17   40.80   10.00
   0 -10  17  248.98   18.70
   0  10 -17  210.18   20.30
   0  10  17  228.28   20.60
   1 -10  17   46.60   10.30
   1  10  17   59.09   10.80
  -1  10 -17   46.40   11.60
   1  10  17   31.20    8.00
  -4 -11  17   14.20    7.30
  -4  11  17    7.30    6.90
   4  11 -17    9.50    8.50
  -3 -11  17   22.10    7.80
   3  11 -17   17.60    9.10
  -3  11  17   13.00    7.60
  -2 -11  17   16.10    6.80
   2  11 -17    8.50    7.50
  -2  11  17   13.30    7.50
  -1 -11  17   47.70   10.30
   1  11 -17   42.60   11.10
  -1  11  17   49.10   10.80
  -9   0  18   -0.30    4.10
  -9   0  18   -4.10    4.20
  -8   0  18   23.80    8.10
  -8   0  18   30.90    8.30
  -7   0  18   -7.70    3.90
  -6   0  18  121.69   15.10
  -5   0  18    7.10    5.80
  -4   0  18  223.48   17.00
  -3   0  18    3.90    5.50
  -2   0  18 1627.54   54.79
  -1   0  18    8.90    5.50
  -1   0  18    8.50    5.10
   0   0  18   34.50    8.30
   0   0  18   21.90    6.20
   1   0  18    1.20    4.80
   1   0  18    1.20    3.90
   2   0  18  258.27   19.80
   2   0  18  242.38   16.80
   3   0  18   -0.20    5.30
   3   0  18   -1.70    4.70
   4   0  18   -5.50    5.20
   4   0  18    0.70    6.00
  -9  -1  18   58.79    9.10
  -9  -1  18  103.79   13.90
  -9   1  18   64.49    9.90
  -9   1  18   89.49   13.40
  -8  -1  18   10.70    6.40
  -8   1  18   15.70    7.40
  -8   1  18   26.50    6.70
  -7  -1  18   46.50    9.70
  -7   1  18   50.99   10.40
  -6  -1  18   33.40    8.70
  -6   1  18   40.00    9.00
  -5  -1  18   76.49   11.90
  -5   1  18   70.19   11.60
  -4  -1  18    4.90    5.20
  -4   1  18    1.90    4.90
  -3  -1  18   14.10    6.50
  -3   1  18   20.00    6.60
  -2  -1  18   55.19    9.60
  -2  -1  18   54.29    9.80
  -2   1  18   63.59   11.70
  -1  -1  18  444.66   21.30
  -1  -1  18  485.55   25.80
  -1   1  18  477.65   21.40
  -1   1  18  485.05   25.90
   0  -1  18   27.10    8.40
   0  -1  18   28.00    7.10
   0   1  18   24.90    6.40
   0   1  18   21.40    7.50
   1  -1  18  167.78   15.50
   1  -1  18  175.38   18.20
   1   1  18  142.99   14.10
   1   1  18  183.58   18.50
   2  -1  18   20.00    8.00
   2  -1  18   23.50    7.40
   2   1  18   30.80    8.30
   2   1  18   19.10    6.50
   3  -1  18   82.39   12.10
   3  -1  18   79.49   13.10
   3   1  18   70.59   12.20
   3   1  18   85.19   11.70
   4  -1  18  115.29   15.20
   4  -1  18  123.89   15.10
   4   1  18   95.69   14.70
   4   1  18  128.79   15.40
  -9  -2  18    9.40    6.60
  -9  -2  18    3.80    3.80
  -9   2  18   11.30    6.00
  -9   2  18   13.30    7.20
  -8  -2  18  352.36   21.40
  -8   2  18  325.07   21.80
  -7  -2  18    5.70    5.60
  -7   2  18   10.90    6.10
  -6  -2  18   26.10    7.80
  -6   2  18   10.50    5.90
  -5  -2  18   83.29   12.10
  -5   2  18   78.19   12.40
  -4  -2  18  161.18   16.10
  -4   2  18  242.18   18.20
  -3  -2  18   30.10    8.30
  -3   2  18   30.80    8.40
  -2  -2  18  133.99   15.50
  -2   2  18  156.98   16.50
   2   2 -18  168.08   14.70
  -1  -2  18   42.80   10.10
  -1  -2  18   62.19    9.40
  -1   2  18   56.19   10.80
  -1   2  18   41.50    7.40
   0  -2  18    7.20    6.60
   0  -2  18   16.50    6.00
   0   2  18   20.80    5.90
   0   2  18    7.60    5.90
   1  -2  18   14.40    6.00
   1  -2  18   21.40    8.00
   1   2  18   21.50    6.60
   1   2  18   24.30    8.20
   2  -2  18   34.80    8.20
   2  -2  18   85.19   13.30
   2   2  18   53.69   11.40
   2   2  18   70.69   10.70
   3  -2  18   -2.40    4.80
   3  -2  18   -1.60    5.10
   3   2  18    0.10    4.40
   3   2  18   -1.50    5.90
   4  -2  18    2.10    5.90
   4  -2  18    3.50    6.30
   4   2  18    7.80    7.30
   4   2  18   -0.70    5.10
  -9  -3  18  509.25   26.60
  -9   3  18  531.55   28.30
  -8  -3  18   79.69   12.00
  -8   3  18   70.69   12.00
  -7  -3  18    4.50    5.10
  -7   3  18   -7.90    4.10
  -6  -3  18   61.69   10.60
  -6   3  18   73.79   11.70
  -5  -3  18    9.60    5.70
  -5   3  18   12.50    6.50
  -4  -3  18   10.40    5.70
  -4   3  18   13.30    6.40
  -3  -3  18   66.79   11.20
  -3   3  18   62.89   11.20
  -2  -3  18   11.10    6.60
   2   3 -18    3.70    5.00
  -2   3  18    6.70    5.80
  -1  -3  18    6.80    5.60
  -1   3  18    9.00    6.30
  -1   3  18   13.40    6.70
   1   3 -18    1.30    5.10
   0  -3  18    3.50    4.60
   0  -3  18   -0.90    4.70
   0   3  18    6.50    5.40
   0   3  18    5.50    4.70
   1  -3  18   21.60    7.60
   1  -3  18   16.20    6.50
   1   3  18    8.60    5.40
   1   3  18    3.30    5.00
   2  -3  18   37.20    9.30
   2  -3  18   44.10    9.20
   2   3  18   38.40    8.40
   2   3  18   29.00    8.20
   3  -3  18   -0.20    5.70
   3  -3  18    2.80    6.00
   3   3  18   16.80    7.90
   3   3  18    9.50    5.80
   4  -3  18   44.00   10.00
   4  -3  18   42.40    9.90
   4   3  18   70.09   11.90
   4   3  18   24.30    8.10
  -9  -4  18    1.10    4.90
  -9   4  18    2.50    5.10
  -8  -4  18   42.70    9.30
  -8   4  18   31.30    9.00
  -7  -4  18    9.90    5.80
  -7   4  18    4.90    6.40
  -6  -4  18   22.30    7.20
  -6   4  18   30.50    9.00
  -5  -4  18    9.70    5.80
  -5   4  18    0.40    5.20
  -4  -4  18   -1.80    3.90
  -4   4  18    4.80    5.80
  -3  -4  18   36.60    9.00
   3   4 -18   27.70    9.10
  -3   4  18   27.20    7.90
  -2  -4  18   13.40    6.40
   2   4 -18   -4.80    4.30
  -2   4  18    6.00    5.60
  -1  -4  18   12.70    6.20
  -1   4  18   15.20    7.10
   1   4 -18    6.60    6.00
   0  -4  18   21.50    7.80
   0   4  18   13.90    7.00
   0   4  18    6.10    4.60
   0   4 -18    4.20    6.00
   1  -4  18   32.50    8.10
   1  -4  18   42.10   10.20
   1   4  18   47.80    8.60
   1   4  18   42.20    9.80
   2  -4  18    0.20    5.00
   2  -4  18    7.60    6.40
   2   4  18   11.60    6.10
   2   4  18    2.90    5.40
   3  -4  18   34.80    9.20
   3  -4  18   54.89   10.40
   3   4  18   37.20   10.10
   3   4  18   50.39   10.40
  -8  -5  18   17.70    7.10
  -8   5  18    4.10    6.10
  -7  -5  18  148.19   15.90
  -7   5  18  143.49   16.60
  -6  -5  18   -2.30    4.70
  -6   5  18    5.90    6.10
  -5  -5  18   32.40    8.20
  -5   5  18   40.70    9.90
  -4  -5  18   54.09   10.20
  -4   5  18   55.79   11.40
  -3  -5  18   29.60    8.40
   3   5 -18   33.50    8.40
  -3   5  18   22.50    8.80
  -2  -5  18   51.59    9.80
  -2   5  18   55.19   10.70
   2   5 -18   43.10    9.20
  -1  -5  18    0.20    4.60
   1   5 -18    6.20    6.00
  -1   5  18    9.10    5.50
   0  -5  18    0.30    5.40
   0   5  18    4.60    4.50
   0   5  18   -3.90    3.90
   0   5 -18    2.40    6.00
   1  -5  18  178.58   18.80
   1   5  18  160.58   14.60
  -1   5 -18  127.29   15.00
   1   5  18  140.39   16.00
   2  -5  18   51.39   10.40
   2  -5  18   55.59   10.80
   2   5  18   53.59    9.60
   2   5  18   38.80    9.90
   3  -5  18   34.00    9.50
   3  -5  18   25.80    8.90
   3   5  18   21.70    7.20
   3   5  18   27.40    9.00
  -8  -6  18   46.50   10.20
  -8   6  18   58.49   11.10
  -7  -6  18   60.79   11.10
  -7   6  18   73.39   12.60
  -6  -6  18   15.10    6.80
  -6   6  18    4.90    6.50
  -5  -6  18  141.79   16.40
  -5   6  18  161.98   18.40
  -4  -6  18   85.59   12.50
  -4   6  18   74.99   12.80
  -3  -6  18    8.50    6.00
  -3   6  18    3.00    5.30
   3   6 -18   10.90    6.70
  -2  -6  18   19.20    7.40
  -2   6  18    5.10    5.90
   2   6 -18   14.70    6.40
  -1  -6  18   61.59   11.30
  -1   6  18   55.59   11.20
   1   6 -18   59.19   10.40
   0  -6  18   23.90    7.60
   0   6  18   25.10    8.30
   0   6  18   23.10    6.50
   0   6 -18    5.60    6.50
   1  -6  18  203.58   20.00
   1   6  18  200.88   16.60
   1   6  18  184.98   18.90
  -1   6 -18  226.88   20.00
   2  -6  18   -0.10    5.30
   2   6  18    5.30    6.50
   2   6  18    5.30    5.40
  -2   6 -18    9.10    7.80
   3  -6  18    3.50    5.70
  -3   6 -18    6.70    8.20
   3   6  18    4.40    5.80
   3   6  18    7.40    6.90
  -7  -7  18   -0.80    5.70
  -7   7  18    6.70    6.20
  -6  -7  18   71.59   11.70
  -6   7  18   61.99   11.90
  -5  -7  18   14.50    6.90
  -5   7  18   24.10    8.60
  -4  -7  18  153.68   16.60
  -4   7  18  139.09   17.00
  -3  -7  18   27.40    8.30
   3   7 -18   10.80    5.70
  -3   7  18   20.90    7.70
  -2  -7  18   10.20    7.10
  -2   7  18    8.80    5.70
   2   7 -18   21.00    8.00
  -1  -7  18   11.70    6.60
  -1   7  18   12.40    7.30
   1   7 -18   19.20    7.90
   0  -7  18   49.70   11.20
   0   7  18   24.30    8.50
   0   7 -18   24.70    8.60
   1  -7  18   -2.30    5.10
   1   7  18   -6.80    5.40
   1   7  18   -2.10    4.70
  -1   7 -18   -0.10    6.20
   2  -7  18   41.90   10.20
   2   7  18   51.99    9.40
   2   7  18   32.30    9.60
  -2   7 -18   30.70    9.80
  -6  -8  18   89.59   13.70
  -6   8  18   70.89   12.60
  -5  -8  18   -2.60    4.90
  -5   8  18   14.20    7.10
  -4  -8  18   44.10   10.30
  -4   8  18   65.39   11.40
  -3  -8  18   38.80    9.20
   3   8 -18   55.09   11.40
  -3   8  18   28.40    8.90
  -2  -8  18   12.20    7.30
   2   8 -18   18.10    8.20
  -2   8  18   24.40    8.60
  -1  -8  18   46.00   10.40
  -1   8  18   35.40    9.60
   1   8 -18   34.30    9.40
   0  -8  18    3.60    5.70
   0   8 -18    2.00    6.80
   0   8  18    4.60    6.70
   1  -8  18   66.69   11.70
  -1   8 -18   66.39   11.80
   1   8  18   78.69   10.90
   1   8  18   70.49   12.80
  -5  -9  18   91.89   14.50
  -5   9  18   60.89   11.50
  -4  -9  18   34.50    9.40
  -4   9  18   29.20    9.10
   4   9 -18   24.10    8.60
  -3  -9  18    5.20    5.60
   3   9 -18    5.80    7.70
  -3   9  18   11.00    6.90
  -2  -9  18    0.40    5.60
  -2   9  18    5.10    6.00
   2   9 -18   -0.10    6.50
  -1  -9  18   -2.90    4.60
  -1   9  18    3.60    6.50
   1   9 -18    5.00    6.20
   0  -9  18   95.09   13.70
   0   9 -18  120.59   15.50
   0   9  18  113.49   15.00
  -8   0  19   -0.30    5.30
  -7   0  19   55.39   11.20
  -6   0  19   16.80    7.70
  -5   0  19   87.99   12.80
  -4   0  19   -2.20    4.50
  -3   0  19   48.50   10.60
  -2   0  19    4.20    5.80
  -1   0  19  320.77   21.70
  -1   0  19  313.27   19.90
   0   0  19   16.60    7.50
   0   0  19   15.50    6.10
   1   0  19   10.30    7.00
   1   0  19    8.50    6.60
   2   0  19   -0.50    5.30
   2   0  19    3.90    5.30
  -8  -1  19   47.50   10.70
  -8   1  19   41.80    9.70
  -7  -1  19   -1.40    5.30
  -7   1  19    9.20    6.50
  -6  -1  19   91.79   13.10
  -6   1  19  119.39   15.30
  -5  -1  19   45.10   10.00
  -5   1  19   39.30    9.40
  -4  -1  19   96.49   14.10
  -4   1  19   60.49   11.30
  -3  -1  19   28.00    8.30
  -3   1  19   34.20    9.60
  -2  -1  19  389.56   23.70
  -2   1  19  392.86   24.00
  -1  -1  19   49.90   10.90
  -1  -1  19   51.09    8.80
  -1   1  19   46.20   10.10
   0  -1  19   61.59   10.00
   0  -1  19   50.79   11.10
   0   1  19   76.29   13.00
   0   1  19   69.09   10.20
   1  -1  19   17.90    7.10
   1  -1  19   12.10    7.60
   1   1  19   14.10    6.40
   1   1  19   13.80    7.40
   2  -1  19   16.50    6.90
   2  -1  19   21.80    8.20
   2   1  19   12.80    6.10
   2   1  19   24.80    9.50
  -8  -2  19  128.99   15.40
  -8   2  19  141.79   17.00
  -7  -2  19   80.49   13.10
  -7   2  19   64.69   12.30
  -6  -2  19  316.47   20.90
  -6   2  19  320.37   21.90
  -5  -2  19    3.60    5.30
  -5   2  19    0.30    4.50
  -4  -2  19   -1.40    4.70
  -4   2  19    4.40    5.60
  -3  -2  19   80.39   12.80
  -3   2  19   44.60    9.80
  -2  -2  19   38.10    9.40
  -2   2  19   46.40   10.40
  -1  -2  19   11.90    7.20
  -1  -2  19    1.30    4.60
  -1   2  19    5.10    5.90
   0  -2  19   39.70    9.80
   0  -2  19   39.00    8.40
   0   2  19   48.50    8.90
   0   2  19   44.50   10.10
   1  -2  19    0.10    5.30
   1  -2  19    5.70    5.10
   1   2  19    0.10    4.70
   1   2  19    3.70    5.50
   2  -2  19    4.10    5.50
   2  -2  19    4.20    5.70
   2   2  19    7.60    7.60
   2   2  19   -1.80    5.00
  -8  -3  19  246.58   18.80
  -8   3  19  236.68   22.10
  -7  -3  19    9.90    6.40
  -7   3  19   16.30    7.60
  -6  -3  19   32.70    9.00
  -6   3  19   58.89   12.50
  -5  -3  19  128.59   15.60
  -5   3  19   72.89   12.20
  -4  -3  19   80.29   13.30
  -4   3  19   48.30   10.80
  -3  -3  19   -1.30    4.20
  -3   3  19   -1.70    5.20
  -2  -3  19   44.90   10.10
   2   3 -19   44.50   10.10
  -2   3  19   50.59   11.10
  -1  -3  19   25.20    8.10
  -1   3  19   32.60    9.70
   1   3 -19   19.80    7.30
   0  -3  19    6.50    5.50
   0  -3  19    1.40    5.40
   0   3  19    3.00    4.60
   0   3  19    5.00    6.50
   1  -3  19    6.90    6.10
   1  -3  19    9.80    6.60
   1   3  19   11.60    6.10
   1   3  19   -0.30    5.60
   2  -3  19   12.20    7.70
   2  -3  19   11.80    6.60
   2   3  19    6.60    5.90
   2   3  19    3.90    6.20
  -7  -4  19    8.20    6.20
  -7   4  19    9.40    7.00
  -6  -4  19   95.19   13.30
  -6   4  19   96.79   14.00
  -5  -4  19   38.50    9.50
  -5   4  19   47.80   10.30
  -4  -4  19    9.20    6.40
  -4   4  19    7.70    6.50
  -3  -4  19  228.68   21.30
  -3   4  19  203.58   20.90
  -2  -4  19   15.30    7.40
  -2   4  19   30.40    8.60
   2   4 -19    6.20    5.90
  -1  -4  19   25.40    7.80
  -1   4  19   28.60    8.60
   1   4 -19   11.00    7.50
   0  -4  19   14.80    7.20
   0   4  19   14.90    7.00
   0   4  19   14.90    9.80
   0   4 -19    9.10    6.80
   1  -4  19  151.08   16.20
   1  -4  19  112.39   15.30
   1   4  19  129.09   14.10
   1   4  19  124.69   16.40
   2  -4  19  105.99   14.10
   2  -4  19   94.59   14.40
   2   4  19  105.69   15.30
   2   4  19  106.09   13.20
  -7  -5  19   -0.70    5.30
  -7   5  19   -0.50    6.20
  -6  -5  19   -5.80    5.00
  -6   5  19    5.80    6.50
  -5  -5  19   17.40    7.70
  -5   5  19   16.90    8.00
  -4  -5  19   10.40    6.70
  -4   5  19   16.20    7.40
  -3  -5  19   -1.70    5.10
  -3   5  19   14.10    7.30
  -2  -5  19    1.30    5.40
  -2   5  19    7.00    6.40
   2   5 -19    1.40    5.40
  -1  -5  19  131.29   17.00
  -1   5  19  141.99   17.00
   1   5 -19  123.09   14.90
   0  -5  19  222.98   21.20
   0   5  19  286.57   20.90
   0   5 -19  278.77   20.30
   1  -5  19  239.18   22.00
   1   5  19  230.38   16.30
  -1   5 -19  263.47   19.60
   1   5  19  209.58   21.00
  -6  -6  19    8.20    6.40
  -6   6  19    3.80    6.30
  -5  -6  19   -0.90    5.40
  -5   6  19   -2.80    5.30
  -4  -6  19   -3.00    4.70
  -4   6  19    6.10    6.60
  -3  -6  19   30.90    9.20
  -3   6  19   30.40    8.80
  -2  -6  19  103.49   14.80
  -2   6  19  131.89   16.50
   2   6 -19  102.89   13.30
  -1  -6  19  108.39   14.90
   1   6 -19  138.79   15.20
  -1   6  19  146.99   17.70
   0  -6  19    5.10    5.70
   0   6  19    7.20    6.80
   0   6 -19   -1.50    7.10
  -1   6 -19  127.69   15.50
   1   6  19  139.99   17.20
  -5  -7  19    7.00    6.40
  -5   7  19    2.10    5.60
  -4  -7  19   19.80    8.20
  -4   7  19   17.30    7.90
  -3  -7  19   19.30    8.10
   3   7 -19   -2.00    6.80
  -3   7  19   25.20    8.70
  -2  -7  19   10.90    6.50
  -2   7  19    7.00    6.70
   2   7 -19   -2.40    7.30
  -1  -7  19  161.88   18.20
   1   7 -19  121.19   15.30
  -1   7  19  162.98   18.00
   0   7 -19   25.70    9.20
   3   8 -19    9.80    8.40
  -3   8  19    7.40    6.90
  -6   0  20   14.60    7.40
  -5   0  20   -2.80    5.50
  -4   0  20    3.30    6.30
  -3   0  20    4.90    5.50
  -2   0  20   20.30    8.00
  -1   0  20    0.00    5.90
   0   0  20   29.70   10.10
   0   0  20   11.70    6.50
  -6  -1  20   63.09   11.80
  -6   1  20   71.79   12.40
  -5  -1  20    5.30    5.80
  -5   1  20    2.70    5.00
  -4  -1  20   10.90    6.10
  -4   1  20    9.80    7.70
  -3  -1  20    2.00    5.90
  -3   1  20    4.60    6.00
  -2  -1  20    8.20    6.60
  -2   1  20   18.70    7.80
  -1  -1  20    4.10    6.20
  -1   1  20    2.60    6.30
   0  -1  20   18.70    8.20
   0  -1  20   27.30    7.90
   0   1  20   26.20    9.00
   0   1  20   26.20   12.80
  -6  -2  20  187.78   20.00
  -6   2  20  225.78   22.40
  -5  -2  20   20.10    8.00
  -5   2  20    9.70    7.20
  -4  -2  20    7.70    6.20
  -4   2  20   11.70    6.20
  -3  -2  20    7.00    7.10
  -3   2  20    9.90    7.00
  -2  -2  20   36.60    9.50
  -2   2  20   53.09   11.30
  -1  -2  20   16.20    7.60
  -1   2  20   20.70    8.90
   0  -2  20   57.59   12.30
   0  -2  20   55.89   10.50
   0   2  20   50.89   11.80
  -6  -3  20  197.08   19.30
  -6   3  20  175.68   19.20
  -5  -3  20  141.89   17.00
  -5   3  20  155.68   19.00
  -4  -3  20   22.40    8.10
  -4   3  20   20.50    9.20
  -3  -3  20  171.88   18.50
  -3   3  20  135.79   16.80
  -2  -3  20    3.80    5.60
  -2   3  20    5.00    6.60
  -1  -3  20   16.50    8.30
   1   3 -20   20.10    8.40
  -1   3  20   17.30    8.40
   0  -3  20   -0.60    5.80
   0  -3  20   -3.30    5.20
   0   3  20   -6.10    5.80
  -5  -4  20   31.40    9.60
  -5   4  20   39.80   10.20
  -4  -4  20   41.50   10.70
  -4   4  20   52.19   11.30
  -3  -4  20    5.90    6.30
  -3   4  20   -2.80    5.30
  -2  -4  20   43.40   10.90
  -2   4  20   38.70   10.50
  -1  -4  20   78.59   13.70
   1   4 -20   41.60    9.80
  -1   4  20   48.30   11.40
  -4  -5  20    5.80    6.40
  -4   5  20    1.20    5.60
  -3  -5  20   74.19   13.20
  -3   5  20   75.39   13.00
  -2  -5  20   56.79   11.60
  -2   5  20   81.39   13.90
   0   0   0    0.00    0.00

_computing_structure_solution     'SHELXT 2014/5 (Sheldrick, 2014)'
;
_shelx_hkl_checksum              66156
_olex2_submission_special_instructions 'No special instructions were received'
loop_
_space_group_symop_operation_xyz
'x, y, z'
'-x+1/2, y+1/2, -z+1/2'
'-x, -y, -z'
'x-1/2, -y-1/2, z-1/2'
loop_
_atom_site_label
_atom_site_type_symbol
_atom_site_fract_x
_atom_site_fract_y
_atom_site_fract_z
_atom_site_U_iso_or_equiv
_atom_site_adp_type
_atom_site_occupancy
_atom_site_site_symmetry_order
_atom_site_calc_flag
_atom_site_refinement_flags_posn
_atom_site_refinement_flags_adp
_atom_site_refinement_flags_occupancy
_atom_site_disorder_assembly
_atom_site_disorder_group
W3 W 0.58458(7) 0.66581(5) 0.40352(4) 0.0287(2) Uani 1 1 d . . . . .
W1 W 0.69694(6) 0.38372(5) 0.62850(4) 0.0290(2) Uani 1 1 d . . . . .
W4 W 0.63546(6) 0.47084(5) 0.34402(4) 0.0302(2) Uani 1 1 d . . . . .
W5 W 0.35691(6) 0.41747(5) 0.32014(4) 0.0314(2) Uani 1 1 d . . . . .
W6 W 0.56152(6) 0.30385(5) 0.44531(5) 0.0304(2) Uani 1 1 d . . . . .
W2 W 0.78180(6) 0.54469(5) 0.52564(4) 0.0297(2) Uani 1 1 d . . . . .
Ni1 Ni 0.83861(17) 0.47812(14) 0.21050(12) 0.0229(5) Uani 1 1 d . . . . .
Si08 Si 0.500000 0.500000 0.500000 0.0159(13) Uani 1 2 d S . P . .
N1 N 0.9263(12) 0.3911(9) 0.2849(9) 0.031(3) Uani 1 1 d . . . . .
O1 O 0.7662(10) 0.3794(8) 0.1415(8) 0.037(3) Uani 1 1 d . . . . .
H1A H 0.815644 0.344900 0.138008 0.056 Uiso 1 1 d R U . . .
H1B H 0.742177 0.394775 0.094095 0.056 Uiso 1 1 d R U . . .
N2 N 0.8792(13) 0.5799(10) 0.2787(9) 0.034(3) Uani 1 1 d . . . . .
N3 N 0.9703(13) 0.4934(11) 0.1535(9) 0.039(3) Uani 1 1 d . . . . .
O2 O 0.7049(10) 0.4580(8) 0.2715(7) 0.036(3) Uani 1 1 d . . . . .
N4 N 0.6386(13) 0.5750(10) 0.0098(9) 0.037(3) Uani 1 1 d . . . . .
N5 N 1.0341(13) 0.2871(10) 0.3176(8) 0.031(3) Uani 1 1 d . . . . .
O3 O 0.5369(12) 0.7177(12) 0.4852(9) 0.073(6) Uani 1 1 d . . . . .
O4 O 0.9164(10) 0.5649(9) 0.5398(9) 0.047(4) Uani 1 1 d . . . . .
O5 O 0.4904(12) 0.4502(11) 0.2902(12) 0.084(7) Uani 1 1 d . . . . .
N6 N 1.0971(16) 0.4754(14) 0.0795(12) 0.062(5) Uani 1 1 d . . . . .
O6 O 0.7889(12) 0.3301(11) 0.6900(8) 0.060(5) Uani 1 1 d . . . . .
O7 O 0.6199(14) 0.7424(10) 0.3551(9) 0.060(5) Uani 1 1 d . . . . .
O8 O 0.6741(12) 0.3167(12) 0.5363(9) 0.073(6) Uani 1 1 d . . . . .
N7 N 1.1103(17) 0.5435(14) 0.1180(13) 0.070(5) Uani 1 1 d . . . . .
O9 O 0.6095(15) 0.5800(10) 0.3352(9) 0.076(6) Uani 1 1 d . . . . .
O10 O 0.7560(14) 0.4899(10) 0.4292(9) 0.072(6) Uani 1 1 d . . . . .
O11 O 0.7508(16) 0.5933(10) 0.6161(10) 0.070(5) Uani 1 1 d . . . . .
C1 C 1.0371(18) 0.5548(15) 0.1623(13) 0.054(5) Uani 1 1 d . . . . .
H1 H 1.033720 0.598917 0.194255 0.064 Uiso 1 1 calc R U . . .
O12 O 0.7878(16) 0.4453(9) 0.5783(10) 0.068(5) Uani 1 1 d . . . . .
O13 O 0.3155(17) 0.5277(10) 0.3081(11) 0.076(6) Uani 1 1 d . . . . .
O14 O 0.5648(12) 0.3431(13) 0.6476(9) 0.073(6) Uani 1 1 d . . . . .
O15 O 0.7194(16) 0.6388(11) 0.4687(9) 0.085(7) Uani 1 1 d . . . . .
N8 N 0.7295(12) 0.5422(9) 0.1259(8) 0.030(3) Uani 1 1 d . . . . .
O16 O 0.2850(12) 0.3810(10) 0.2359(8) 0.054(4) Uani 1 1 d . . . . .
O17 O 0.5951(17) 0.5350(13) 0.4590(12) 0.019(5) Uani 0.5 1 d . U P . .
C2 C 1.0123(18) 0.4471(16) 0.1015(14) 0.058(6) Uani 1 1 d . . . . .
H2 H 0.981195 0.398277 0.083281 0.070 Uiso 1 1 calc R U . . .
N9 N 0.9423(13) 0.6635(11) 0.3724(9) 0.038(3) Uani 1 1 d . . . . .
N10 N 0.9485(14) 0.2755(11) 0.3537(11) 0.046(4) Uani 1 1 d . . . . .
N11 N 0.8744(16) 0.7077(11) 0.3157(10) 0.051(4) Uani 1 1 d . . . . .
H11 H 0.860336 0.758081 0.315994 0.062 Uiso 1 1 calc R U . . .
N12 N 0.5610(14) 0.5764(13) 0.0532(10) 0.052(5) Uani 1 1 d . . . . .
C3 C 1.0210(15) 0.3577(12) 0.2794(10) 0.031(3) Uani 1 1 d . . . . .
H3 H 1.071445 0.379877 0.252946 0.037 Uiso 1 1 calc R U . . .
C4 C 0.7355(16) 0.5569(12) 0.0530(10) 0.035(4) Uani 1 1 d . . . . .
H4 H 0.800083 0.554870 0.034186 0.042 Uiso 1 1 calc R U . . .
C5 C 0.6206(16) 0.5548(13) 0.1238(11) 0.041(5) Uani 1 1 d . . . . .
H5 H 0.589954 0.548924 0.167941 0.050 Uiso 1 1 calc R U . . .
C6 C 0.9416(15) 0.5889(13) 0.3480(10) 0.033(3) Uani 1 1 d . . . . .
H6 H 0.981012 0.547651 0.376975 0.040 Uiso 1 1 calc R U . . .
C7 C 0.836(2) 0.6549(14) 0.2609(13) 0.054(6) Uani 1 1 d . . . . .
H7 H 0.784997 0.666929 0.215047 0.065 Uiso 1 1 calc R U . . .
C8 C 1.1208(18) 0.2278(14) 0.3228(12) 0.046(5) Uani 1 1 d . . . . .
H8A H 1.089856 0.180798 0.293512 0.055 Uiso 1 1 calc R U . . .
H8B H 1.176469 0.249146 0.296900 0.055 Uiso 1 1 calc R U . . .
O18 O 0.5114(18) 0.4406(14) 0.4252(13) 0.025(5) Uani 0.5 1 d . U P . .
C9 C 0.997(2) 0.6974(16) 0.4439(13) 0.061(5) Uani 1 1 d . . . . .
H9A H 1.033790 0.654375 0.476417 0.074 Uiso 1 1 calc R U . . .
H9B H 0.940557 0.717885 0.470060 0.074 Uiso 1 1 calc R U . . .
C10 C 1.174(2) 0.2026(18) 0.4012(14) 0.081(10) Uani 1 1 d . . . . .
H10A H 1.124469 0.168900 0.422875 0.097 Uiso 0.5 1 calc R U P A 1
H10B H 1.190927 0.249293 0.434718 0.097 Uiso 0.5 1 calc R U P A 1
H10C H 1.121849 0.203935 0.435354 0.097 Uiso 0.5 1 calc R U P B 2
H10D H 1.233571 0.239318 0.422269 0.097 Uiso 0.5 1 calc R U P B 2
C11 C 0.8883(18) 0.3397(13) 0.3295(14) 0.048(5) Uani 1 1 d . . . . .
H11A H 0.821263 0.348023 0.343871 0.058 Uiso 1 1 calc R U . . .
O19 O 0.5862(13) 0.2098(9) 0.4212(10) 0.060(5) Uani 1 1 d . . . . .
C12 C 0.526(2) 0.6595(15) -0.0936(12) 0.058(7) Uani 1 1 d . . . . .
H12A H 0.460760 0.646146 -0.073480 0.070 Uiso 1 1 calc R U . . .
H12B H 0.503994 0.665299 -0.150274 0.070 Uiso 1 1 calc R U . . .
C13 C 1.0767(17) 0.7613(13) 0.4439(13) 0.045(5) Uani 1 1 d . . . . .
H13A H 1.131312 0.743057 0.415397 0.055 Uiso 1 1 calc R U . . .
H13B H 1.114206 0.771782 0.497745 0.055 Uiso 1 1 calc R U . . .
C14 C 0.6101(19) 0.5943(14) -0.0733(11) 0.048(5) Uani 1 1 d . . . . .
H14A H 0.582512 0.546456 -0.102379 0.058 Uiso 1 1 calc R U . . .
H14B H 0.676300 0.610611 -0.090283 0.058 Uiso 1 1 calc R U . . .
O20 O 0.6152(15) 0.4991(12) 0.5621(11) 0.009(4) Uani 0.5 1 d . U P . .
O21 O 0.5339(17) 0.4125(13) 0.5325(12) 0.018(5) Uani 0.5 1 d . U P . .
C15 C 1.233(4) 0.575(3) 0.126(3) 0.063(9) Uani 0.5 1 d . . P C 1
H15A H 1.273105 0.573432 0.180162 0.076 Uiso 0.5 1 calc R U P C 1
H15B H 1.272175 0.544156 0.093403 0.076 Uiso 0.5 1 calc R U P C 1
C16 C 1.213(5) 0.654(4) 0.098(4) 0.070(13) Uani 0.5 1 d . . P C 1
H16A H 1.171559 0.681853 0.131321 0.083 Uiso 0.5 1 calc R U P C 1
H16B H 1.169557 0.652743 0.045307 0.083 Uiso 0.5 1 calc R U P C 1
O22 O 0.4314(12) 0.3277(12) 0.3678(11) 0.077(6) Uani 1 1 d . . . . .
O23 O 0.6390(13) 0.3641(11) 0.3835(11) 0.072(5) Uani 1 1 d . U . . .
C17 C 1.281(6) 0.621(4) 0.100(5) 0.10(2) Uani 0.5 1 d . . P C 2
H17A H 1.283364 0.592795 0.051529 0.121 Uiso 0.5 1 calc R U P C 2
H17B H 1.322642 0.590542 0.143932 0.121 Uiso 0.5 1 calc R U P C 2
C18 C 1.170(5) 0.632(4) 0.108(4) 0.081(14) Uani 0.5 1 d . . P C 2
H18A H 1.128770 0.659787 0.062398 0.098 Uiso 0.5 1 calc R U P C 2
H18B H 1.169097 0.664975 0.154139 0.098 Uiso 0.5 1 calc R U P C 2
loop_
_atom_site_aniso_label
_atom_site_aniso_U_11
_atom_site_aniso_U_22
_atom_site_aniso_U_33
_atom_site_aniso_U_23
_atom_site_aniso_U_13
_atom_site_aniso_U_12
W3 0.0421(5) 0.0194(4) 0.0258(4) 0.0069(3) 0.0099(3) -0.0057(3)
W1 0.0274(4) 0.0363(5) 0.0231(4) 0.0112(3) 0.0048(3) 0.0096(3)
W4 0.0289(4) 0.0463(5) 0.0183(4) 0.0058(3) 0.0114(3) 0.0113(4)
W5 0.0315(4) 0.0428(5) 0.0176(4) -0.0027(3) 0.0003(3) -0.0133(4)
W6 0.0332(4) 0.0174(4) 0.0428(5) -0.0012(3) 0.0134(4) 0.0005(3)
W2 0.0179(4) 0.0389(5) 0.0320(4) -0.0080(4) 0.0046(3) -0.0057(3)
Ni1 0.0238(11) 0.0246(13) 0.0203(11) 0.0029(9) 0.0046(9) 0.0014(10)
Si08 0.015(3) 0.019(3) 0.014(3) 0.003(3) 0.002(2) 0.002(3)
N1 0.025(5) 0.031(6) 0.035(8) -0.001(5) 0.002(5) 0.001(4)
O1 0.037(8) 0.031(8) 0.040(8) -0.004(6) -0.002(6) 0.012(6)
N2 0.039(7) 0.037(5) 0.027(5) -0.002(4) 0.009(5) -0.004(5)
N3 0.030(6) 0.050(8) 0.038(8) 0.013(6) 0.009(6) -0.003(6)
O2 0.038(7) 0.048(9) 0.030(7) 0.011(6) 0.024(6) 0.014(7)
N4 0.038(5) 0.043(10) 0.028(4) 0.005(5) 0.002(4) 0.005(6)
N5 0.037(6) 0.034(6) 0.023(6) -0.004(5) 0.008(5) 0.009(4)
O3 0.041(9) 0.124(17) 0.060(10) -0.041(11) 0.025(8) -0.042(10)
O4 0.023(7) 0.047(9) 0.071(10) 0.000(8) 0.013(7) -0.008(7)
O5 0.025(8) 0.084(14) 0.145(17) 0.087(13) 0.020(9) 0.010(8)
N6 0.047(8) 0.081(9) 0.067(10) -0.006(8) 0.031(8) -0.022(7)
O6 0.057(10) 0.095(14) 0.034(8) 0.040(9) 0.024(7) 0.045(10)
O7 0.077(11) 0.055(11) 0.049(9) 0.026(8) 0.012(8) -0.037(9)
O8 0.045(9) 0.137(18) 0.045(9) -0.046(10) 0.028(8) -0.046(11)
N7 0.062(7) 0.083(8) 0.076(11) -0.011(7) 0.040(8) -0.031(7)
O9 0.089(13) 0.062(12) 0.052(10) -0.038(9) -0.043(9) 0.032(10)
O10 0.084(12) 0.061(11) 0.046(9) -0.025(8) -0.045(9) 0.051(10)
O11 0.113(15) 0.049(11) 0.073(12) 0.003(9) 0.073(11) 0.006(10)
C1 0.050(8) 0.064(8) 0.052(10) 0.003(7) 0.022(8) -0.020(7)
O12 0.129(16) 0.028(9) 0.070(11) 0.006(8) 0.075(11) -0.003(10)
O13 0.124(16) 0.037(10) 0.091(13) -0.017(9) 0.081(12) -0.001(10)
O14 0.040(9) 0.138(18) 0.047(9) -0.048(10) 0.025(7) -0.045(10)
O15 0.114(15) 0.069(13) 0.047(10) -0.031(9) -0.042(10) 0.051(12)
N8 0.036(5) 0.029(8) 0.025(4) -0.001(5) 0.004(4) 0.011(6)
O16 0.061(10) 0.071(12) 0.027(7) -0.012(7) 0.003(7) -0.027(9)
O17 0.018(6) 0.020(6) 0.019(6) 0.002(5) 0.004(5) 0.002(5)
C2 0.047(9) 0.067(8) 0.071(12) -0.007(8) 0.034(9) -0.016(7)
N9 0.041(7) 0.046(6) 0.029(5) -0.005(4) 0.012(4) -0.013(5)
N10 0.049(7) 0.043(7) 0.055(9) 0.015(6) 0.026(7) 0.019(5)
N11 0.069(10) 0.041(5) 0.039(6) -0.011(4) 0.000(6) -0.003(5)
N12 0.040(5) 0.080(14) 0.037(5) 0.022(7) 0.006(4) 0.020(6)
C3 0.026(6) 0.036(6) 0.030(8) -0.001(5) 0.001(5) 0.004(5)
C4 0.038(5) 0.042(11) 0.025(4) 0.000(5) 0.003(4) 0.007(6)
C5 0.039(5) 0.053(13) 0.033(5) 0.013(6) 0.008(4) 0.019(6)
C6 0.035(7) 0.044(5) 0.024(5) 0.000(4) 0.013(5) -0.011(5)
C7 0.076(11) 0.037(6) 0.040(6) -0.010(5) -0.008(7) 0.004(6)
C8 0.049(8) 0.050(9) 0.040(8) 0.002(7) 0.012(7) 0.024(8)
O18 0.023(7) 0.024(7) 0.026(7) 0.001(5) 0.005(5) 0.001(5)
C9 0.075(11) 0.067(9) 0.037(6) -0.014(6) 0.001(6) -0.021(9)
C10 0.109(19) 0.09(2) 0.040(9) -0.004(9) 0.006(8) 0.075(17)
C11 0.043(7) 0.039(7) 0.069(12) 0.017(8) 0.027(8) 0.015(6)
O19 0.055(10) 0.031(9) 0.087(12) -0.038(8) -0.001(9) 0.003(7)
C12 0.078(13) 0.067(14) 0.027(9) 0.008(9) 0.003(9) 0.031(11)
C13 0.046(10) 0.041(9) 0.047(11) -0.028(8) 0.006(8) 0.004(7)
C14 0.059(10) 0.054(12) 0.028(4) 0.008(6) 0.003(5) 0.015(9)
O20 0.010(6) 0.010(6) 0.009(6) 0.004(4) 0.002(4) -0.005(4)
O21 0.019(6) 0.017(6) 0.018(6) 0.001(5) 0.004(5) 0.002(5)
C15 0.057(8) 0.068(13) 0.08(3) -0.014(13) 0.041(11) -0.021(9)
C16 0.058(16) 0.070(13) 0.10(4) -0.008(19) 0.05(3) -0.017(13)
O22 0.034(9) 0.098(15) 0.096(13) 0.076(12) 0.008(9) -0.002(9)
O23 0.056(8) 0.068(9) 0.086(9) 0.043(7) 0.005(7) -0.014(7)
C17 0.082(18) 0.09(2) 0.15(6) -0.05(4) 0.07(2) -0.051(18)
C18 0.08(2) 0.086(10) 0.09(4) -0.012(13) 0.06(2) -0.037(12)
loop_
_atom_type_symbol
_atom_type_description
_atom_type_scat_dispersion_real
_atom_type_scat_dispersion_imag
_atom_type_scat_source
C C 0.0033 0.0016 'International Tables Vol C Tables 4.2.6.8 and 6.1.1.4'
H H 0.0000 0.0000 'International Tables Vol C Tables 4.2.6.8 and 6.1.1.4'
N N 0.0061 0.0033 'International Tables Vol C Tables 4.2.6.8 and 6.1.1.4'
Ni Ni 0.3393 1.1124 'International Tables Vol C Tables 4.2.6.8 and 6.1.1.4'
O O 0.0106 0.0060 'International Tables Vol C Tables 4.2.6.8 and 6.1.1.4'
Si Si 0.0817 0.0704 'International Tables Vol C Tables 4.2.6.8 and 6.1.1.4'
W W -0.8490 6.8722 'International Tables Vol C Tables 4.2.6.8 and 6.1.1.4'
loop_
_geom_angle_atom_site_label_1
_geom_angle_atom_site_label_2
_geom_angle_atom_site_label_3
_geom_angle
_geom_angle_site_symmetry_1
_geom_angle_site_symmetry_3
_geom_angle_publ_flag
O3 W3 O9 159.0(9) . . ?
O3 W3 O14 87.5(6) . 3_666 ?
O3 W3 O15 92.2(7) . . ?
O3 W3 O17 96.8(8) . . ?
O3 W3 O21 65.1(7) . 3_666 ?
O7 W3 O3 101.0(9) . . ?
O7 W3 O9 99.7(9) . . ?
O7 W3 O14 99.4(8) . 3_666 ?
O7 W3 O15 101.3(9) . . ?
O7 W3 O17 157.7(8) . . ?
O7 W3 O21 156.3(8) . 3_666 ?
O9 W3 O17 64.2(8) . . ?
O9 W3 O21 94.2(8) . 3_666 ?
O14 W3 O9 85.5(7) 3_666 . ?
O14 W3 O17 94.7(8) 3_666 . ?
O14 W3 O21 62.5(7) 3_666 3_666 ?
O15 W3 O9 87.4(6) . . ?
O15 W3 O14 158.9(9) . 3_666 ?
O15 W3 O17 64.4(8) . . ?
O15 W3 O21 98.4(9) . 3_666 ?
O17 W3 O21 45.7(7) . 3_666 ?
O6 W1 O8 100.6(9) . . ?
O6 W1 O12 101.3(8) . . ?
O6 W1 O13 100.3(9) . 3_666 ?
O6 W1 O14 101.6(8) . . ?
O6 W1 O20 157.6(8) . . ?
O6 W1 O21 158.4(9) . . ?
O8 W1 O20 95.4(8) . . ?
O8 W1 O21 65.2(8) . . ?
O12 W1 O8 86.0(7) . . ?
O12 W1 O20 64.2(7) . . ?
O12 W1 O21 94.1(8) . . ?
O13 W1 O8 159.0(9) 3_666 . ?
O13 W1 O12 88.4(7) 3_666 . ?
O13 W1 O14 89.9(7) 3_666 . ?
O13 W1 O20 64.0(8) 3_666 . ?
O13 W1 O21 95.1(8) 3_666 . ?
O14 W1 O8 87.5(6) . . ?
O14 W1 O12 156.9(9) . . ?
O14 W1 O20 94.5(8) . . ?
O14 W1 O21 63.2(8) . . ?
O20 W1 O21 44.0(7) . . ?
O2 W4 O5 101.2(8) . . ?
O2 W4 O9 99.8(8) . . ?
O2 W4 O10 99.2(7) . . ?
O2 W4 O17 154.8(7) . . ?
O2 W4 O18 157.6(8) . . ?
O2 W4 O23 99.9(7) . . ?
O5 W4 O10 159.3(9) . . ?
O5 W4 O17 98.5(8) . . ?
O5 W4 O18 65.0(8) . . ?
O5 W4 O23 87.4(7) . . ?
O9 W4 O5 90.4(7) . . ?
O9 W4 O10 89.7(6) . . ?
O9 W4 O17 64.4(8) . . ?
O9 W4 O18 97.9(9) . . ?
O9 W4 O23 160.1(9) . . ?
O10 W4 O17 63.1(7) . . ?
O10 W4 O18 94.5(8) . . ?
O10 W4 O23 85.5(8) . . ?
O18 W4 O17 47.3(8) . . ?
O23 W4 O17 96.4(8) . . ?
O23 W4 O18 63.4(8) . . ?
O5 W5 O18 63.8(8) . . ?
O5 W5 O20 94.9(8) . 3_666 ?
O11 W5 O5 158.7(9) 3_666 . ?
O11 W5 O18 96.9(8) 3_666 . ?
O11 W5 O20 64.0(7) 3_666 3_666 ?
O13 W5 O5 85.6(7) . . ?
O13 W5 O11 87.1(7) . 3_666 ?
O13 W5 O18 94.7(9) . . ?
O13 W5 O20 61.9(7) . 3_666 ?
O16 W5 O5 101.7(8) . . ?
O16 W5 O11 99.3(8) . 3_666 ?
O16 W5 O13 100.0(9) . . ?
O16 W5 O18 158.5(8) . . ?
O16 W5 O20 154.6(7) . 3_666 ?
O16 W5 O22 102.8(9) . . ?
O18 W5 O20 46.9(7) . 3_666 ?
O22 W5 O5 88.4(6) . . ?
O22 W5 O11 90.5(7) . 3_666 ?
O22 W5 O13 157.1(9) . . ?
O22 W5 O18 63.0(8) . . ?
O22 W5 O20 96.7(8) . 3_666 ?
O3 W6 O18 95.2(8) 3_666 . ?
O3 W6 O21 63.8(7) 3_666 . ?
O8 W6 O3 87.3(6) . 3_666 ?
O8 W6 O18 98.0(8) . . ?
O8 W6 O21 64.6(7) . . ?
O8 W6 O22 158.6(9) . . ?
O18 W6 O21 46.1(7) . . ?
O19 W6 O3 98.9(9) . 3_666 ?
O19 W6 O8 100.0(8) . . ?
O19 W6 O18 157.6(8) . . ?
O19 W6 O21 156.1(8) . . ?
O19 W6 O22 101.1(8) . . ?
O19 W6 O23 102.5(9) . . ?
O22 W6 O3 85.7(7) . 3_666 ?
O22 W6 O18 62.6(8) . . ?
O22 W6 O21 94.2(8) . . ?
O23 W6 O3 158.3(9) . 3_666 ?
O23 W6 O8 92.2(7) . . ?
O23 W6 O18 63.3(8) . . ?
O23 W6 O21 96.5(8) . . ?
O23 W6 O22 86.9(7) . . ?
O4 W2 O10 102.0(8) . . ?
O4 W2 O11 99.5(8) . . ?
O4 W2 O12 99.7(8) . . ?
O4 W2 O15 101.1(8) . . ?
O4 W2 O17 158.6(7) . . ?
O4 W2 O20 155.7(7) . . ?
O10 W2 O11 158.5(8) . . ?
O10 W2 O12 89.1(7) . . ?
O10 W2 O15 88.0(6) . . ?
O10 W2 O17 64.2(7) . . ?
O10 W2 O20 94.9(8) . . ?
O11 W2 O12 88.3(7) . . ?
O11 W2 O15 86.9(7) . . ?
O11 W2 O17 94.9(8) . . ?
O11 W2 O20 65.1(7) . . ?
O12 W2 O15 159.1(9) . . ?
O12 W2 O17 96.4(8) . . ?
O12 W2 O20 62.9(7) . . ?
O15 W2 O17 63.8(8) . . ?
O15 W2 O20 96.7(8) . . ?
O17 W2 O20 45.6(7) . . ?
N1 Ni1 O1 85.0(6) . . ?
N1 Ni1 N3 91.1(6) . . ?
N1 Ni1 O2 86.8(5) . . ?
O1 Ni1 O2 83.0(5) . . ?
N2 Ni1 N1 100.6(6) . . ?
N2 Ni1 O1 169.2(6) . . ?
N2 Ni1 N3 92.8(7) . . ?
N2 Ni1 O2 88.1(6) . . ?
N2 Ni1 N8 91.5(6) . . ?
N3 Ni1 O1 96.2(6) . . ?
N3 Ni1 O2 177.8(6) . . ?
N8 Ni1 N1 166.8(6) . . ?
N8 Ni1 O1 82.2(6) . . ?
N8 Ni1 N3 93.5(6) . . ?
N8 Ni1 O2 88.4(5) . . ?
O17 Si08 O17 180.0(12) 3_666 . ?
O17 Si08 O18 71.4(11) 3_666 3_666 ?
O17 Si08 O18 108.6(11) 3_666 . ?
O17 Si08 O18 108.6(11) . 3_666 ?
O17 Si08 O18 71.4(11) . . ?
O18 Si08 O18 180.0 3_666 . ?
O20 Si08 O17 70.5(10) 3_666 3_666 ?
O20 Si08 O17 109.5(10) 3_666 . ?
O20 Si08 O17 109.5(10) . 3_666 ?
O20 Si08 O17 70.5(10) . . ?
O20 Si08 O18 108.0(10) 3_666 3_666 ?
O20 Si08 O18 108.0(10) . . ?
O20 Si08 O18 72.0(10) . 3_666 ?
O20 Si08 O18 72.0(10) 3_666 . ?
O20 Si08 O20 180.0 3_666 . ?
O21 Si08 O17 109.0(11) 3_666 3_666 ?
O21 Si08 O17 109.0(11) . . ?
O21 Si08 O17 71.0(11) . 3_666 ?
O21 Si08 O17 71.0(11) 3_666 . ?
O21 Si08 O18 70.7(11) 3_666 3_666 ?
O21 Si08 O18 109.3(11) . 3_666 ?
O21 Si08 O18 70.7(11) . . ?
O21 Si08 O18 109.3(11) 3_666 . ?
O21 Si08 O20 112.3(10) 3_666 . ?
O21 Si08 O20 67.7(10) 3_666 3_666 ?
O21 Si08 O20 67.7(10) . . ?
O21 Si08 O20 112.3(10) . 3_666 ?
O21 Si08 O21 180.0(15) . 3_666 ?
C3 N1 Ni1 127.2(13) . . ?
C11 N1 Ni1 128.0(13) . . ?
C11 N1 C3 101.6(16) . . ?
Ni1 O1 H1A 109.7 . . ?
Ni1 O1 H1B 109.4 . . ?
H1A O1 H1B 104.2 . . ?
C6 N2 Ni1 130.7(15) . . ?
C6 N2 C7 103.5(17) . . ?
C7 N2 Ni1 125.7(13) . . ?
C1 N3 Ni1 125.5(16) . . ?
C1 N3 C2 101.4(18) . . ?
C2 N3 Ni1 133.1(15) . . ?
W4 O2 Ni1 155.3(8) . . ?
N12 N4 C14 120.1(16) . . ?
C4 N4 N12 111.4(15) . . ?
C4 N4 C14 128.5(17) . . ?
N10 N5 C3 109.1(15) . . ?
N10 N5 C8 121.1(16) . . ?
C3 N5 C8 129.8(17) . . ?
W3 O3 W6 137.4(10) . 3_666 ?
W4 O5 W5 135.3(11) . . ?
C2 N6 N7 101(2) . . ?
W6 O8 W1 135.7(11) . . ?
N6 N7 C1 113(2) . . ?
N6 N7 C15 110(3) . . ?
N6 N7 C18 136(3) . . ?
C1 N7 C15 132(3) . . ?
C1 N7 C18 108(3) . . ?
W4 O9 W3 136.7(10) . . ?
W2 O10 W4 137.4(9) . . ?
W2 O11 W5 137.2(11) . 3_666 ?
N3 C1 N7 109(2) . . ?
N3 C1 H1 125.7 . . ?
N7 C1 H1 125.7 . . ?
W1 O12 W2 137.9(10) . . ?
W1 O13 W5 138.7(11) 3_666 . ?
W1 O14 W3 139.3(10) . 3_666 ?
W3 O15 W2 136.0(12) . . ?
C4 N8 Ni1 128.4(13) . . ?
C4 N8 C5 101.8(15) . . ?
C5 N8 Ni1 126.5(13) . . ?
W3 O17 W4 94.4(7) . . ?
W2 O17 W3 95.8(8) . . ?
W2 O17 W4 94.7(7) . . ?
Si08 O17 W3 121.9(11) . . ?
Si08 O17 W4 120.3(11) . . ?
Si08 O17 W2 122.8(11) . . ?
N3 C2 H2 122.0 . . ?
N6 C2 N3 116(2) . . ?
N6 C2 H2 122.0 . . ?
N11 N9 C9 121.9(19) . . ?
C6 N9 N11 108.6(16) . . ?
C6 N9 C9 129(2) . . ?
C11 N10 N5 100.6(16) . . ?
N9 N11 H11 128.2 . . ?
C7 N11 N9 103.6(18) . . ?
C7 N11 H11 128.2 . . ?
N4 N12 C5 100.6(16) . . ?
N1 C3 N5 110.6(17) . . ?
N1 C3 H3 124.7 . . ?
N5 C3 H3 124.7 . . ?
N4 C4 H4 124.3 . . ?
N8 C4 N4 111.4(17) . . ?
N8 C4 H4 124.3 . . ?
N8 C5 H5 122.6 . . ?
N12 C5 N8 114.8(17) . . ?
N12 C5 H5 122.6 . . ?
N2 C6 N9 111.7(19) . . ?
N2 C6 H6 124.1 . . ?
N9 C6 H6 124.1 . . ?
N2 C7 H7 123.7 . . ?
N11 C7 N2 113(2) . . ?
N11 C7 H7 123.7 . . ?
N5 C8 H8A 108.2 . . ?
N5 C8 H8B 108.2 . . ?
H8A C8 H8B 107.3 . . ?
C10 C8 N5 116.4(17) . . ?
C10 C8 H8A 108.2 . . ?
C10 C8 H8B 108.2 . . ?
W4 O18 W5 95.7(8) . . ?
W4 O18 W6 96.3(8) . . ?
W6 O18 W5 95.8(8) . . ?
Si08 O18 W4 120.9(12) . . ?
Si08 O18 W5 120.5(11) . . ?
Si08 O18 W6 121.4(12) . . ?
N9 C9 H9A 107.4 . . ?
N9 C9 H9B 107.4 . . ?
N9 C9 C13 120(2) . . ?
H9A C9 H9B 106.9 . . ?
C13 C9 H9A 107.4 . . ?
C13 C9 H9B 107.4 . . ?
C8 C10 H10A 109.2 . . ?
C8 C10 H10B 109.2 . . ?
C8 C10 H10C 109.5 . . ?
C8 C10 H10D 109.5 . . ?
C8 C10 C16 112(3) . 2_745 ?
C8 C10 C17 111(4) . 2_745 ?
H10A C10 H10B 107.9 . . ?
H10C C10 H10D 108.1 . . ?
C16 C10 H10A 109.2 2_745 . ?
C16 C10 H10B 109.2 2_745 . ?
C17 C10 H10C 109.5 2_745 . ?
C17 C10 H10D 109.5 2_745 . ?
N1 C11 N10 118.0(18) . . ?
N1 C11 H11A 121.0 . . ?
N10 C11 H11A 121.0 . . ?
H12A C12 H12B 108.4 . . ?
C13 C12 H12A 110.0 4_575 . ?
C13 C12 H12B 110.0 4_575 . ?
C14 C12 H12A 110.0 . . ?
C14 C12 H12B 110.0 . . ?
C14 C12 C13 108.4(19) . 4_575 ?
C9 C13 C12 114(2) . 4_676 ?
C9 C13 H13A 108.8 . . ?
C9 C13 H13B 108.8 . . ?
C12 C13 H13A 108.8 4_676 . ?
C12 C13 H13B 108.8 4_676 . ?
H13A C13 H13B 107.7 . . ?
N4 C14 C12 114.1(18) . . ?
N4 C14 H14A 108.7 . . ?
N4 C14 H14B 108.7 . . ?
C12 C14 H14A 108.7 . . ?
C12 C14 H14B 108.7 . . ?
H14A C14 H14B 107.6 . . ?
W1 O20 W5 94.9(6) . 3_666 ?
W1 O20 W2 94.7(7) . . ?
W2 O20 W5 93.5(6) . 3_666 ?
Si08 O20 W1 124.6(10) . . ?
Si08 O20 W5 120.6(10) . 3_666 ?
Si08 O20 W2 121.0(9) . . ?
W3 O21 W6 93.6(8) 3_666 . ?
W1 O21 W3 94.6(7) . 3_666 ?
W1 O21 W6 94.3(7) . . ?
Si08 O21 W3 121.4(11) . 3_666 ?
Si08 O21 W1 123.7(11) . . ?
Si08 O21 W6 121.7(11) . . ?
N7 C15 H15A 111.6 . . ?
N7 C15 H15B 111.6 . . ?
H15A C15 H15B 109.4 . . ?
C16 C15 N7 101(5) . . ?
C16 C15 H15A 111.6 . . ?
C16 C15 H15B 111.6 . . ?
C10 C16 H16A 109.0 2_755 . ?
C10 C16 H16B 109.0 2_755 . ?
C15 C16 C10 113(5) . 2_755 ?
C15 C16 H16A 109.1 . . ?
C15 C16 H16B 109.0 . . ?
H16A C16 H16B 107.8 . . ?
W5 O22 W6 138.3(11) . . ?
W6 O23 W4 136.9(11) . . ?
C10 C17 H17A 110.8 2_755 . ?
C10 C17 H17B 110.8 2_755 . ?
H17A C17 H17B 108.9 . . ?
C18 C17 H17A 110.8 . . ?
C18 C17 H17B 110.8 . . ?
N7 C18 H18A 109.5 . . ?
N7 C18 H18B 109.6 . . ?
C17 C18 N7 111(5) . . ?
C17 C18 H18A 109.5 . . ?
C17 C18 H18B 109.6 . . ?
H18A C18 H18B 108.1 . . ?
loop_
_geom_bond_atom_site_label_1
_geom_bond_atom_site_label_2
_geom_bond_distance
_geom_bond_site_symmetry_2
_geom_bond_publ_flag
W3 O3 1.865(15) . ?
W3 O7 1.642(13) . ?
W3 O9 1.929(15) . ?
W3 O14 1.890(15) 3_666 ?
W3 O15 1.871(16) . ?
W3 O17 2.38(2) . ?
W3 O21 2.41(2) 3_666 ?
W1 O6 1.656(13) . ?
W1 O8 1.927(15) . ?
W1 O12 1.875(14) . ?
W1 O13 1.871(15) 3_666 ?
W1 O14 1.871(14) . ?
W1 O20 2.365(19) . ?
W1 O21 2.39(2) . ?
W4 O2 1.685(11) . ?
W4 O5 1.882(16) . ?
W4 O9 1.854(17) . ?
W4 O10 1.900(14) . ?
W4 O17 2.41(2) . ?
W4 O18 2.35(2) . ?
W4 O23 1.909(16) . ?
W5 O5 1.920(14) . ?
W5 O11 1.918(14) 3_666 ?
W5 O13 1.913(17) . ?
W5 O16 1.663(13) . ?
W5 O18 2.39(2) . ?
W5 O20 2.441(19) 3_666 ?
W5 O22 1.863(16) . ?
W6 O3 1.926(15) 3_666 ?
W6 O8 1.892(15) . ?
W6 O18 2.38(2) . ?
W6 O19 1.672(14) . ?
W6 O21 2.44(2) . ?
W6 O22 1.918(15) . ?
W6 O23 1.880(15) . ?
W2 O4 1.675(12) . ?
W2 O10 1.878(14) . ?
W2 O11 1.881(15) . ?
W2 O12 1.890(14) . ?
W2 O15 1.932(17) . ?
W2 O17 2.37(2) . ?
W2 O20 2.414(18) . ?
Ni1 N1 2.094(15) . ?
Ni1 O1 2.126(13) . ?
Ni1 N2 2.074(16) . ?
Ni1 N3 2.100(15) . ?
Ni1 O2 2.178(12) . ?
Ni1 N8 2.077(15) . ?
Si08 O17 1.61(2) 3_666 ?
Si08 O17 1.61(2) . ?
Si08 O18 1.66(2) . ?
Si08 O18 1.66(2) 3_666 ?
Si08 O20 1.603(18) . ?
Si08 O20 1.603(18) 3_666 ?
Si08 O21 1.59(2) 3_666 ?
Si08 O21 1.59(2) . ?
N1 C3 1.33(2) . ?
N1 C11 1.31(2) . ?
O1 H1A 0.8552 . ?
O1 H1B 0.8547 . ?
N2 C6 1.30(2) . ?
N2 C7 1.37(3) . ?
N3 C1 1.31(3) . ?
N3 C2 1.37(3) . ?
N4 N12 1.34(2) . ?
N4 C4 1.31(2) . ?
N4 C14 1.45(2) . ?
N5 N10 1.36(2) . ?
N5 C3 1.35(2) . ?
N5 C8 1.45(2) . ?
N6 N7 1.31(3) . ?
N6 C2 1.29(3) . ?
N7 C1 1.32(3) . ?
N7 C15 1.59(5) . ?
N7 C18 1.68(6) . ?
C1 H1 0.9300 . ?
N8 C4 1.31(2) . ?
N8 C5 1.36(2) . ?
C2 H2 0.9300 . ?
N9 N11 1.37(2) . ?
N9 C6 1.32(3) . ?
N9 C9 1.40(3) . ?
N10 C11 1.33(3) . ?
N11 H11 0.8600 . ?
N11 C7 1.31(3) . ?
N12 C5 1.34(2) . ?
C3 H3 0.9300 . ?
C4 H4 0.9300 . ?
C5 H5 0.9300 . ?
C6 H6 0.9300 . ?
C7 H7 0.9300 . ?
C8 H8A 0.9700 . ?
C8 H8B 0.9700 . ?
C8 C10 1.45(3) . ?
C9 H9A 0.9700 . ?
C9 H9B 0.9700 . ?
C9 C13 1.46(3) . ?
C10 H10A 0.9700 . ?
C10 H10B 0.9700 . ?
C10 H10C 0.9700 . ?
C10 H10D 0.9700 . ?
C10 C16 1.61(6) 2_745 ?
C10 C17 1.48(6) 2_745 ?
C11 H11A 0.9300 . ?
C12 H12A 0.9700 . ?
C12 H12B 0.9700 . ?
C12 C13 1.55(3) 4_575 ?
C12 C14 1.50(3) . ?
C13 H13A 0.9700 . ?
C13 H13B 0.9700 . ?
C14 H14A 0.9700 . ?
C14 H14B 0.9700 . ?
C15 H15A 0.9700 . ?
C15 H15B 0.9700 . ?
C15 C16 1.41(8) . ?
C16 H16A 0.9700 . ?
C16 H16B 0.9700 . ?
C17 H17A 0.9700 . ?
C17 H17B 0.9700 . ?
C17 C18 1.43(8) . ?
C18 H18A 0.9700 . ?
C18 H18B 0.9700 . ?
loop_
_geom_torsion_atom_site_label_1
_geom_torsion_atom_site_label_2
_geom_torsion_atom_site_label_3
_geom_torsion_atom_site_label_4
_geom_torsion
_geom_torsion_site_symmetry_1
_geom_torsion_site_symmetry_2
_geom_torsion_site_symmetry_3
_geom_torsion_site_symmetry_4
_geom_torsion_publ_flag
Ni1 N1 C3 N5 -158.4(12) . . . . ?
Ni1 N1 C11 N10 160.4(16) . . . . ?
Ni1 N2 C6 N9 -177.3(12) . . . . ?
Ni1 N2 C7 N11 178.3(14) . . . . ?
Ni1 N3 C1 N7 179.3(15) . . . . ?
Ni1 N3 C2 N6 -178.6(16) . . . . ?
Ni1 N8 C4 N4 158.9(14) . . . . ?
Ni1 N8 C5 N12 -160.8(15) . . . . ?
O2 W4 O5 W5 157.3(14) . . . . ?
O2 W4 O9 W3 -153.7(14) . . . . ?
N4 N12 C5 N8 1(3) . . . . ?
N5 N10 C11 N1 -2(3) . . . . ?
N5 C8 C10 C16 -166(3) . . . 2_745 ?
N5 C8 C10 C17 153(3) . . . 2_745 ?
O3 W3 O15 W2 99.9(15) . . . . ?
O3 W6 O8 W1 -57.3(14) 3_666 . . . ?
O3 W6 O23 W4 -12(3) 3_666 . . . ?
O4 W2 O10 W4 -154.3(16) . . . . ?
O4 W2 O11 W5 -155.7(14) . . . 3_666 ?
O4 W2 O12 W1 154.9(14) . . . . ?
O5 W4 O2 Ni1 151.6(17) . . . . ?
O5 W4 O9 W3 104.8(15) . . . . ?
O5 W5 O22 W6 55.1(16) . . . . ?
N6 N7 C1 N3 -1(3) . . . . ?
N6 N7 C15 C16 129(4) . . . . ?
N6 N7 C18 C17 -52(8) . . . . ?
O6 W1 O12 W2 -154.7(14) . . . . ?
O6 W1 O14 W3 -156.5(16) . . . 3_666 ?
O7 W3 O3 W6 154.9(15) . . . 3_666 ?
O7 W3 O15 W2 -158.5(14) . . . . ?
O8 W1 O12 W2 105.3(15) . . . . ?
O8 W1 O14 W3 -56.2(17) . . . 3_666 ?
O8 W6 O23 W4 -100.4(15) . . . . ?
N7 N6 C2 N3 -1(3) . . . . ?
N7 C15 C16 C10 -180(4) . . . 2_755 ?
O9 W3 O3 W6 -15(3) . . . 3_666 ?
O9 W3 O15 W2 -59.1(15) . . . . ?
O9 W4 O2 Ni1 59.2(18) . . . . ?
O9 W4 O5 W5 -102.6(16) . . . . ?
O10 W4 O2 Ni1 -32.1(19) . . . . ?
O10 W4 O5 W5 -12(3) . . . . ?
O10 W4 O9 W3 -54.5(15) . . . . ?
O10 W2 O11 W5 27(3) . . . 3_666 ?
O10 W2 O12 W1 -103.1(15) . . . . ?
O11 W5 O22 W6 -103.6(15) 3_666 . . . ?
O11 W2 O10 W4 23(3) . . . . ?
O11 W2 O12 W1 55.6(15) . . . . ?
C1 N3 C2 N6 0(3) . . . . ?
C1 N7 C15 C16 -78(5) . . . . ?
C1 N7 C18 C17 149(5) . . . . ?
O12 W1 O14 W3 17(3) . . . 3_666 ?
O12 W2 O10 W4 106.0(17) . . . . ?
O12 W2 O11 W5 -56.2(15) . . . 3_666 ?
O13 W1 O12 W2 -54.5(15) 3_666 . . . ?
O13 W1 O14 W3 103.0(17) 3_666 . . 3_666 ?
O13 W5 O22 W6 -20(3) . . . . ?
O14 W3 O3 W6 55.8(16) 3_666 . . 3_666 ?
O14 W3 O15 W2 11(3) 3_666 . . . ?
O14 W1 O12 W2 31(3) . . . . ?
O15 W3 O3 W6 -103.1(16) . . . 3_666 ?
O15 W2 O10 W4 -53.3(17) . . . . ?
O15 W2 O11 W5 103.5(16) . . . 3_666 ?
O15 W2 O12 W1 -21(3) . . . . ?
O16 W5 O22 W6 156.7(14) . . . . ?
O17 W3 O3 W6 -38.7(16) . . . 3_666 ?
O17 W3 O15 W2 3.4(12) . . . . ?
O17 W4 O2 Ni1 11(3) . . . . ?
O17 W4 O5 W5 -38.4(16) . . . . ?
O17 W4 O9 W3 5.6(13) . . . . ?
O17 W2 O10 W4 8.4(14) . . . . ?
O17 W2 O11 W5 40.1(15) . . . 3_666 ?
O17 W2 O12 W1 -39.2(15) . . . . ?
O17 Si08 O18 W4 -2.5(12) . . . . ?
O17 Si08 O18 W4 177.5(12) 3_666 . . . ?
O17 Si08 O18 W5 -121.7(15) . . . . ?
O17 Si08 O18 W5 58.3(15) 3_666 . . . ?
O17 Si08 O18 W6 118.5(15) . . . . ?
O17 Si08 O18 W6 -61.5(15) 3_666 . . . ?
O17 Si08 O20 W1 -122.9(14) . . . . ?
O17 Si08 O20 W1 57.1(14) 3_666 . . . ?
O17 Si08 O20 W5 -64.9(13) 3_666 . . 3_666 ?
O17 Si08 O20 W5 115.1(13) . . . 3_666 ?
O17 Si08 O20 W2 -0.9(11) . . . . ?
O17 Si08 O20 W2 179.1(11) 3_666 . . . ?
O17 Si08 O21 W3 1.3(11) 3_666 . . 3_666 ?
O17 Si08 O21 W3 -178.7(11) . . . 3_666 ?
O17 Si08 O21 W1 60.0(15) . . . . ?
O17 Si08 O21 W1 -120.0(15) 3_666 . . . ?
O17 Si08 O21 W6 -61.1(14) . . . . ?
O17 Si08 O21 W6 118.9(14) 3_666 . . . ?
C2 N3 C1 N7 0(3) . . . . ?
C2 N6 N7 C1 1(3) . . . . ?
C2 N6 N7 C15 159(3) . . . . ?
C2 N6 N7 C18 -157(4) . . . . ?
N9 N11 C7 N2 -2(3) . . . . ?
N9 C9 C13 C12 67(3) . . . 4_676 ?
N10 N5 C3 N1 -4(2) . . . . ?
N10 N5 C8 C10 -53(3) . . . . ?
N11 N9 C6 N2 1(2) . . . . ?
N11 N9 C9 C13 -63(3) . . . . ?
N12 N4 C4 N8 2(3) . . . . ?
N12 N4 C14 C12 37(3) . . . . ?
C3 N1 C11 N10 0(3) . . . . ?
C3 N5 N10 C11 3(2) . . . . ?
C3 N5 C8 C10 127(3) . . . . ?
C4 N4 N12 C5 -2(2) . . . . ?
C4 N4 C14 C12 -141(2) . . . . ?
C4 N8 C5 N12 0(2) . . . . ?
C5 N8 C4 N4 -1(2) . . . . ?
C6 N2 C7 N11 3(3) . . . . ?
C6 N9 N11 C7 1(2) . . . . ?
C6 N9 C9 C13 120(3) . . . . ?
C7 N2 C6 N9 -2(2) . . . . ?
C8 N5 N10 C11 -176.1(19) . . . . ?
C8 N5 C3 N1 175.4(18) . . . . ?
O18 W4 O2 Ni1 -159.0(17) . . . . ?
O18 W4 O5 W5 -4.1(13) . . . . ?
O18 W4 O9 W3 40.0(15) . . . . ?
O18 W5 O22 W6 -6.1(13) . . . . ?
O18 W6 O8 W1 37.6(14) . . . . ?
O18 W6 O23 W4 -2.6(13) . . . . ?
O18 Si08 O17 W3 -59.7(14) 3_666 . . . ?
O18 Si08 O17 W3 120.3(14) . . . . ?
O18 Si08 O17 W4 -177.5(11) 3_666 . . . ?
O18 Si08 O17 W4 2.5(11) . . . . ?
O18 Si08 O17 W2 -116.8(15) . . . . ?
O18 Si08 O17 W2 63.2(15) 3_666 . . . ?
O18 Si08 O20 W1 119.0(14) 3_666 . . . ?
O18 Si08 O20 W1 -61.0(14) . . . . ?
O18 Si08 O20 W5 -3.0(11) 3_666 . . 3_666 ?
O18 Si08 O20 W5 177.0(11) . . . 3_666 ?
O18 Si08 O20 W2 -119.0(14) 3_666 . . . ?
O18 Si08 O20 W2 61.0(14) . . . . ?
O18 Si08 O21 W3 62.8(14) 3_666 . . 3_666 ?
O18 Si08 O21 W3 -117.2(14) . . . 3_666 ?
O18 Si08 O21 W1 121.5(15) . . . . ?
O18 Si08 O21 W1 -58.5(15) 3_666 . . . ?
O18 Si08 O21 W6 -179.7(11) 3_666 . . . ?
O18 Si08 O21 W6 0.3(11) . . . . ?
C9 N9 N11 C7 -177(2) . . . . ?
C9 N9 C6 N2 178(2) . . . . ?
C10 C17 C18 N7 -175(4) 2_755 . . . ?
C11 N1 C3 N5 3(2) . . . . ?
O19 W6 O8 W1 -155.9(14) . . . . ?
O19 W6 O23 W4 158.9(14) . . . . ?
C13 C12 C14 N4 66(3) 4_575 . . . ?
C14 N4 N12 C5 179(2) . . . . ?
C14 N4 C4 N8 -179(2) . . . . ?
O20 W1 O12 W2 7.2(13) . . . . ?
O20 W1 O14 W3 39.1(16) . . . 3_666 ?
O20 W5 O22 W6 -39.7(15) 3_666 . . . ?
O20 W2 O10 W4 43.2(17) . . . . ?
O20 W2 O11 W5 4.6(13) . . . 3_666 ?
O20 W2 O12 W1 -7.2(12) . . . . ?
O20 Si08 O17 W3 58.1(14) 3_666 . . . ?
O20 Si08 O17 W3 -121.9(14) . . . . ?
O20 Si08 O17 W4 120.2(14) . . . . ?
O20 Si08 O17 W4 -59.8(14) 3_666 . . . ?
O20 Si08 O17 W2 0.9(11) . . . . ?
O20 Si08 O17 W2 -179.1(11) 3_666 . . . ?
O20 Si08 O18 W4 116.1(14) 3_666 . . . ?
O20 Si08 O18 W4 -63.9(14) . . . . ?
O20 Si08 O18 W5 177.0(11) . . . . ?
O20 Si08 O18 W5 -3.0(11) 3_666 . . . ?
O20 Si08 O18 W6 57.2(14) . . . . ?
O20 Si08 O18 W6 -122.8(14) 3_666 . . . ?
O20 Si08 O21 W3 -57.1(14) 3_666 . . 3_666 ?
O20 Si08 O21 W3 122.9(14) . . . 3_666 ?
O20 Si08 O21 W1 1.6(10) . . . . ?
O20 Si08 O21 W1 -178.4(10) 3_666 . . . ?
O20 Si08 O21 W6 -119.6(14) . . . . ?
O20 Si08 O21 W6 60.4(14) 3_666 . . . ?
O21 W3 O3 W6 -4.8(13) 3_666 . . 3_666 ?
O21 W3 O15 W2 34.8(15) 3_666 . . . ?
O21 W1 O12 W2 40.5(15) . . . . ?
O21 W1 O14 W3 7.2(14) . . . 3_666 ?
O21 W6 O8 W1 4.9(12) . . . . ?
O21 W6 O23 W4 -35.7(15) . . . . ?
O21 Si08 O17 W3 -178.7(11) . . . . ?
O21 Si08 O17 W3 1.3(11) 3_666 . . . ?
O21 Si08 O17 W4 -116.5(14) 3_666 . . . ?
O21 Si08 O17 W4 63.5(14) . . . . ?
O21 Si08 O17 W2 -55.8(15) . . . . ?
O21 Si08 O17 W2 124.2(15) 3_666 . . . ?
O21 Si08 O18 W4 -121.4(15) . . . . ?
O21 Si08 O18 W4 58.6(15) 3_666 . . . ?
O21 Si08 O18 W5 119.5(15) . . . . ?
O21 Si08 O18 W5 -60.5(15) 3_666 . . . ?
O21 Si08 O18 W6 -0.3(11) . . . . ?
O21 Si08 O18 W6 179.7(11) 3_666 . . . ?
O21 Si08 O20 W1 178.4(11) 3_666 . . . ?
O21 Si08 O20 W1 -1.6(11) . . . . ?
O21 Si08 O20 W5 -123.6(13) . . . 3_666 ?
O21 Si08 O20 W5 56.4(13) 3_666 . . 3_666 ?
O21 Si08 O20 W2 -59.6(14) 3_666 . . . ?
O21 Si08 O20 W2 120.4(14) . . . . ?
C15 N7 C1 N3 -153(4) . . . . ?
O22 W6 O8 W1 14(3) . . . . ?
O22 W6 O23 W4 58.2(15) . . . . ?
O23 W4 O2 Ni1 -119.1(18) . . . . ?
O23 W4 O5 W5 57.7(15) . . . . ?
O23 W4 O9 W3 21(3) . . . . ?
O23 W6 O8 W1 101.0(14) . . . . ?
C18 N7 C1 N3 163(3) . . . . ?
