#------------------------------------------------------------------------------
#$Date: 2022-02-08 01:42:51 +0200 (Tue, 08 Feb 2022) $
#$Revision: 272847 $
#$URL: file:///home/coder/svn-repositories/cod/cif/7/24/43/7244366.cif $
#------------------------------------------------------------------------------
#
# This file is available in the Crystallography Open Database (COD),
# http://www.crystallography.net/
#
# All data on this site have been placed in the public domain by the
# contributors.
#
data_7244366
loop_
_publ_author_name
'Sakamoto, Hikaru'
'Ito, Akitaka'
'Ohtani, Masataka'
_publ_section_title
;
 Unusual ligand substitution of a metal-organic framework with distorted
 metal--ligand coordination
;
_journal_name_full               CrystEngComm
_journal_paper_doi               10.1039/D2CE00060A
_journal_year                    2022
_chemical_formula_moiety         'C14 H18 F4 N2 O8 Zn'
_chemical_formula_sum            'C16 H14 F4 N0.5 O8 Zn'
_chemical_formula_weight         482.65
_space_group_crystal_system      monoclinic
_space_group_IT_number           14
_space_group_name_Hall           '-P 2yn'
_space_group_name_H-M_alt        'P 1 21/n 1'
_atom_sites_solution_hydrogens   difmap
_atom_sites_solution_primary     dual
_audit_creation_date             2020-11-03
_audit_creation_method
;
Olex2 1.3-ac4
(compiled 2019.04.23 svn.r3594 for Rigaku Oxford Diffraction, GUI svn.r5739)
;
_audit_update_record
;
2021-12-10 deposited with the CCDC.	2022-01-26 downloaded from the CCDC.
;
_cell_angle_alpha                90
_cell_angle_beta                 95.568(5)
_cell_angle_gamma                90
_cell_formula_units_Z            2
_cell_length_a                   5.2395(3)
_cell_length_b                   10.1581(5)
_cell_length_c                   16.8889(11)
_cell_measurement_reflns_used    2760
_cell_measurement_temperature    93.15
_cell_measurement_theta_max      29.9840
_cell_measurement_theta_min      2.4100
_cell_volume                     894.64(9)
_computing_cell_refinement       'CrysAlisPro 1.171.40.47a (Rigaku OD, 2019)'
_computing_data_collection       'CrysAlisPro 1.171.40.47a (Rigaku OD, 2019)'
_computing_data_reduction        'CrysAlisPro 1.171.40.47a (Rigaku OD, 2019)'
_computing_molecular_graphics    'Olex2 (Dolomanov et al., 2009)'
_computing_publication_material  'Olex2 (Dolomanov et al., 2009)'
_computing_structure_refinement  'ShelXL (Sheldrick, 2015)'
_computing_structure_solution    'ShelXT (Sheldrick, 2015)'
_diffrn_ambient_temperature      93.15
_diffrn_detector                 'CCD plate'
_diffrn_detector_area_resol_mean 10.0000
_diffrn_detector_type            HyPix
_diffrn_measured_fraction_theta_full 0.999
_diffrn_measured_fraction_theta_max 0.998
_diffrn_measurement_details
;
List of Runs (angles in degrees, time in seconds):

  # Type    Start    End  Width  t~exp~   \w     \q     \k     \f   Frames
#--------------------------------------------------------------------------
  1  \w    -98.00  35.00   0.50   52.74    --  -13.34  -5.00  58.00  266
  2  \w     38.00  68.00   0.50   52.74    --  -13.34  -5.00  58.00   60
  3  \w    -19.00   7.00   0.50   52.74    --   12.72 -99.00-120.00   52
  4  \w     29.00  55.00   0.50   52.74    --   12.72 -99.00-120.00   52
  5  \w    -23.00  31.00   0.50   52.74    --  -13.34 -99.00-180.00  108
  6  \w     47.00  84.00   0.50   52.74    --   12.72 178.00-150.00   74
  7  \w    -91.00 -65.00   0.50   52.74    --  -13.34 178.00 -60.00   52
;
_diffrn_measurement_device       'four-circle diffractometer'
_diffrn_measurement_device_type
'XtaLAB Synergy, Single source at offset/far, HyPix'
_diffrn_measurement_method       '\w scans'
_diffrn_orient_matrix_type
'CrysAlisPro convention (1999,Acta A55,543-557)'
_diffrn_orient_matrix_UB_11      0.0799204000
_diffrn_orient_matrix_UB_12      -0.0039796000
_diffrn_orient_matrix_UB_13      0.0363694000
_diffrn_orient_matrix_UB_21      -0.1097774000
_diffrn_orient_matrix_UB_22      0.0021401000
_diffrn_orient_matrix_UB_23      0.0214054000
_diffrn_orient_matrix_UB_31      -0.0079394000
_diffrn_orient_matrix_UB_32      -0.0696490000
_diffrn_orient_matrix_UB_33      -0.0013424000
_diffrn_radiation_monochromator  mirror
_diffrn_radiation_probe          x-ray
_diffrn_radiation_type           'Mo K\a'
_diffrn_radiation_wavelength     0.71073
_diffrn_reflns_av_R_equivalents  0.0383
_diffrn_reflns_av_unetI/netI     0.0397
_diffrn_reflns_Laue_measured_fraction_full 0.999
_diffrn_reflns_Laue_measured_fraction_max 0.998
_diffrn_reflns_limit_h_max       6
_diffrn_reflns_limit_h_min       -6
_diffrn_reflns_limit_k_max       12
_diffrn_reflns_limit_k_min       -12
_diffrn_reflns_limit_l_max       21
_diffrn_reflns_limit_l_min       -21
_diffrn_reflns_number            6431
_diffrn_reflns_point_group_measured_fraction_full 0.999
_diffrn_reflns_point_group_measured_fraction_max 0.998
_diffrn_reflns_theta_full        25.242
_diffrn_reflns_theta_max         26.363
_diffrn_reflns_theta_min         2.343
_diffrn_source                   'micro-focus sealed X-ray tube'
_diffrn_source_type              'PhotonJet (Mo) X-ray Source'
_exptl_absorpt_coefficient_mu    1.459
_exptl_absorpt_correction_T_max  1.000
_exptl_absorpt_correction_T_min  0.770
_exptl_absorpt_correction_type   gaussian
_exptl_absorpt_process_details
;
CrysAlisPro 1.171.40.47a (Rigaku Oxford Diffraction, 2019)
Numerical absorption correction based on gaussian integration over
			a multifaceted crystal model
Empirical absorption correction using spherical harmonics,
 implemented in SCALE3 ABSPACK scaling algorithm.
;
_exptl_crystal_colour            'clear colourless'
_exptl_crystal_colour_lustre     clear
_exptl_crystal_colour_primary    colourless
_exptl_crystal_density_diffrn    1.792
_exptl_crystal_description       plate
_exptl_crystal_F_000             487
_exptl_crystal_size_max          0.185
_exptl_crystal_size_mid          0.057
_exptl_crystal_size_min          0.014
_refine_diff_density_max         0.622
_refine_diff_density_min         -0.478
_refine_diff_density_rms         0.082
_refine_ls_extinction_method     none
_refine_ls_goodness_of_fit_ref   1.047
_refine_ls_hydrogen_treatment    refall
_refine_ls_matrix_type           full
_refine_ls_number_parameters     169
_refine_ls_number_reflns         1832
_refine_ls_number_restraints     0
_refine_ls_restrained_S_all      1.047
_refine_ls_R_factor_all          0.0468
_refine_ls_R_factor_gt           0.0359
_refine_ls_shift/su_max          0.000
_refine_ls_shift/su_mean         0.000
_refine_ls_structure_factor_coef Fsqd
_refine_ls_weighting_details
'w=1/[\s^2^(Fo^2^)+(0.0412P)^2^+1.0166P] where P=(Fo^2^+2Fc^2^)/3'
_refine_ls_weighting_scheme      calc
_refine_ls_wR_factor_gt          0.0854
_refine_ls_wR_factor_ref         0.0899
_reflns_Friedel_coverage         0.000
_reflns_number_gt                1527
_reflns_number_total             1832
_reflns_threshold_expression     'I > 2\s(I)'
_iucr_refine_instructions_details
;
TITL kuths4-129c_2_a.res in P2(1)/n
    kuths4-129c_2.res
    created by SHELXL-2018/3 at 10:58:24 on 03-Nov-2020
REM Old TITL kuths4-129c_2_a.res in P2(1)/n
REM SHELXT solution in P2(1)/n: R1 0.104, Rweak 0.004, Alpha 0.018
REM <I/s> 0.508 for 114 systematic absences, Orientation as input
REM Formula found by SHELXT: C16 F4 O8 Zn
CELL 0.71073 5.2395 10.1581 16.8889 90 95.568 90
ZERR 2 0.0003 0.0005 0.0011 0 0.005 0
LATT 1
SYMM 0.5-X,0.5+Y,0.5-Z
SFAC C H F O Zn N
UNIT 32 28 8 16 2 1

L.S. 4
PLAN  5
TEMP -180
BOND
list 4
fmap 2
acta
REM <olex2.extras>
REM <HklSrc "%.\\KUTHS4-129c_2.hkl">
REM </olex2.extras>

WGHT    0.041200    1.016600
FVAR       0.75331
ZN01  5    0.500000    1.000000    0.500000    10.50000    0.01091    0.01106 =
         0.02769    0.00066    0.00328    0.00179
F002  3    0.772758    0.630691    0.372482    11.00000    0.02096    0.02068 =
         0.02613    0.00352    0.00132    0.00929
F003  3    1.100675    0.438723    0.350217    11.00000    0.02442    0.02251 =
         0.02283    0.00045    0.00388    0.00934
O004  4    0.233346    0.947004    0.400348    11.00000    0.01418    0.01892 =
         0.03022   -0.00024    0.00241    0.00068
O005  4    0.254369    0.924702    0.580038    11.00000    0.01168    0.01830 =
         0.03399    0.00300    0.00682    0.00425
O006  4    0.698625    0.824713    0.497966    11.00000    0.01470    0.01159 =
         0.03205    0.00099    0.00613    0.00298
O007  4    0.450926    0.686496    0.560904    11.00000    0.01577    0.01471 =
         0.04039    0.00271    0.01136    0.00102
N008  6    0.135806    0.812832    0.292949    11.00000    0.01466    0.01652 =
         0.02583   -0.00133    0.00262    0.00192
C009  1    0.825445    0.603748    0.512056    11.00000    0.01049    0.01136 =
         0.02804    0.00078    0.00176   -0.00103
C00A  1    0.275172    0.849532    0.358161    11.00000    0.01371    0.01754 =
         0.02700    0.00360    0.00247    0.00195
C00B  1    0.887685    0.568704    0.437462    11.00000    0.01362    0.01282 =
         0.02710    0.00373    0.00038    0.00043
C00C  1    1.058087    0.468897    0.425273    11.00000    0.01510    0.01536 =
         0.02369   -0.00096    0.00307   -0.00145
C00D  1    0.639104    0.714161    0.525302    11.00000    0.01463    0.01123 =
         0.02426   -0.00126   -0.00054   -0.00010
C00E  1   -0.091422    0.883999    0.261140    11.00000    0.01557    0.02325 =
         0.03226   -0.00005   -0.00027    0.00456
C00F  1    0.202205    0.696139    0.248856    11.00000    0.02682    0.01698 =
         0.02637   -0.00121    0.00510    0.00204
H00G  2    0.240429    0.720415    0.196661    11.00000    0.01662
H00C  2    0.400073    0.799920    0.369295    11.00000    0.01014
H00D  2   -0.069553    0.911148    0.204365    11.00000    0.02283
H00E  2   -0.125424    0.961567    0.294574    11.00000    0.03036
H00H  2    0.057686    0.638072    0.249551    11.00000    0.02463
H00I  2    0.356196    0.655131    0.279135    11.00000    0.03965
H00F  2   -0.231013    0.828129    0.254157    11.00000    0.03422
H00A  2    0.287383    0.835017    0.577865    11.00000    0.06184
H00B  2    0.125627    0.942167    0.574694    11.00000    0.03731
HKLF 4




REM  kuths4-129c_2_a.res in P2(1)/n
REM wR2 = 0.0899, GooF = S = 1.047, Restrained GooF = 1.047 for all data
REM R1 = 0.0359 for 1527 Fo > 4sig(Fo) and 0.0468 for all 1832 data
REM 169 parameters refined using 0 restraints

END  
     
WGHT      0.0412      1.0166 

REM Highest difference peak  0.622,  deepest hole -0.478,  1-sigma level  0.082
Q1    1   0.4443  1.0041  0.4424  11.00000  0.05    0.62
Q2    1   0.2083  0.6375  0.6223  11.00000  0.05    0.32
Q3    1   0.3095  0.9859  0.5440  11.00000  0.05    0.31
Q4    1   0.1269  0.7939  0.3375  11.00000  0.05    0.31
Q5    1   0.8774  0.5700  0.5407  11.00000  0.05    0.29

  REM The information below was added by Olex2.
  REM
  REM R1 = 0.0359 for 1527 Fo > 4sig(Fo) and 0.0468 for all 6604 data
  REM n/a parameters refined using n/a restraints
  REM Highest difference peak 0.62, deepest hole -0.48
  REM Mean Shift 0, Max Shift 0.000.

  REM +++ Tabular Listing of Refinement Information +++
  REM R1_all = 0.0468
  REM R1_gt = 0.0359
  REM wR_ref = 0.0899
  REM GOOF = 1.047
  REM Shift_max = 0.000
  REM Shift_mean = 0
  REM Reflections_all = 6604
  REM Reflections_gt = 1527
  REM Parameters = n/a
  REM Hole = -0.48
  REM Peak = 0.62
  REM Flack = n/a

  
;
_cod_data_source_file            d2ce00060a2.cif
_cod_data_source_block           kuths4-129c_2
_cod_original_formula_sum        'C16 H14 F4 N0.50 O8 Zn'
_cod_database_code               7244366
_shelx_shelxl_version_number     2018/3
_chemical_oxdiff_formula         'C16 H12 F4 O8 Zn1'
_shelx_space_group_comment
;
The symmetry employed for this shelxl refinement is uniquely defined
by the following loop, which should always be used as a source of
symmetry information in preference to the above space-group names.
They are only intended as comments.
;
_diffrn_oxdiff_digest_frames
;
010819a8df30c456fa1f847062b5666110006644d7e
;
_diffrn_oxdiff_digest_hkl
;
0136a844373cfa2feb0bd80289acd1fa4abc95
;
_reflns_odcompleteness_completeness 99.79
_reflns_odcompleteness_iscentric 1
_reflns_odcompleteness_theta     26.32
_olex2_refinement_description
;
;
_olex2_submission_special_instructions 'No special instructions were received'
_oxdiff_exptl_absorpt_empirical_details
;
Empirical correction (ABSPACK) includes:
- Absorption correction using spherical harmonics
- Frame scaling
;
_oxdiff_exptl_absorpt_empirical_full_max 1.152
_oxdiff_exptl_absorpt_empirical_full_min 0.863
loop_
_space_group_symop_operation_xyz
'x, y, z'
'-x+1/2, y+1/2, -z+1/2'
'-x, -y, -z'
'x-1/2, -y-1/2, z-1/2'
loop_
_atom_site_label
_atom_site_type_symbol
_atom_site_fract_x
_atom_site_fract_y
_atom_site_fract_z
_atom_site_U_iso_or_equiv
_atom_site_adp_type
_atom_site_occupancy
_atom_site_site_symmetry_order
_atom_site_calc_flag
_atom_site_refinement_flags_posn
_atom_site_refinement_flags_adp
_atom_site_refinement_flags_occupancy
_atom_site_disorder_assembly
_atom_site_disorder_group
Zn01 Zn 0.500000 1.000000 0.500000 0.01646(15) Uani 1 2 d S T P . .
F002 F 0.7728(3) 0.63069(15) 0.37248(10) 0.0227(4) Uani 1 1 d . . . . .
F003 F 1.1007(3) 0.43872(16) 0.35022(10) 0.0231(4) Uani 1 1 d . . . . .
O004 O 0.2333(4) 0.94700(19) 0.40035(12) 0.0211(4) Uani 1 1 d . . . . .
O005 O 0.2544(4) 0.9247(2) 0.58004(13) 0.0210(5) Uani 1 1 d . . . . .
O006 O 0.6986(4) 0.82471(17) 0.49797(12) 0.0192(4) Uani 1 1 d . . . . .
O007 O 0.4509(4) 0.68650(18) 0.56090(13) 0.0231(5) Uani 1 1 d . . . . .
N008 N 0.1358(4) 0.8128(2) 0.29295(14) 0.0190(5) Uani 1 1 d . . . . .
C009 C 0.8254(5) 0.6037(2) 0.51206(17) 0.0166(6) Uani 1 1 d . . . . .
C00A C 0.2752(5) 0.8495(3) 0.35816(17) 0.0194(6) Uani 1 1 d . . . . .
C00B C 0.8877(5) 0.5687(3) 0.43746(17) 0.0179(6) Uani 1 1 d . . . . .
C00C C 1.0581(5) 0.4689(3) 0.42527(17) 0.0180(6) Uani 1 1 d . . . . .
C00D C 0.6391(5) 0.7142(2) 0.52530(17) 0.0169(6) Uani 1 1 d . . . . .
C00E C -0.0914(6) 0.8840(3) 0.2611(2) 0.0239(6) Uani 1 1 d . . . . .
C00F C 0.2022(6) 0.6961(3) 0.2489(2) 0.0232(6) Uani 1 1 d . . . . .
H00G H 0.240(6) 0.720(3) 0.1967(19) 0.017(7) Uiso 1 1 d . . . . .
H00C H 0.400(6) 0.800(3) 0.3693(17) 0.010(7) Uiso 1 1 d . . . . .
H00D H -0.070(6) 0.911(3) 0.204(2) 0.023(8) Uiso 1 1 d . . . . .
H00E H -0.125(7) 0.962(4) 0.295(2) 0.030(9) Uiso 1 1 d . . . . .
H00H H 0.058(7) 0.638(3) 0.2496(19) 0.025(8) Uiso 1 1 d . . . . .
H00I H 0.356(8) 0.655(4) 0.279(2) 0.040(10) Uiso 1 1 d . . . . .
H00F H -0.231(8) 0.828(4) 0.254(2) 0.034(9) Uiso 1 1 d . . . . .
H00A H 0.287(9) 0.835(5) 0.578(3) 0.062(13) Uiso 1 1 d . . . . .
H00B H 0.126(8) 0.942(4) 0.575(2) 0.037(12) Uiso 1 1 d . . . . .
loop_
_atom_site_aniso_label
_atom_site_aniso_U_11
_atom_site_aniso_U_22
_atom_site_aniso_U_33
_atom_site_aniso_U_23
_atom_site_aniso_U_13
_atom_site_aniso_U_12
Zn01 0.0109(2) 0.0111(2) 0.0277(3) 0.00066(18) 0.00328(17) 0.00179(16)
F002 0.0210(9) 0.0207(8) 0.0261(9) 0.0035(7) 0.0013(7) 0.0093(6)
F003 0.0244(9) 0.0225(9) 0.0228(9) 0.0005(7) 0.0039(7) 0.0093(7)
O004 0.0142(10) 0.0189(10) 0.0302(12) -0.0002(8) 0.0024(8) 0.0007(8)
O005 0.0117(11) 0.0183(11) 0.0340(13) 0.0030(8) 0.0068(9) 0.0042(8)
O006 0.0147(10) 0.0116(9) 0.0320(12) 0.0010(8) 0.0061(8) 0.0030(7)
O007 0.0158(10) 0.0147(9) 0.0404(13) 0.0027(8) 0.0114(9) 0.0010(7)
N008 0.0147(12) 0.0165(11) 0.0258(13) -0.0013(10) 0.0026(10) 0.0019(9)
C009 0.0105(12) 0.0114(12) 0.0280(15) 0.0008(10) 0.0018(11) -0.0010(10)
C00A 0.0137(14) 0.0175(14) 0.0270(16) 0.0036(11) 0.0025(12) 0.0020(11)
C00B 0.0136(13) 0.0128(13) 0.0271(16) 0.0037(11) 0.0004(11) 0.0004(10)
C00C 0.0151(14) 0.0154(13) 0.0237(15) -0.0010(10) 0.0031(11) -0.0014(10)
C00D 0.0146(14) 0.0112(13) 0.0243(15) -0.0013(11) -0.0005(11) -0.0001(10)
C00E 0.0156(15) 0.0233(16) 0.0323(18) -0.0001(13) -0.0003(12) 0.0046(12)
C00F 0.0268(17) 0.0170(14) 0.0264(17) -0.0012(12) 0.0051(13) 0.0020(12)
loop_
_atom_type_symbol
_atom_type_description
_atom_type_scat_dispersion_real
_atom_type_scat_dispersion_imag
_atom_type_scat_source
C C 0.0033 0.0016 'International Tables Vol C Tables 4.2.6.8 and 6.1.1.4'
H H 0.0000 0.0000 'International Tables Vol C Tables 4.2.6.8 and 6.1.1.4'
F F 0.0171 0.0103 'International Tables Vol C Tables 4.2.6.8 and 6.1.1.4'
O O 0.0106 0.0060 'International Tables Vol C Tables 4.2.6.8 and 6.1.1.4'
Zn Zn 0.2839 1.4301 'International Tables Vol C Tables 4.2.6.8 and 6.1.1.4'
N N 0.0061 0.0033 'International Tables Vol C Tables 4.2.6.8 and 6.1.1.4'
loop_
_exptl_crystal_face_index_h
_exptl_crystal_face_index_k
_exptl_crystal_face_index_l
_exptl_crystal_face_perp_dist
0 1 0 0.0302
-2 0 1 0.0830
-2 -2 1 0.0742
0 0 -1 0.0113
0 0 1 0.0032
0 -1 0 0.0264
2 2 -1 0.0904
1 -1 -1 0.0868
loop_
_geom_angle_atom_site_label_1
_geom_angle_atom_site_label_2
_geom_angle_atom_site_label_3
_geom_angle
_geom_angle_site_symmetry_1
_geom_angle_site_symmetry_3
_geom_angle_publ_flag
O004 Zn01 O004 180.0 3_676 . ?
O005 Zn01 O004 88.83(8) 3_676 . ?
O005 Zn01 O004 88.83(8) . 3_676 ?
O005 Zn01 O004 91.17(8) . . ?
O005 Zn01 O004 91.17(8) 3_676 3_676 ?
O005 Zn01 O005 180.00(9) . 3_676 ?
O006 Zn01 O004 86.48(8) 3_676 . ?
O006 Zn01 O004 86.48(8) . 3_676 ?
O006 Zn01 O004 93.52(8) . . ?
O006 Zn01 O004 93.52(8) 3_676 3_676 ?
O006 Zn01 O005 92.18(8) 3_676 3_676 ?
O006 Zn01 O005 87.82(8) . 3_676 ?
O006 Zn01 O005 92.18(8) . . ?
O006 Zn01 O005 87.82(8) 3_676 . ?
O006 Zn01 O006 180.0 . 3_676 ?
C00A O004 Zn01 120.50(18) . . ?
C00D O006 Zn01 128.12(17) . . ?
C00A N008 C00E 122.5(2) . . ?
C00A N008 C00F 121.1(2) . . ?
C00E N008 C00F 116.3(2) . . ?
C00B C009 C00C 115.8(2) . 3_766 ?
C00B C009 C00D 122.6(2) . . ?
C00C C009 C00D 121.6(2) 3_766 . ?
O004 C00A N008 126.0(3) . . ?
F002 C00B C009 119.6(2) . . ?
F002 C00B C00C 117.6(2) . . ?
C009 C00B C00C 122.7(3) . . ?
F003 C00C C009 119.9(2) . 3_766 ?
F003 C00C C00B 118.5(2) . . ?
C00B C00C C009 121.5(3) . 3_766 ?
O006 C00D C009 114.7(2) . . ?
O007 C00D O006 128.0(2) . . ?
O007 C00D C009 117.3(2) . . ?
loop_
_geom_bond_atom_site_label_1
_geom_bond_atom_site_label_2
_geom_bond_distance
_geom_bond_site_symmetry_2
_geom_bond_publ_flag
Zn01 O004 2.149(2) . ?
Zn01 O004 2.149(2) 3_676 ?
Zn01 O005 2.099(2) . ?
Zn01 O005 2.099(2) 3_676 ?
Zn01 O006 2.0644(17) 3_676 ?
Zn01 O006 2.0644(17) . ?
F002 C00B 1.355(3) . ?
F003 C00C 1.344(3) . ?
O004 C00A 1.252(3) . ?
O006 C00D 1.265(3) . ?
O007 C00D 1.236(3) . ?
N008 C00A 1.315(4) . ?
N008 C00E 1.451(4) . ?
N008 C00F 1.460(4) . ?
C009 C00B 1.378(4) . ?
C009 C00C 1.383(4) 3_766 ?
C009 C00D 1.518(4) . ?
C00B C00C 1.380(4) . ?
loop_
_refln_index_h
_refln_index_k
_refln_index_l
_refln_F_squared_meas
_refln_F_squared_sigma
0 0 2 6117.17 193.5
0 0 -3 -0.06 2.25
0 0 3 1.96 3.4
0 0 4 1604.72 51.88
0 0 -4 1526.89 50.15
0 0 -5 0.52 3.13
0 0 5 0.87 4.58
0 0 6 62.1 6.7
0 0 -6 51.33 4.51
0 0 7 5.76 5.32
0 0 -7 5.74 3.48
0 0 8 2975.02 98.99
0 0 -8 2957.47 95.79
0 0 -9 5.83 3.86
0 0 9 7.39 6.48
0 0 10 318.95 16.88
0 0 -10 313.08 13.49
0 0 -11 0.66 4.26
0 0 11 -1.45 6.57
0 0 12 1224.34 45.92
0 0 -12 1143.91 40.55
0 0 -13 -2.14 4.63
0 0 13 -1.74 8.04
0 0 -14 1608.22 56.56
0 0 14 1883.95 64.31
0 0 -15 -5.3 5.02
0 0 15 9.07 9.46
0 0 16 621.63 31.25
0 0 17 -12.08 11.77
0 0 18 15.62 11.68
0 0 19 -18.51 12.78
0 0 20 201.2 20.85
0 0 21 -8.34 15.05
0 -1 0 0.6 0.92
0 1 0 0.75 1.48
0 1 0 -0.25 0.98
0 -1 0 -0.08 1.56
0 1 1 375.75 11.92
0 1 1 282.8 11.34
0 1 2 132.43 6.18
0 -1 -2 142.05 6.33
0 1 2 138.19 7.26
0 -1 -2 135.92 7.15
0 -1 -3 1319.31 43.33
0 1 3 1265.48 43.56
0 -1 -3 1380.82 44.48
0 1 -4 2197.71 68.82
0 -1 -4 2113.95 69.58
0 1 4 2067.65 70.25
0 1 5 1006.07 34.45
0 1 -5 1023.65 33.51
0 1 5 1004.08 35.59
0 -1 -5 1001.13 34.55
0 -1 -6 700 25.04
0 1 -6 678.19 23.7
0 1 6 693.24 26.35
0 1 6 723.65 25.04
0 1 7 61.49 5.68
0 1 -7 72.22 5.01
0 1 -7 68.39 4.71
0 1 7 72.91 7.44
0 -1 -7 64.97 5.97
0 1 -8 387.11 14.22
0 1 -8 361.71 13.63
0 1 8 354.67 17.32
0 1 8 385.77 15.52
0 -1 -8 346.96 15.19
0 1 9 2952.56 94.89
0 1 9 2986.68 97.34
0 1 -9 3037.59 93.21
0 1 -9 2767.02 92.41
0 -1 -9 2783.8 94.26
0 -1 -10 388.37 16.88
0 1 -10 419.27 15.79
0 1 10 408.9 19.91
0 1 11 1898.53 66.43
0 1 -11 1884.48 61.25
0 -1 -11 1786.18 62.41
0 -1 -12 1.36 4.71
0 1 -12 8.91 4.2
0 1 12 5.27 7.62
0 -1 -13 251.5 13.06
0 1 -13 264.9 12.03
0 1 13 278.24 17.45
0 1 14 120.88 13.2
0 1 -14 92.81 7.03
0 -1 -14 84.34 8.02
0 1 15 27.09 10.43
0 1 16 2.98 10.71
0 1 17 115.61 15.29
0 1 18 3.46 11.46
0 1 19 135.64 17.77
0 1 20 5.87 13.28
0 2 0 1905.16 62.09
0 2 0 1893.31 62.01
0 -2 0 1854.91 62.13
0 2 -1 929.49 32.47
0 2 1 928.86 31.88
0 -2 1 952.06 32.65
0 -2 2 2825.73 88.8
0 2 2 2736.81 88.66
0 2 2 2754.64 90.35
0 2 2 2803.25 90.2
0 -2 -3 63.48 7.07
0 2 3 61.04 5.28
0 2 3 65.85 7.21
0 -2 3 65.88 5.3
0 -2 -3 60.9 5.65
0 -2 4 367.73 15.19
0 -2 -4 397.72 16.88
0 2 4 386.94 16.84
0 2 4 367.53 14.94
0 -2 -4 353.95 15.05
0 -2 -5 -2.48 4.36
0 2 5 4.92 4.62
0 -2 5 -1.98 4.64
0 2 5 -0.45 4.27
0 -2 -5 5.61 6.14
0 2 -5 2.22 3.73
0 2 6 122.76 8.57
0 2 -6 125.13 7.14
0 -2 6 115.81 8.64
0 2 6 103.6 5.61
0 2 6 142.31 8.19
0 -2 -6 118.78 10.14
0 -2 -6 122.93 7.94
0 -2 7 439.47 18.01
0 -2 -7 391.81 16.57
0 2 7 431.21 17.05
0 2 7 346.59 13.63
0 2 7 398.84 17.56
0 -2 -7 428.33 19.54
0 2 -7 424.47 15.59
0 2 8 212.45 12.06
0 -2 -8 218.92 13.87
0 2 8 170.21 7.05
0 2 -8 202.88 9.42
0 -2 8 205.03 12.05
0 -2 -8 178.59 10.3
0 2 8 235.54 11.35
0 -2 9 97.52 9.25
0 -2 -9 87.7 7.62
0 2 -9 90.63 6.6
0 2 9 85.74 7.87
0 2 9 97.32 9.12
0 -2 -9 115.98 11.54
0 2 -10 573.99 21.25
0 2 10 581.41 25.22
0 2 -10 579.03 20.81
0 -2 10 544.9 25.03
0 2 10 616.81 23.62
0 -2 -10 510.39 22.39
0 -2 11 4.9 6.94
0 2 -11 11.26 4.13
0 2 -11 18.06 4.54
0 -2 -11 13.07 5.43
0 2 11 10.55 7.5
0 2 11 16.15 6.38
0 2 -12 1009.57 35.09
0 2 12 1039.72 41.07
0 -2 12 1094.55 41.62
0 2 12 1075.75 39.16
0 -2 -12 982.03 37.5
0 2 13 30.32 9.28
0 2 -13 21.11 4.48
0 -2 13 23.14 9.41
0 -2 -13 16.63 6.24
0 2 14 555.96 26.18
0 2 -14 441.13 17.65
0 -2 14 529.99 26.03
0 2 15 215.43 17.6
0 -2 -15 279.1 20.7
0 -2 15 227.16 17.92
0 -2 -16 50.52 14.37
0 2 16 50.76 12.42
0 -2 16 70.68 13.47
0 -2 -17 48.27 14.57
0 -2 17 25.37 11.78
0 2 17 10.48 11.45
0 2 18 133.36 16.68
0 -2 18 117.1 16.83
0 -2 -18 137.42 18.77
0 -2 19 -1.87 12.56
0 -2 -19 23.51 14.97
0 2 19 -10.11 13.42
0 2 20 71.46 15.88
0 -2 20 88.46 17.15
0 -2 -20 47.09 16.45
0 3 0 -2.43 5.2
0 -3 1 1727.9 56.83
0 3 1 1637.01 55.68
0 3 -1 1624.92 56.56
0 -3 2 10.13 2.96
0 3 2 12.57 2.99
0 -3 2 17.59 5.1
0 3 2 8.38 4.53
0 3 3 2193.78 70.86
0 3 3 2145.42 73.46
0 -3 3 2205.13 71
0 3 4 179.11 8.96
0 3 4 186.14 11.84
0 -3 4 177.47 9.23
0 -3 -5 0.69 6.43
0 -3 5 1.09 4.65
0 3 5 8.45 4.71
0 3 5 4.67 6.75
0 3 -5 9.95 4.5
0 3 6 5.99 3.5
0 3 -6 11.54 4.55
0 3 6 1.24 5.09
0 -3 -6 8.49 6.9
0 -3 6 4.73 4.9
0 3 6 5.61 4.88
0 3 7 524.28 21.82
0 -3 -7 579.27 24.6
0 3 -7 582.94 21.28
0 -3 7 565.7 22.35
0 3 7 488.82 19.19
0 -3 -7 488.74 21.38
0 3 7 553.85 22.36
0 -3 -8 39.03 6.56
0 3 8 50.77 4.53
0 3 -8 57.35 6.29
0 3 8 55.72 7.41
0 -3 8 57.62 7.78
0 3 8 57.13 7.64
0 -3 -8 50.05 9.14
0 3 9 401.52 15.98
0 -3 9 475.41 20.85
0 -3 -9 479.03 23.31
0 -3 -9 440.59 19.32
0 3 -9 448.26 18.18
0 3 9 464.73 20.25
0 3 9 481.39 20.67
0 3 10 217.95 13.34
0 3 10 224.45 13.74
0 3 -10 227.34 11.39
0 3 10 194.33 8.55
0 -3 10 224.47 14.08
0 -3 -10 256.47 16.65
0 3 11 343.4 18.86
0 -3 11 355.78 19.25
0 3 -11 367.35 16.01
0 -3 -11 388.41 22
0 3 11 345.45 18.14
0 -3 -12 20.24 10.88
0 3 12 31 7.72
0 -3 12 34.55 8.49
0 3 -12 24.08 5.71
0 3 -12 24.14 4.77
0 3 12 32.29 8.21
0 3 13 -1.18 8.35
0 3 -13 6.19 4.16
0 3 -13 5.14 5.27
0 3 13 2.75 7.35
0 -3 -13 -4.36 11.03
0 -3 13 2.43 8.77
0 3 14 129.5 11.77
0 -3 -14 120.89 15.9
0 3 14 110.02 13.16
0 3 -14 85.03 6.17
0 -3 14 113.23 13.4
0 -3 15 65.99 12.43
0 3 15 51.35 11.61
0 -3 16 171.7 17.31
0 3 16 177.09 16.98
0 -3 -16 173.27 18.91
0 -3 17 275.55 21.64
0 3 17 288.62 21.37
0 -3 -17 283.76 23.52
0 -3 18 13.24 12.91
0 3 18 11.25 11.96
0 -3 -18 37.56 14.77
0 -3 -19 50.97 16.51
0 -3 19 48.86 14.52
0 3 19 39.67 14.63
0 -3 -20 -1.09 15.17
0 4 0 31.59 6.22
0 4 -1 60.99 7.34
0 -4 1 68.85 7.59
0 4 1 65.56 6.59
0 4 2 1612.56 54.32
0 -4 2 1636.13 55.65
0 4 2 1533.19 50.45
0 4 -2 1515.02 54.99
0 -4 2 1587.38 50.49
0 4 3 436.88 18.27
0 -4 3 397.08 15.07
0 4 3 399 14.81
0 -4 3 406.9 18.92
0 4 3 371.11 18.21
0 4 3 383.99 14.91
0 -4 3 431.07 14.95
0 -4 4 1226.05 41.52
0 4 -4 1250.3 43.58
0 4 4 1196.12 41.52
0 -4 4 1240.57 41.76
0 4 4 1277.66 45.3
0 4 5 1019.32 37.52
0 4 5 964.98 34.26
0 4 5 931.18 34
0 4 -5 975.67 35.39
0 -4 5 978.34 34.3
0 4 6 461.01 18.54
0 -4 6 456.54 19.49
0 4 -6 476.74 19.87
0 4 6 458.58 19.31
0 4 6 499.88 22.53
0 4 6 510.05 21.39
0 -4 7 569.04 23.81
0 4 7 555.95 23.5
0 4 -7 651.34 24
0 4 7 555.77 22
0 4 7 645.74 25.47
0 -4 -8 3.13 8.46
0 4 8 8.84 5.81
0 4 8 -3.49 5.8
0 4 8 6.1 4.04
0 4 -8 6.37 5.23
0 -4 8 -2.14 6.2
0 -4 9 300.86 16.17
0 4 9 278.99 12.79
0 -4 -9 343.08 19.2
0 4 9 301 16.16
0 4 9 347.74 17.03
0 4 -9 289.21 14.65
0 -4 -10 789.65 32.87
0 4 10 625.87 24.56
0 4 10 742.81 29.45
0 -4 10 735.56 29.71
0 4 10 686.16 29.18
0 -4 10 671.62 28.04
0 4 -10 700.2 27.02
0 -4 -11 10.66 10.02
0 4 11 14.83 7.88
0 4 11 2.32 3.89
0 4 11 -0.49 7.15
0 4 -11 6.19 5.95
0 -4 11 16.74 8.14
0 4 12 531.84 25.78
0 4 -12 524.7 22.42
0 4 12 546.57 25.41
0 -4 -12 619.88 29.77
0 -4 12 501.34 25.59
0 4 13 250.15 16.8
0 4 -13 262.07 13.88
0 -4 13 284.63 18.29
0 4 13 243.39 17.32
0 -4 -13 308.07 21.46
0 -4 -14 97.23 15.13
0 4 -14 89.97 8.7
0 4 14 58.58 10.46
0 -4 14 72.48 12.02
0 4 14 58.11 11.7
0 -4 15 -2.87 10.05
0 4 15 4.92 10.14
0 -4 -15 15.47 12.86
0 4 15 -13.34 9.48
0 -4 16 -0.77 10.95
0 4 16 14.39 11.09
0 4 16 26.61 10.16
0 -4 -16 1.82 12.92
0 -4 17 4.97 11.42
0 4 17 7.3 11.88
0 -4 -17 19.23 14.22
0 -4 18 108.73 16.26
0 -4 -18 128.38 19.33
0 4 18 114.77 16.17
0 -4 -19 62.71 16.85
0 5 0 5.3 5.08
0 5 1 1407.19 49.82
0 5 -1 1381.18 50.72
0 -5 2 924.05 29.44
0 -5 2 896.67 29.52
0 5 2 897.81 29.31
0 5 2 969.17 34.79
0 -5 2 1057.67 37.05
0 5 2 841.03 29.4
0 5 -2 1015.86 36.18
0 5 3 357.49 16.8
0 5 3 320.04 12.57
0 5 -3 338.82 16.2
0 5 3 322.33 12.21
0 -5 3 326.3 12.22
0 5 -3 327.23 17.07
0 -5 3 332.39 17.72
0 5 4 407.07 19.71
0 5 4 409.67 19.01
0 5 4 401.43 15.09
0 -5 4 418.17 20.35
0 5 4 375.09 17.3
0 5 -4 367.98 17.94
0 -5 4 391.41 15.05
0 5 5 3154.33 101.58
0 5 5 2928.44 98.25
0 5 5 2978.62 97.13
0 -5 5 2976.44 96.8
0 5 5 2909.08 96.77
0 -5 5 2990.05 97.3
0 5 -5 2990.69 99.41
0 -5 5 3012.31 102.11
0 5 6 182.45 10.42
0 5 6 174.59 9.64
0 -5 6 173.24 10.42
0 5 -6 178.39 11.34
0 -5 6 189.37 9.79
0 5 6 172.91 13.71
0 5 6 181.12 10.28
0 5 -7 3215.14 101.09
0 5 7 3075.73 102.56
0 5 7 3041.69 99.84
0 -5 7 2989.33 99.96
0 5 7 2901.01 99.15
0 5 7 3100.41 103.65
0 5 7 2868.69 99.01
0 -5 7 3021.01 99.28
0 5 -8 159.16 11.05
0 5 8 161.7 12.53
0 5 8 149.97 10.24
0 -5 8 164.35 10.47
0 5 8 166.15 9.97
0 -5 8 159.77 11.32
0 5 8 161.87 11.2
0 5 9 1608.39 59.29
0 5 9 1645.22 57.36
0 5 9 1503.06 55.01
0 5 -9 1745.19 57.51
0 -5 9 1611.89 57.11
0 -5 9 1646.84 58.03
0 5 9 1653.19 57.88
0 5 -10 115.51 9.77
0 5 10 89.17 7.89
0 5 10 89.83 9.7
0 -5 10 104.66 9.81
0 -5 10 115.72 11.02
0 5 10 110.47 10.93
0 5 10 91.07 10.84
0 -5 11 415.09 21.09
0 5 11 416.89 21.07
0 5 -11 412.81 18.81
0 5 11 409.61 21.27
0 5 11 354.64 16.26
0 5 12 173.93 14.55
0 5 12 210.21 14.88
0 5 -12 180.82 12.18
0 5 12 155.41 9.39
0 -5 12 174.84 14.08
0 -5 -13 251.85 20.58
0 5 13 236.83 16.99
0 5 -13 228.24 14.03
0 -5 13 220.94 16.78
0 5 13 231.63 16.77
0 5 14 25.34 9.86
0 -5 14 5.98 9.78
0 5 14 8.5 9.61
0 -5 -14 10.3 12.14
0 5 15 637.39 31.03
0 -5 15 652.07 32.01
0 -5 -15 690.25 35.35
0 5 15 656.91 32
0 -5 16 197.49 17.94
0 5 16 213.87 18.27
0 -5 -16 188.87 20.43
0 5 16 157.68 16.22
0 -5 -17 181.5 20.79
0 -5 17 216.3 19.32
0 5 17 169.21 16.94
0 -5 -18 4.23 14.68
0 -5 -19 358.87 28.31
0 6 0 1063.52 40.15
0 6 -1 343.64 17.67
0 6 -1 367.69 18.97
0 6 -1 370.44 17.63
0 6 1 367.95 18.14
0 -6 2 574.85 26.55
0 6 2 557.19 24.44
0 6 -2 559.87 24.17
0 6 2 531.89 23.5
0 6 -2 576.19 25.42
0 6 3 1032.93 35.32
0 6 -3 1227.91 43.05
0 -6 3 1074.23 35.65
0 6 3 1154.52 41.85
0 6 3 1150.53 40.31
0 -6 3 1053.11 35.49
0 -6 3 1247.23 44.28
0 6 -3 1160.15 40.97
0 6 3 1050.15 35.51
0 -6 4 1895.71 63.96
0 6 4 1823 61.71
0 -6 4 1694.84 56.13
0 -6 4 1660.07 55.59
0 6 4 1791.19 61.67
0 6 4 1570.85 55.41
0 6 4 1777.75 59.48
0 6 -4 1796.38 60.55
0 6 4 1674.79 55.99
0 6 -4 1810.45 62.36
0 6 -5 198.81 14.09
0 -6 5 216.97 15.54
0 -6 5 211.31 10.01
0 6 5 201 9.86
0 6 5 235.08 15.92
0 6 5 232.34 12.9
0 6 -5 220.62 13.49
0 -6 6 1050.33 41.79
0 -6 6 998.59 35.53
0 6 -6 1076.93 38.98
0 6 6 1024.4 37.5
0 6 6 953.86 35.27
0 -6 7 8.71 7.62
0 6 7 7.84 6.14
0 -6 7 15.95 5.16
0 6 -7 19.17 7.43
0 6 7 9.85 4.87
0 -6 8 824.77 31.81
0 6 8 859.15 32.23
0 -6 8 897.5 33.1
0 6 8 821.82 35.53
0 6 8 836.51 31.82
0 6 9 5.47 6.01
0 6 9 11.66 7.07
0 -6 9 13.47 7.55
0 -6 9 1.4 5.73
0 6 9 21.76 8.7
0 6 9 7.82 6.01
0 6 10 449.29 21.87
0 6 10 470.74 20.56
0 -6 10 491.82 23.19
0 6 10 518.06 23.24
0 -6 10 483.18 21.95
0 6 10 546.32 25.46
0 6 11 124.33 13.24
0 -6 11 133.52 12.44
0 6 11 125.95 12.28
0 6 11 115.61 9.5
0 6 12 109.85 12.99
0 6 12 118.04 12.35
0 6 12 78.19 8.11
0 -6 12 96.06 11.75
0 -6 13 66.63 11.68
0 6 13 53.87 6.99
0 6 13 74.75 12.25
0 -6 14 290.52 19.86
0 6 14 294.01 20.24
0 6 15 39.4 11.7
0 6 16 435.48 25.65
0 6 17 6.97 11.4
0 6 18 134.84 16.86
0 -6 -18 154.38 20.7
0 7 0 8.7 6.28
0 -7 -1 974.37 40.78
0 7 1 976.43 38.8
0 7 -1 978.47 38.33
0 7 2 47.22 8.24
0 7 -2 42.66 7.66
0 -7 -2 37.51 9.17
0 7 3 1058.02 43.32
0 7 -3 1116.56 42.48
0 -7 3 1193.19 46.33
0 -7 4 70.13 5.16
0 7 4 80.98 9.28
0 -7 4 75.57 4.85
0 7 4 67.56 4.96
0 7 4 105.12 10.66
0 7 4 65.67 4.62
0 -7 4 94.28 11.5
0 -7 5 1469.14 50.48
0 -7 5 1515.55 51.07
0 7 5 1668.31 55.21
0 7 5 1408.82 50.22
0 7 5 1525.7 50.99
0 7 5 1689.59 58.14
0 -7 5 1805.89 60.6
0 -7 6 16.25 8.71
0 7 6 4.54 4.13
0 -7 6 12.99 5.09
0 -7 6 12.23 4.66
0 7 6 7.84 6.84
0 7 6 9.36 5.05
0 7 7 1165.8 42.21
0 -7 7 1257.26 47.8
0 7 7 1168.68 40.79
0 -7 7 1099.7 39.54
0 7 7 1049.24 39.21
0 -7 8 26.1 9.49
0 7 8 21.88 7.19
0 -7 8 22.21 5.94
0 7 8 13.4 8.86
0 7 8 22.08 5.68
0 7 9 18.07 6.26
0 7 9 31.94 7.68
0 -7 9 18.81 8.66
0 7 9 19.97 9.51
0 -7 9 21.39 6.03
0 7 10 28.99 7.47
0 -7 10 29.13 6.88
0 7 10 34.64 10.52
0 7 10 38.62 7.38
0 7 11 34.04 7.51
0 7 11 28 10.07
0 7 12 251.51 18.42
0 7 12 213.86 13.42
0 7 13 457.61 25.87
0 7 14 -0.79 10.71
0 7 15 158.2 17.3
0 7 16 23.86 12.04
0 7 17 54.52 13.68
0 7 17 70.82 14.69
0 8 0 154.08 12.71
0 8 -1 68.9 9.33
0 8 1 54.77 9.47
0 -8 -1 75.56 11.61
0 -8 -2 142.63 14.35
0 8 -2 150.32 12.64
0 8 2 133.94 12.78
0 -8 -3 111.01 13.48
0 8 -3 107.68 11.21
0 8 3 125.59 12.62
0 8 4 376.62 21.71
0 8 -4 364.25 19.88
0 -8 -4 394.74 23.42
0 -8 4 383.36 23.24
0 -8 5 10.15 9.71
0 -8 -5 0.78 8.86
0 8 5 0.99 3.19
0 8 -5 7.38 7.24
0 8 5 11.99 9.09
0 -8 5 5.24 3.38
0 -8 5 11.55 4.02
0 8 5 1.39 3.67
0 -8 -6 797.55 36.19
0 -8 6 736.79 26.13
0 -8 6 921.01 37.03
0 -8 6 713.71 26.48
0 8 6 666.02 26.2
0 8 -6 793.87 31.18
0 8 6 689.4 25.7
0 -8 7 52.33 6.16
0 8 7 49.06 6.91
0 -8 7 75.64 12.68
0 -8 7 62.12 7.2
0 8 -7 76.38 9.63
0 8 7 44.91 5.78
0 -8 8 1000.72 36.53
0 8 -8 974.12 38.18
0 -8 8 1136.17 45.29
0 -8 8 923.99 35.1
0 8 8 957.6 36.33
0 -8 9 91.92 8.6
0 8 9 105.68 13.48
0 -8 9 125.1 14.47
0 -8 9 81.88 9.52
0 8 -9 104.65 10.29
0 8 9 90.82 9.65
0 8 -10 228.47 14.01
0 8 10 229.54 14.61
0 -8 10 216.08 18.39
0 8 10 241.73 17.97
0 -8 10 200.67 12.96
0 -8 10 234.96 14.43
0 8 -11 124.48 10.81
0 8 11 123.07 12.35
0 -8 11 150.74 16.34
0 -8 11 140.28 12.33
0 8 11 115.69 14.54
0 8 12 32.09 11.47
0 -8 12 12.32 8.49
0 -8 12 10.24 10.86
0 8 12 16.48 8.52
0 -8 13 25.12 9.15
0 8 13 23.12 9.51
0 8 13 15.62 11.64
0 -8 14 11.27 9.74
0 8 14 15.67 10.17
0 8 14 1.7 11.48
0 8 15 1.77 12.18
0 -8 15 -3.57 10.06
0 8 15 15.45 9.76
0 8 16 107.23 15.08
0 8 16 137.83 18.61
0 -8 16 135.05 15.44
0 9 0 -3.22 7.63
0 9 -1 32.58 8.7
0 9 1 32.48 9.5
0 -9 -2 184.4 17.11
0 9 2 216.19 16.52
0 9 -2 201.76 15.06
0 -9 -3 113.54 14.76
0 9 3 111.4 13.38
0 9 -3 124.36 12.14
0 9 -4 37.96 9.43
0 -9 -4 13.99 10.19
0 9 4 27.14 10.24
0 9 5 199.66 17.32
0 9 -5 224.51 15.88
0 -9 -5 247.27 19.62
0 -9 5 245.03 19.38
0 -9 6 56.36 5.27
0 9 -6 82.2 10.89
0 9 6 99.51 13.27
0 -9 -6 92.49 14.21
0 -9 6 99.5 13.95
0 -9 6 51.84 4.79
0 -9 7 47.27 5.53
0 9 -7 62.22 9.98
0 -9 7 50.68 6.49
0 -9 -7 48.43 13.02
0 -9 7 72.84 13.3
0 -9 8 40.72 11.51
0 9 -8 43.83 9.51
0 -9 -8 55.41 13.66
0 -9 8 37.65 6.79
0 -9 8 32.35 6.15
0 -9 9 1.84 6.31
0 9 -9 5.06 7.52
0 9 9 11.52 10.77
0 -9 9 4.64 10.58
0 -9 10 35.78 8.05
0 9 10 32.62 11.82
0 9 -10 42.88 8.85
0 -9 10 38.44 12.49
0 -9 11 -3.32 7.59
0 9 11 10.27 10.9
0 -9 11 11.87 11.22
0 9 12 5.28 12.14
0 -9 12 10.12 11.29
0 -9 12 4.75 8.25
0 -9 13 192.19 20.08
0 9 13 202.18 19.86
0 -9 13 186.94 15.1
0 -9 14 -1.89 8.79
0 -9 14 9.75 12.73
0 9 14 -6.47 12.79
0 10 0 390.72 22.62
0 10 -1 7.15 8.46
0 10 1 7.59 9.25
0 10 2 297.64 21.39
0 -10 -2 332.82 23.57
0 10 -2 357.29 20.67
0 10 3 14.47 11.01
0 -10 -3 3.81 10.86
0 10 -3 21.78 9.48
0 -10 -4 1999.61 74.91
0 10 -4 1824.16 69.6
0 10 4 1840.63 72.01
0 10 5 308.96 21.77
0 10 -5 312.29 19.76
0 -10 -5 296.11 23.24
0 10 -6 253.64 17.75
0 -10 -6 284.23 22.74
0 -10 6 289.22 22.02
0 10 6 250.13 20.39
0 -10 7 6.93 11.04
0 10 7 -7.8 11.24
0 -10 -7 15.26 12.62
0 10 -7 -6.15 8.69
0 -10 -8 222.96 21.21
0 10 -8 188.39 15.41
0 -10 8 248.45 20.58
0 -10 9 24.15 12.04
0 -10 -9 40.08 13.74
0 10 -9 31.38 9.8
0 -10 -10 191.73 20.95
0 10 10 208.78 19.48
0 -10 10 179.56 19.32
0 -10 11 49.5 13.78
0 10 11 33.74 13.21
0 -10 -11 49.08 15.28
0 -10 12 143.6 18.64
0 10 12 162.74 18.76
0 11 0 10.9 10.01
0 11 1 459.63 27.25
0 11 -1 497.64 26.97
0 11 2 5.24 11.23
0 11 -2 17.34 10.42
0 11 -3 183.63 16.82
0 11 3 162.95 17.68
0 -11 -3 200.37 20.08
0 11 4 125.38 16.86
0 -11 -4 108.89 16.96
0 11 -4 130.62 14.77
0 -11 -5 508.58 30.63
0 11 -5 470.24 25.67
0 11 5 404.8 27.19
0 11 6 58.01 13.97
0 -11 -6 33.04 14.14
0 11 -6 45.79 11.14
0 11 -7 322.74 21.52
0 11 7 384.39 25.56
0 -11 -7 379.85 27.5
0 11 -8 11.39 9.74
0 -11 8 -6.57 12.06
0 -11 -8 15.01 12.99
0 -11 9 345.74 25.78
0 -11 -9 304.58 25.96
0 11 10 -2.01 12.47
0 -11 -10 -7.14 13.56
0 -11 10 2.25 12.84
0 12 0 62.85 13.61
0 12 1 13.18 11.67
0 12 -1 1.81 10.56
0 12 -2 383.74 25.17
0 12 2 406.85 26.66
0 12 3 36.96 13.49
0 12 -3 22.65 11.65
0 12 4 272.65 22.54
0 12 -4 213.82 19.16
0 12 -5 190.49 18.36
0 12 5 184.23 20.2
0 -12 -5 198.38 21.49
0 -12 -6 290.68 25.57
0 12 -6 293.57 21.75
0 12 6 324.16 25.09
-1 0 21 365.26 27.44
-1 0 20 -9.62 14.09
-1 0 19 5.49 12.16
-1 0 18 -4.28 11.42
-1 0 17 140.55 16.43
-1 0 16 4.59 10.2
-1 0 15 726.83 34.31
-1 0 14 5.35 8.89
-1 0 13 510.04 26.1
-1 0 12 8.12 8.24
-1 0 12 0.38 3.17
-1 0 11 1369.05 45.45
-1 0 10 1.92 3.22
-1 0 10 5.98 5.74
-1 0 10 5.87 3.09
-1 0 9 1647.05 53.61
-1 0 9 1738.71 58.34
-1 0 9 1614.8 54.29
-1 0 8 3.25 5.01
-1 0 8 2.17 2.64
-1 0 7 2008.58 65.07
-1 0 7 1874.79 61.46
1 0 -6 -0.55 4.55
-1 0 6 -2.33 4.42
-1 0 5 592.88 23.75
1 0 -5 651.13 23.93
1 0 -4 0.81 4
-1 0 4 -1.06 4.38
1 0 -3 2731.54 88.7
-1 0 3 2710.38 88.67
-1 0 2 2.47 3.99
1 0 -2 0.98 3.12
1 0 -2 -0.82 3.61
1 0 -1 3231.54 104.74
-1 0 1 3265.74 104.69
1 0 0 -2.02 3.74
-1 0 0 -0.78 3.75
1 0 1 36.95 4.88
-1 0 -1 48.44 4.94
-1 0 -2 0.89 4.15
1 0 2 4.33 4.21
1 0 3 9999 315.81
-1 0 -3 9885.27 315.62
1 0 4 2.8 4.67
-1 0 -5 2300.85 78.16
1 0 5 2414.49 79.09
-1 0 -6 8.5 5.48
1 0 6 2.99 5.15
-1 0 -7 656.71 26.84
1 0 7 714.24 28.17
-1 0 -7 693.79 26.27
-1 0 -8 -0.35 5.76
1 0 8 8.12 6.15
-1 0 -8 5.69 5.17
-1 0 -9 153.49 10.2
-1 0 -9 161.13 11.48
-1 0 -10 -3.86 6.79
-1 0 -10 -3.2 5.38
-1 0 -11 278.56 14.72
-1 0 -12 -3.52 6.31
-1 0 -13 20.67 7.19
-1 0 -14 3.44 6.7
-1 0 -15 5.15 7.04
1 0 16 -6.8 10.04
1 0 17 439.1 26.84
1 0 18 11.56 11.78
1 0 19 388.82 27.11
1 0 20 -2.15 12.15
1 -1 -21 35.31 16.66
-1 1 21 -15.5 15.2
-1 1 20 126.68 17.73
1 -1 -20 126.81 19.23
1 -1 -19 24.66 14.7
-1 1 19 14.57 13.29
1 -1 -18 68.61 16.13
-1 1 18 58.06 13.44
-1 1 17 34.02 11.82
-1 1 16 70.07 13.15
-1 1 15 50.22 11.71
-1 1 14 192.54 16.21
-1 1 13 19.33 9.86
-1 1 13 29.75 5.66
-1 1 12 979.77 34.83
-1 1 12 1234.47 43.92
-1 1 12 1203.39 37.59
-1 1 11 1.41 3.07
-1 -1 11 4.12 3.82
-1 1 11 1.28 4.44
-1 -1 10 700.19 25.71
-1 1 10 701.29 25.8
-1 1 10 767.05 29.6
-1 -1 9 320.89 13.44
-1 1 9 306.86 13.3
-1 1 9 326.14 15.97
-1 1 8 509.63 21.04
-1 -1 8 481.88 18.56
-1 1 8 471.63 18.4
-1 -1 7 1287.89 43.08
-1 1 7 1368.3 45.46
1 -1 -7 1271.78 45.84
-1 1 7 1214.11 42.73
-1 1 6 607.1 23.84
1 -1 -6 587.73 24.13
1 1 -6 654.49 24.46
-1 -1 6 603.61 22.23
-1 1 5 174.4 9.77
-1 -1 5 167.42 8.67
1 1 -5 171.7 9.75
1 -1 -5 159.03 10.1
-1 1 4 166.72 9.35
1 1 -4 152.41 8.86
1 -1 -4 163.32 9.73
-1 1 3 1186.59 39.55
1 1 -3 1248.31 39.66
-1 1 3 1109.09 39.18
1 -1 -3 1085.22 39.07
1 1 -2 6183.2 196.72
-1 1 2 6173.35 196.78
-1 1 1 58.23 5.66
1 1 -1 54.85 5.27
1 1 -1 53.1 5.93
1 -1 -1 77.05 5.45
1 1 0 4481.39 144.59
-1 1 0 4558.81 144.53
1 1 1 2690.63 87.52
-1 -1 -1 2656.26 86.1
-1 1 -1 2685.45 87.32
-1 -1 -1 2771.66 87.43
1 1 2 2053.42 68.89
-1 1 -2 2084.42 68.69
-1 -1 -2 2124.6 68.8
1 1 3 921.8 33.01
-1 -1 -3 947.21 32.82
-1 1 -3 908.01 32.68
1 1 4 354.82 15.92
-1 -1 -4 369.57 15.67
1 1 5 3756 122.6
-1 1 -5 3654.49 121.65
-1 -1 -5 3809.43 121.66
-1 -1 -6 4128.43 130.81
-1 1 -6 3907.25 131.01
1 1 6 4021.66 131.95
-1 -1 -7 1667.96 54.81
-1 1 -7 1506.28 54.92
1 1 7 1562.36 56.14
1 1 8 1398.47 52.34
-1 1 -8 1359.68 51.18
-1 -1 -8 1553.58 50.85
-1 1 -9 108.37 9.82
-1 -1 -9 89.04 4.87
-1 -1 -9 101.45 8.5
-1 -1 -10 14.74 6.24
-1 1 -10 9.05 7.04
-1 1 -10 14.81 6.07
-1 -1 -11 -2.89 6.11
-1 1 -11 0.32 5.73
-1 1 -12 395.21 16
-1 -1 -12 556.85 21.45
-1 1 -12 537.28 20.97
-1 1 -13 0.35 6.48
-1 -1 -13 9.67 7.02
-1 1 -13 4.14 3.25
-1 -1 -14 1818.36 64.04
-1 1 -14 1817.3 63.18
1 1 16 473.01 27.34
1 1 17 81.28 14.36
1 1 18 149.62 18.06
1 1 19 3.04 11.55
1 1 20 63.01 15.99
1 -2 -20 61.04 16.56
-1 2 20 34.78 14.52
-1 -2 20 36.97 14.59
-1 2 19 201.45 19.95
1 -2 -19 199.14 21.29
-1 -2 19 176.27 19.49
1 -2 -18 124.79 18.02
-1 -2 18 88.25 15.34
-1 2 18 104.25 15.68
1 -2 -17 34.39 14.04
-1 2 17 38.52 12.76
-1 -2 17 31.87 11.72
-1 2 16 -6.08 10.8
1 -2 -16 14.88 12.63
-1 -2 16 6.94 11.2
-1 -2 15 153.02 15.43
-1 2 15 143.68 15.18
1 -2 -15 171.9 17.33
-1 2 15 146.22 10.79
-1 2 14 466.82 25.93
1 -2 -14 519.97 27.8
-1 -2 14 513.27 26.72
-1 2 14 498.09 21.44
-1 2 13 82.76 8.11
-1 2 13 95.12 12.05
-1 -2 13 105.12 12.07
1 -2 -13 113.04 13.51
1 -2 -12 181.72 15.37
-1 2 12 135.81 9.99
-1 2 12 170.37 13.98
-1 -2 12 161.47 14.24
1 -2 -11 786.23 32.69
-1 2 11 692.29 27.48
1 -2 -10 74.72 10.7
-1 -2 10 48.6 7.79
-1 2 10 65.35 6.67
-1 2 10 72.04 8.52
-1 -2 10 61.55 6.38
1 -2 -9 1774.5 63.06
-1 2 9 1637.88 59.45
-1 -2 9 1762.84 61.45
-1 -2 9 1861.07 59.68
-1 2 9 1752.62 61.46
-1 2 8 8.75 5.29
1 -2 -8 6.5 7.05
-1 2 8 13.08 4.61
-1 -2 8 9.92 4.58
-1 -2 8 10.83 5.49
1 -2 -7 649.55 26.47
-1 -2 7 654.94 24.23
-1 2 7 631.02 25.2
-1 2 7 612.93 23.91
-1 -2 7 643.39 25.42
1 -2 -6 25.33 5.6
-1 2 6 29.7 5.53
-1 -2 6 22.27 5.01
1 -2 -6 27.68 7.33
-1 -2 6 21.29 5.22
1 2 -6 26 5.5
1 2 -5 627.94 23.16
-1 -2 5 580.97 22.72
1 -2 -5 573.93 22.64
1 -2 -5 568 23.73
-1 -2 5 613.03 22.75
-1 2 5 578.12 22.74
-1 -2 4 9602.5 300.66
1 2 -4 9582.27 302.93
-1 -2 4 9643.69 303.1
1 -2 -4 9373 302.69
-1 2 4 9354.71 303.03
-1 -2 3 2456.84 77.45
-1 -2 3 2387.85 78.84
1 2 -3 2367.57 77.69
-1 2 3 2370.97 78.83
1 2 -3 2465.29 78.9
1 -2 -3 2383.44 78.72
-1 -2 2 614.16 21.05
1 2 -2 603.49 21.38
1 -2 -2 574.81 21.59
-1 -2 2 603.32 21.9
-1 2 2 600.04 21.86
1 2 -2 577.97 21.66
-1 -2 1 670.49 22.34
1 -2 -1 636.37 23.59
1 2 -1 610.69 22.5
1 2 -1 618.59 21.74
-1 2 1 617.6 22.37
-1 -2 1 664.37 23.17
-1 2 1 561.09 21.91
1 2 -1 661.86 22.61
1 -2 -1 591.37 22.39
1 2 -1 646.25 23.57
-1 -2 1 601.04 22.42
-1 2 0 4552.24 144.68
-1 -2 0 4573.14 144.28
1 -2 0 4469.57 144.38
1 2 0 4562.04 145.23
1 2 0 4496.19 144.81
1 -2 0 4362.74 144.7
-1 -2 0 4597.53 144.78
1 2 0 4566.22 145.59
-1 -2 0 4578.02 145.31
1 2 1 18.95 5.1
1 2 1 12.65 4.15
-1 2 -1 12.56 4.3
1 -2 1 12.25 4.7
1 2 1 16.2 4.84
-1 -2 -1 21.94 4.98
-1 -2 -1 14.04 4.43
1 -2 2 435.07 17.12
-1 -2 -2 427.3 16.87
-1 -2 -2 431.33 16.94
-1 -2 -2 427.94 17.45
1 2 2 443.3 17.19
1 2 2 426.55 17.7
-1 -2 -2 437.74 17.11
-1 2 -2 435.29 16.94
-1 -2 -3 41.96 5.1
-1 -2 -3 41.24 6.6
1 2 3 36.84 5.68
-1 -2 -3 41.82 5.56
1 2 3 32.14 6.13
-1 2 -3 37.23 5.31
-1 -2 -3 43.02 5.99
1 -2 3 41.2 5.5
-1 -2 -4 1126.95 40.85
-1 -2 -4 1159.03 41.44
1 2 4 1178.92 41.2
-1 -2 -4 1185.72 39.56
1 -2 4 1165.21 41.14
-1 -2 -5 4201.46 136.17
-1 -2 -5 4068.34 133.4
-1 -2 -5 4093.4 135.17
1 2 5 4236.35 135.79
1 -2 5 4275.85 135.85
-1 2 -5 4141.25 134.86
-1 -2 -5 4188.78 134.92
1 -2 6 12.21 5.59
-1 -2 -6 12.37 3.98
1 2 6 22.15 5.76
-1 -2 -6 12.13 5.54
-1 2 -6 19.02 5.78
1 2 6 13.29 5.77
-1 -2 -6 15.49 5.68
1 2 7 1256.77 46.67
1 -2 7 1333.93 47.07
-1 -2 -7 1308.72 45.53
-1 2 -7 1284.67 45.68
-1 -2 -7 1257.85 45.52
-1 -2 -7 1256.65 42.77
1 2 8 21.72 7.07
-1 -2 -8 20.25 3.64
1 -2 8 21.73 6.76
-1 -2 -8 19.17 6.38
-1 2 -8 18.44 6.52
-1 -2 -8 22.59 6.15
-1 -2 -9 1569.47 56.39
-1 -2 -9 1537.1 55.46
-1 2 -9 1628.92 56.57
1 -2 9 1613.75 58.01
1 2 9 1576.17 57.68
-1 -2 -10 20.22 6.84
-1 -2 -10 17.01 6.84
1 2 10 12.15 6.92
-1 2 -10 26.63 7.39
-1 -2 -11 584.19 25.14
-1 2 -12 84.13 8.95
-1 2 -12 86.44 6.59
-1 -2 -12 110.65 10.2
-1 2 -13 21.68 4.73
-1 -2 -13 23.58 7.76
-1 2 -13 29.5 7.36
1 2 14 -2.97 9.2
-1 2 -14 7.97 6.47
1 2 15 88.86 13.7
1 -2 15 127.05 14.9
1 2 16 27.96 11.46
1 -2 16 24.2 11.95
1 2 17 337.22 23.4
1 -2 17 307.07 23.02
1 -2 18 25.37 12.09
1 2 18 26.74 11.95
1 2 19 114.26 17.29
1 -2 19 99.91 16.36
1 -2 20 4.35 12.4
1 2 20 -4.26 12.12
1 -3 -20 116.19 19.15
-1 -3 20 95.45 16.8
-1 3 20 120.3 17.67
1 -3 -19 24 14.89
-1 3 19 -11.77 12.63
-1 -3 19 -8.26 12.73
-1 -3 18 134.01 17.14
1 -3 -18 166.19 19.55
-1 3 18 145.72 17.08
-1 3 17 56.83 13.07
1 -3 -17 79.24 15.47
-1 -3 17 39.82 13.06
-1 3 17 31.89 9.04
1 -3 -16 36.83 13.48
-1 -3 16 11.54 11.62
-1 3 16 15.13 11.32
-1 3 16 37.98 8.7
-1 3 15 397.62 23.58
-1 3 15 409.93 19.94
-1 -3 15 372.38 23.6
1 -3 -15 413.37 24.89
-1 3 14 1378.73 51.23
1 -3 -14 1562.75 57.43
-1 3 14 1339.47 54.91
-1 -3 14 1414.51 55.54
-1 3 13 -3.21 6.82
1 -3 -13 19.04 11.11
-1 3 13 7.99 8.95
-1 -3 13 13.15 9.57
-1 3 12 1152.35 44.93
1 -3 -12 1218.5 46.48
-1 -3 12 1170.36 45.31
-1 3 12 1031.58 41.32
1 -3 -11 470.16 23.68
-1 3 11 405.59 19.15
-1 3 11 391.1 21.3
-1 -3 11 412.44 21.81
-1 3 10 121.34 9.74
1 -3 -10 121.23 12.8
-1 3 10 99.73 9.94
-1 -3 10 108.1 10.01
-1 3 9 5.81 5.4
1 -3 -9 6.01 7.85
-1 3 9 5.47 5.35
-1 -3 9 4.99 5.17
1 -3 -8 -1.38 7.35
-1 3 8 4.84 5.04
-1 -3 8 4.28 5
-1 -3 8 6.6 5.13
-1 3 8 6.38 5.13
-1 -3 7 1147.95 38.86
1 -3 -7 1106.85 40.9
-1 -3 7 1140.01 39.01
-1 3 7 1059.43 38.77
1 3 -7 1157.58 38.89
1 3 -7 1005.08 34.76
-1 3 7 1046.9 38.57
-1 -3 6 843.52 29.92
1 3 -6 741.46 26.43
1 3 -6 813.38 29.77
-1 3 6 805.27 29.47
-1 -3 6 785.42 29.34
-1 3 5 88.02 7.31
-1 -3 5 87.82 7.34
1 3 -5 85.09 5.53
1 3 -5 91.8 7.17
1 3 -5 89.74 8.03
1 -3 -5 88.48 6.99
-1 -3 5 99.92 7.86
-1 -3 4 2838.94 93.04
1 3 -4 2838.24 91.88
1 -3 -4 2788.28 92.83
1 3 -4 2896.58 94.01
-1 3 4 2828.04 93.03
1 3 -4 2884.09 93.08
1 3 -3 14.23 4.02
-1 -3 3 8.85 3.66
-1 3 3 7.32 4.06
1 3 -3 9.36 4.04
1 -3 -3 9.57 3.96
1 3 -3 16.61 5.61
-1 -3 3 10.4 4.32
1 -3 -2 109.26 6.83
-1 -3 2 104.82 6.91
1 -3 -2 115.43 8.87
1 3 -2 99.63 7.06
-1 3 2 96.41 6.66
1 3 -2 123.2 8.53
-1 -3 2 110.62 8.03
1 3 -2 107.15 6.8
-1 -3 2 124.82 7.13
1 3 -2 101.85 7.49
1 3 -1 19.28 4.77
1 -3 -1 22.11 6.02
1 3 -1 41.79 5.7
-1 3 1 10.03 4.09
1 -3 -1 17.66 4.03
-1 -3 1 17.38 4.15
1 3 -1 20.79 3.88
-1 -3 1 38.05 5.78
1 3 -1 34.02 5.1
-1 -3 1 40 5.22
-1 3 1 10.09 4.85
1 3 -1 16.66 5.93
1 3 0 5051.78 161.98
-1 3 0 5136.64 162.84
1 -3 0 5026.21 161.89
-1 -3 0 5030.48 161.92
1 3 0 5215.82 163.37
-1 3 0 4943.14 161.79
-1 -3 0 5273.08 163.73
-1 -3 0 5057.07 162.94
1 3 0 5060.32 164.18
1 -3 1 127.88 8.48
-1 -3 -1 124.68 7.39
-1 3 -1 125.57 7.3
1 3 1 127.02 7.5
1 3 1 146.85 9.06
1 -3 1 128.36 7.38
-1 -3 -1 161.15 8.95
1 3 2 4777.82 156.01
1 3 2 4975.26 156.11
-1 -3 -2 4755.93 155.25
1 3 2 4963.81 157.1
-1 3 -2 4780.15 155.17
1 -3 2 4868.96 155.41
1 3 2 4824.79 155.48
-1 -3 -2 4805.2 156.4
-1 -3 -2 4919.66 156.33
-1 -3 -3 623.19 23.96
-1 -3 -3 648.89 24.97
1 -3 3 635.9 24.19
1 3 3 609.16 24.85
-1 -3 -3 683.98 24.62
1 3 3 637.33 25.4
1 3 3 663.79 24.2
1 3 3 641.79 24.22
-1 -3 -4 278.94 14.47
-1 -3 -4 277.98 13.72
-1 -3 -4 285.31 12.93
-1 -3 -4 270.5 12.7
-1 3 -4 274.44 12.71
1 -3 4 286.07 13.46
1 3 4 271.26 13.42
-1 -3 -5 750.23 29.57
-1 -3 -5 727.8 28.49
1 -3 5 738.68 28.38
-1 -3 -5 718.25 27.5
-1 3 -5 740.08 27.63
-1 -3 -5 757.34 27.2
1 3 5 726.58 28.33
-1 -3 -6 16.06 7.76
1 3 6 11.86 5.59
1 -3 6 12.05 5.67
-1 3 -6 16.96 5.48
-1 -3 -6 11.29 5.6
-1 -3 -6 20.6 5.76
-1 -3 -6 9.99 4.47
-1 3 -7 30.85 6.45
-1 -3 -7 24.34 4.65
-1 -3 -7 25.24 6.36
-1 -3 -7 37.6 8.55
1 -3 7 19.04 5.9
-1 -3 -7 32.19 6.53
1 3 7 25.63 6.55
1 3 7 30.99 6.96
-1 -3 -8 84.55 10.63
-1 -3 -8 59.42 8.06
1 -3 8 77.7 8.72
-1 3 -8 82.11 8.37
-1 -3 -8 69.06 8.15
1 3 8 66.85 8.67
1 3 8 68.23 8.53
1 -3 9 98.58 9.97
-1 -3 -9 122.64 12.64
1 3 9 96.41 10.16
-1 -3 -9 99.51 9.8
-1 3 -9 90.87 9.52
1 3 9 99.63 10.39
-1 -3 -9 91.72 9.43
-1 -3 -10 320.14 19.85
1 3 10 327.05 18.42
-1 3 -10 327.78 17.45
1 3 10 322.72 18.43
-1 -3 -10 334.27 17.16
-1 -3 -10 268.82 16.65
1 -3 10 333.62 18.75
-1 -3 -11 270.58 18.63
-1 -3 -11 247.75 15.07
1 -3 11 249.46 16.89
1 3 11 213.6 15.95
-1 -3 -12 17.57 10.96
1 -3 12 9.23 8.73
1 3 12 16.05 8.57
-1 3 -13 -3.51 4.92
1 3 13 9.75 8.75
-1 -3 -13 13.57 11.8
1 -3 13 -2.14 8.46
1 3 14 94.6 13.14
1 -3 14 108.02 13.94
1 3 15 -2.39 9.68
1 -3 15 -4.9 9.49
1 -3 16 365 24.06
1 3 16 375.07 23.96
1 -3 17 22.17 11.81
1 3 17 10.83 11.01
1 3 18 76.35 14.81
1 -3 18 67.57 14.93
1 3 19 6.06 12.18
1 -3 19 2.06 12.08
-1 -4 19 103.58 16.55
1 -4 -19 106.44 18.61
-1 4 19 110.12 17.01
-1 4 19 40.36 10.74
1 -4 -18 6.94 13.91
-1 4 18 11.95 12.06
-1 4 18 10.35 9.28
-1 -4 18 -1.73 12.73
1 -4 -17 344.24 25.51
-1 -4 17 348.54 23.19
-1 4 17 318.46 19.42
-1 4 17 327.63 23.1
1 -4 -16 64.56 15.01
-1 -4 16 81.95 13.74
-1 4 16 57.61 12.31
-1 4 16 81.96 11.47
1 -4 -15 41.62 13.22
-1 4 15 26.77 10.5
-1 -4 15 25.89 10.72
-1 4 15 9.97 2.26
-1 4 15 17.85 8.74
1 -4 -14 127.75 15.69
-1 -4 14 122.42 13.81
-1 4 14 98.56 11.15
-1 4 14 119.77 13.64
-1 4 14 70.21 5.95
-1 4 13 240.79 15.37
-1 -4 13 234.46 17.33
1 -4 -13 258.67 19.32
-1 4 13 245.58 17.51
-1 4 12 356.48 20.36
1 -4 -12 393.52 22.92
-1 4 12 331.32 18.49
-1 -4 12 361.71 20.58
-1 -4 11 327.03 19.03
-1 4 11 326.1 18.81
1 -4 -11 355.18 21.13
-1 4 11 328.1 17.72
1 -4 -10 4.09 8.71
-1 4 10 -10.24 6.45
-1 -4 10 -5.35 8.04
-1 4 10 3.34 7.65
-1 4 10 2.66 6.47
-1 -4 10 -0.4 6.01
1 4 -10 0.37 6.14
-1 4 9 1070.19 38.06
-1 -4 9 1032.36 37.86
-1 4 9 1034.71 38.54
1 4 -9 952.64 32.98
1 4 -9 1097.96 38.21
-1 -4 8 473.19 20.38
-1 4 8 494.95 20.56
1 4 -8 457.39 16.98
-1 4 8 434.35 20.92
1 4 -8 529.64 21.31
1 4 -7 412.11 18.04
1 4 -7 381.51 14.49
-1 -4 7 377.76 17.1
-1 4 7 365.09 17.01
-1 4 7 339.73 17.54
1 4 -6 683.45 26.67
-1 -4 6 684.09 25.66
1 4 -6 648.71 23.77
-1 -4 6 650.31 26.84
-1 4 6 645.37 25.52
-1 -4 5 1843.19 62.57
-1 4 5 1849.09 61
1 4 -5 1827.92 62.37
-1 -4 5 1785.43 61.02
1 4 -5 1743.71 59.95
1 -4 -4 195.94 10.32
1 4 -4 224.24 10.69
-1 4 4 213.13 10.57
-1 -4 4 216.58 10.6
1 4 -4 217.58 10.66
1 4 -4 222.05 12.44
1 -4 -3 2759.42 93
1 -4 -3 2667.89 88.68
-1 4 3 2676.42 88.93
-1 -4 3 2728.47 89.03
1 4 -3 2801.84 88.94
1 4 -3 2751.44 89.81
1 4 -3 2810.91 91.37
1 4 -3 2682.93 90.85
-1 -4 2 3189.7 105.25
-1 4 2 3161.86 105.1
1 -4 -2 3216.39 109.06
-1 -4 2 3241.66 107.95
1 4 -2 3331.53 107.82
1 -4 -2 3225.73 104.91
1 4 -2 3360.3 106.84
1 4 -2 3342.55 105.09
1 4 -2 3117.98 107.13
-1 -4 2 3439.87 106.5
1 -4 -1 3484.95 115.14
1 4 -1 3460.78 113.68
1 4 -1 3593.48 113.24
-1 -4 1 3436.67 111.05
1 -4 -1 3412.87 110.77
-1 4 1 3255.98 113.21
1 4 -1 3534.55 114.84
-1 -4 1 3464.62 114.05
-1 -4 1 3694.44 113.02
-1 4 1 3369.84 110.87
1 4 -1 3426.98 110.88
-1 -4 0 3602.66 112.43
1 4 0 3515.16 112.83
-1 4 0 3408.96 110.14
-1 -4 0 3383.19 112.9
1 4 0 3513.99 114.05
-1 -4 0 3441.64 113.26
-1 4 0 3443.13 112.71
1 -4 0 3393.71 110.21
-1 -4 0 3388.59 110.22
1 4 0 3363.36 110.28
1 -4 1 273.38 13.62
1 -4 1 235.59 10.88
1 4 1 268.11 13.3
-1 -4 -1 250.05 13.26
-1 4 -1 273.71 11.08
-1 -4 -1 261.11 11.04
1 4 1 238.91 10.89
-1 -4 -1 250.5 13.23
1 4 1 236.72 14.17
1 4 2 40.78 5.02
1 -4 2 37.53 6.37
1 4 2 41.5 7.21
1 -4 2 37.71 4.99
-1 -4 -2 41.85 6.24
-1 -4 -2 36.99 4.75
-1 4 -2 37.65 4.76
1 4 2 37.58 6.72
1 4 2 34.13 6.26
1 4 3 470.4 21.1
1 4 3 494.56 19.57
-1 -4 -3 493 20.92
-1 -4 -3 499.89 20.72
1 4 3 490.77 21.5
1 4 3 519 20.53
1 -4 3 473.75 21.16
1 -4 3 495.91 19.56
1 -4 4 168.69 10.22
-1 4 -4 186.87 9.77
-1 -4 -4 173.23 10.54
1 4 4 184.39 10.4
-1 -4 -4 201.75 11.73
1 4 4 186.25 11.85
-1 -4 -4 171.98 9.62
1 4 4 176.11 10.43
1 4 4 163.88 11.65
-1 -4 -5 1115.36 39.34
1 -4 5 1157.93 40.41
-1 4 -5 1072.99 39.22
-1 -4 -5 1143.57 41.25
1 4 5 1106.93 40.22
1 4 5 1109.45 39.56
-1 -4 -6 175.24 11.48
-1 -4 -6 144.82 12.5
1 -4 6 156.26 10.64
-1 -4 -6 151.52 9.86
-1 4 -6 157.02 9.97
1 4 6 161.66 9.64
1 4 6 152.04 10.67
1 4 7 2106.97 73.96
1 4 7 2219.45 75.37
-1 4 -7 2114.36 72.92
-1 -4 -7 2253.54 76.11
-1 -4 -7 2126 74.03
-1 -4 -7 2073.92 72.74
1 -4 7 2172.85 74.3
-1 -4 -8 90.71 9.34
-1 4 -8 83.07 9.03
1 -4 8 99.08 9.7
1 4 8 95.92 9.64
-1 -4 -8 103.09 12.29
-1 -4 -8 85.13 9.39
1 4 8 86.98 10.13
-1 -4 -9 767.36 32.09
1 -4 9 679.84 29.5
-1 -4 -9 669.76 28.39
1 4 9 683.68 29.6
-1 -4 -9 675.13 28.72
-1 4 -9 661.26 28.3
1 4 9 708.31 30.3
1 4 10 13.76 7.24
-1 -4 -10 25.33 7.79
-1 -4 -10 20.21 10.43
1 -4 10 12.5 7.69
-1 4 -10 22.84 7.99
1 4 10 16.79 8.8
1 4 11 199.87 15.27
-1 -4 -11 218.48 17.74
1 -4 11 195.98 15.26
1 4 11 237.53 16.18
-1 4 -12 888.96 35.01
-1 -4 -12 1076.48 42.95
1 -4 12 909.23 40.15
1 4 12 923.67 40.06
1 4 12 1069.42 40.59
1 4 13 259.02 18.02
1 -4 13 245.37 18.06
-1 -4 -13 326.93 21.6
-1 4 -13 218.62 13.04
1 -4 14 10 9.21
1 4 14 2.25 8.9
-1 -4 -14 20.79 13.18
1 -4 15 221.15 18.29
-1 -4 -15 257.05 21.19
1 4 15 204.3 18.15
-1 -4 -16 35.25 14.36
1 -4 16 -2.61 10.31
1 4 16 11.93 10.75
-1 -4 -17 131.86 18.5
1 4 17 72.29 14.59
1 -4 17 80.28 14.49
-1 -4 -18 10.15 14.27
1 -4 18 -10.77 11.6
1 4 18 2.88 11.82
1 4 19 51.82 14.44
-1 -4 -19 55.93 16.89
1 -4 19 38.36 14.07
1 -5 -19 3.21 14.29
-1 5 19 5.78 10.23
-1 5 19 13.88 13.25
-1 -5 19 -1.86 13.16
-1 -5 18 47.48 13.41
1 -5 -18 37.64 15.18
-1 5 18 56 12.04
-1 5 18 33.66 12.9
1 -5 -17 35.62 14.8
-1 -5 17 21.69 12.38
-1 5 17 22.38 12.43
-1 5 17 31.74 10.53
1 -5 -16 348.07 25.11
-1 5 16 343.98 22.54
-1 5 16 318.27 20.38
-1 -5 16 332.52 22.44
1 -5 -15 29.19 13.16
-1 5 15 48.03 11.43
-1 -5 15 39.97 11.1
-1 5 15 30.61 9.72
-1 5 14 150.4 9.92
-1 5 14 233.82 17.02
-1 -5 14 232.22 16.89
-1 5 14 229.62 15.71
1 -5 -14 250.02 19.76
-1 -5 13 1.22 9.24
-1 5 13 0.61 8.88
-1 5 13 0.56 8.16
1 5 -12 603.6 25.99
-1 5 12 594.28 27.75
-1 5 12 572.46 26.99
-1 -5 12 567.63 27.49
-1 5 11 596.01 24.31
-1 -5 11 542.8 24.1
1 5 -11 619.75 23.08
-1 5 11 547.94 23.81
-1 -5 10 294.92 16.95
-1 5 10 309.89 17.19
-1 5 10 319.55 17.72
-1 -5 10 280.46 15.81
1 5 -10 343.6 16.74
1 5 -10 268.76 11.49
-1 5 10 274.04 15.7
-1 -5 9 383.92 17.91
1 5 -9 355.78 14.66
-1 5 9 375.06 17.99
1 5 -9 413.11 19.06
-1 -5 9 368.75 19.14
-1 5 9 393.43 19.66
-1 5 9 359.16 18.86
-1 5 8 678.07 29.98
-1 -5 8 726.52 28.34
-1 5 8 706.14 28.37
1 5 -8 783.57 29.88
1 5 -8 723.81 26.16
-1 -5 7 7.89 5.38
-1 5 7 11.25 5.39
1 5 -7 9.86 6.64
-1 5 7 7.84 6.47
1 5 -7 10.81 4.55
-1 5 6 1072.4 38.61
1 5 -6 1123.53 40.68
1 5 -6 1039.55 37.92
-1 -5 6 1101.65 38.77
1 5 -5 144.75 9
-1 5 5 126.97 8.17
-1 -5 5 139.76 8.48
1 5 -5 152.36 11.14
-1 5 4 731.01 27.02
1 5 -4 811.86 30.39
1 -5 -4 753.81 32.34
-1 -5 4 744.25 27.14
1 5 -4 729.78 28.33
1 5 -4 744.68 30.07
-1 5 3 43.09 4.92
1 -5 -3 58.51 8.72
1 5 -3 57.54 6.9
1 5 -3 53.15 4.96
1 5 -3 64.1 8.15
1 -5 -3 43.37 4.69
-1 -5 3 43.52 5.07
1 5 -3 46.95 7.62
1 -5 -2 455.18 22.17
1 5 -2 479.67 16.98
1 5 -2 449.55 20.65
1 -5 -2 461.76 16.74
1 5 -2 449.25 19.59
-1 -5 2 455.69 17.06
-1 5 2 415.41 16.72
-1 5 2 439.4 20.51
1 5 -2 471.11 20.5
1 5 -1 2.64 3.43
-1 5 1 1.5 3.13
-1 -5 1 1.3 3.16
-1 5 1 -4.81 6.06
1 5 -1 1.02 5.09
1 -5 -1 2.42 6.64
1 -5 -1 -0.26 3.14
1 5 -1 3.57 6.4
-1 5 0 172.05 11.39
-1 -5 0 171.43 8.28
1 -5 0 176.21 7.97
1 5 0 171.03 8.09
1 5 0 182.99 11.18
-1 -5 0 175.4 10.98
-1 5 0 177.3 8.14
-1 -5 0 170.12 11.68
1 5 0 175.01 12.41
1 -5 1 1021.76 38.79
1 5 1 1021.5 34.67
1 5 1 1016.13 39.52
-1 -5 -1 1015.02 37.67
1 -5 1 971.82 34.46
-1 5 -1 1038.19 34.5
-1 -5 -1 982.28 34.45
1 5 1 991.9 37.99
1 5 1 1079.37 38.19
-1 -5 -1 1046.8 38.79
-1 5 -1 1023.54 39.58
-1 -5 -2 194.43 12.9
1 5 2 192.48 12.31
1 -5 2 208.03 12.81
1 5 2 214.89 12.78
1 5 2 175.16 9.51
1 -5 2 176.36 9.32
-1 5 -2 194.34 13.49
1 5 2 216.04 12.4
1 5 3 138.2 8.83
-1 -5 -3 165.74 8.53
1 5 3 168.19 10.76
-1 5 -3 158.63 8.42
1 5 3 165.68 11.75
1 -5 3 152.03 8.88
1 -5 3 161.97 11.82
1 5 3 156.69 11.52
-1 5 -3 149.33 12.21
1 5 4 1092.45 40.68
1 5 4 1166.51 43.76
1 -5 4 1127.06 43.74
1 5 4 1196.85 41.92
1 5 4 1205.35 43.38
1 -5 4 1076.94 40.61
-1 -5 -4 1184.67 42.79
-1 -5 -4 1219.03 40.15
-1 5 -4 1137.1 39.94
-1 5 -5 362.85 15.86
1 -5 5 374.07 16.8
1 5 5 352.5 16.69
-1 -5 -5 347.79 15.67
-1 -5 -5 362.45 17.91
1 5 5 332.38 18.73
1 5 5 395.08 16.97
1 5 5 381.53 18.88
1 5 6 63.24 9.81
-1 -5 -6 64.99 8.49
-1 -5 -6 61.37 7.4
1 5 6 64.32 7.47
1 -5 6 69.45 7.66
1 5 6 78.97 8.07
-1 5 -6 66.58 7.16
1 -5 7 7.17 6.1
1 5 7 10.25 5.77
1 5 7 -0.39 5.98
-1 5 -7 2.65 5.7
-1 -5 -7 1.99 5.99
1 -5 8 1788.3 63.74
-1 5 -8 1773.55 62.65
-1 -5 -8 1722.63 62.46
1 5 8 1813.7 63.89
1 5 8 1917.02 66.29
-1 -5 -9 649.73 29.8
1 5 9 619.33 28.68
1 5 9 552.63 26.64
1 -5 9 618.25 27.25
-1 -5 -10 930.12 38.6
1 5 10 825.12 36.68
1 -5 10 813.63 35.2
1 5 10 822.05 35.34
-1 -5 -11 40.25 12.55
1 5 11 22.91 8.89
1 -5 11 29.34 9.1
1 5 11 47.05 10.54
-1 -5 -12 883.48 38.58
-1 5 -12 739.01 30.5
1 5 12 863.86 36.31
1 5 12 735.14 34.32
1 -5 12 753.97 34.47
1 5 13 56.37 11.47
-1 -5 -13 39.08 13.43
1 5 13 16.72 9.32
-1 5 -13 29.94 7.43
1 -5 13 32.68 10.17
1 5 14 11.31 9.87
-1 -5 -14 19.43 13.26
1 5 14 34.27 11.36
1 -5 14 19.94 10
-1 -5 -15 14.95 14.18
1 5 15 20.15 10.3
1 -5 15 -10.64 10.05
1 -5 16 115.12 15.58
1 5 16 81.62 14.61
1 -5 17 31.45 12.94
-1 -5 -17 45.28 16.61
1 5 17 24.66 12.11
-1 -5 -18 99.75 19.04
1 5 18 64.93 14.51
1 -5 18 85.25 15.7
-1 -6 18 47.19 14.28
-1 6 18 37.1 13.02
-1 6 18 30.59 11.79
-1 6 17 353.99 23.05
-1 6 17 413.01 25.46
-1 -6 17 374.41 24.84
-1 -6 16 67.97 13.12
-1 6 16 72.56 13.35
-1 6 16 60.92 12.48
-1 -6 15 254.34 19.35
-1 6 15 302.09 20.16
-1 6 15 289.27 19.49
-1 -6 14 -15.96 10.57
-1 6 14 -0.65 9.43
-1 6 14 4.5 9.84
-1 6 13 262.88 18.44
-1 6 13 228.38 13.56
-1 -6 13 313.47 18.74
-1 6 13 311.75 18.79
-1 6 12 -3.82 8.46
-1 6 12 -1.25 8.23
-1 -6 12 8.23 8.78
-1 -6 11 32.29 8.97
-1 6 11 32.58 9.52
-1 6 11 21.01 8.86
1 6 -11 28.44 4.67
1 6 -10 4.68 4.52
-1 -6 10 3.7 6.08
-1 6 10 -0.41 6.15
-1 -6 10 -1.38 7.32
-1 6 10 10.06 7.81
-1 6 10 10.82 8.78
-1 6 9 35.18 6.83
-1 -6 9 22.29 7.83
1 6 -9 27.58 5.31
-1 6 9 26.81 8.64
-1 -6 9 22.57 6.65
-1 6 9 26.25 7.61
-1 -6 8 366.83 18.03
-1 6 8 387.08 18.09
-1 -6 8 382.03 17.53
-1 6 8 353.65 20.01
1 6 -8 368.11 16.13
-1 6 8 356.45 17.26
-1 6 7 633.22 25.3
-1 -6 7 628.46 25.8
1 6 -7 648.35 25.11
-1 -6 7 670.71 25.67
-1 6 7 627.4 28.67
-1 6 7 625.21 25.74
-1 6 6 500.98 20.35
-1 -6 6 519.73 20.57
1 6 -6 504.08 21.16
-1 6 6 487.3 23.98
-1 6 5 1157.95 40.22
-1 -6 5 1130.67 40.23
1 -6 -5 1191.88 47.22
1 6 -5 1176.41 44.23
1 6 -5 1151.58 41.93
-1 6 4 266.85 12.1
1 -6 -4 267.54 17.87
1 6 -4 283.35 14.5
-1 -6 4 258.15 12.09
1 6 -4 296.62 16.44
1 6 -4 294.2 16.2
1 6 -3 1031.92 37.83
1 6 -3 1004.45 36.25
-1 -6 3 973.23 40.01
1 6 -3 963.59 37.32
-1 6 3 982.47 37.81
-1 6 3 905.16 32.59
-1 -6 3 912.33 32.75
1 -6 -3 995.97 40.12
1 6 -2 132.37 11.57
-1 6 2 122.59 11.58
1 6 -2 172.34 12.44
-1 -6 2 126.13 7.26
-1 6 2 122.92 6.95
1 6 -2 173.37 7.51
1 6 -2 165.15 11.4
1 -6 -2 119.47 13.03
-1 6 1 3193.3 107.62
-1 -6 1 3209.97 102.03
1 -6 -1 3135.17 101.66
-1 6 1 3187.41 101.84
1 6 -1 3098.04 106.54
1 -6 -1 3041.32 109.49
1 6 -1 3239.96 101.82
1 6 -1 3215.04 108.85
-1 -6 0 42.51 8.59
-1 6 0 30.1 8.49
-1 6 0 17.71 7.55
1 -6 0 32.82 3.86
1 6 0 30.28 8.7
1 6 0 27.2 4.11
1 6 0 52.25 7.61
-1 -6 0 16.5 4.21
-1 6 0 13.28 3.91
1 -6 1 1261.83 43.78
1 6 1 1352.27 44.05
1 6 1 1349.03 48.75
1 6 1 1272.05 48.82
1 6 1 1304.07 50.48
-1 6 -1 1384.26 50.83
-1 6 -1 1370.03 43.76
-1 -6 -1 1350.43 50.07
-1 6 -2 23.61 8.27
-1 -6 -2 23.05 7.68
1 6 2 17.14 7.79
1 6 2 31.67 4.32
1 -6 2 31.89 7.77
1 6 2 44.98 7.9
-1 6 -2 34.18 4.15
-1 -6 -2 35.27 4.39
1 6 2 32.17 7.24
1 -6 2 27.41 4.17
-1 -6 -3 1147.45 44.98
1 6 3 1173.54 43.77
-1 -6 -3 1145.48 39.12
-1 6 -3 1165.6 39.15
1 -6 3 1172.73 45.06
1 6 3 1206.84 42.97
1 -6 3 1083.81 39.41
1 6 3 1119.53 43.88
1 6 3 1164.65 39.68
-1 6 -3 1164.39 45.51
1 -6 4 115.06 7.82
-1 6 -4 113.01 7.58
1 6 4 122.06 11.53
-1 -6 -4 104.1 7.46
1 -6 4 89.77 10.71
1 6 4 117.81 10
1 6 4 103.86 7.87
1 6 4 117.12 11.34
-1 -6 -5 249.35 11.97
1 6 5 249.68 15.56
1 6 5 235.22 12.42
-1 6 -5 220.53 11.79
1 6 5 219.98 15.43
1 6 5 241.17 13.72
1 -6 5 219.11 15.38
1 -6 5 230.7 12.45
1 -6 6 14.08 6.16
1 6 6 4.86 6.02
1 6 6 11.36 6.52
1 -6 6 12.73 7.86
-1 6 -6 10.25 5.95
-1 -6 -6 2.92 5.55
1 6 7 974.8 36.22
1 -6 7 964.74 36.96
1 6 7 918.67 36.74
1 6 8 182.02 11.99
1 6 8 184.91 12.99
1 -6 8 188.45 12.92
1 -6 9 464.16 22.16
1 6 9 426.55 23.97
1 6 9 433.53 21.76
1 6 10 80.31 12.27
1 6 10 76.04 10.59
1 -6 10 89.68 10.77
1 -6 11 497.75 25.13
1 6 11 533.18 27.49
1 6 11 496.56 25.27
1 -6 12 35.78 9.9
1 6 12 27.5 9.56
1 6 12 42.53 11.67
-1 -6 -13 858.61 39.72
1 -6 13 756.45 35.85
1 6 13 866.38 38.21
1 6 13 771.1 36.14
-1 -6 -14 1.83 13.13
1 6 14 -0.79 10.91
1 -6 14 0.76 9.45
1 6 14 -4.53 9.37
-1 -6 -15 218.15 21.49
1 -6 15 154.29 16.86
1 6 15 145.59 16.74
1 6 15 203.45 18.98
-1 -6 -16 361.91 26.57
1 6 16 241.7 21.25
1 -6 16 269 21.69
-1 -6 -17 140.98 20.3
1 -6 17 118.35 16.14
1 6 17 115.42 16.65
-1 -7 17 10.9 11.52
-1 7 17 17.84 11.45
-1 7 17 23.17 12.56
-1 -7 16 357.53 23.84
-1 7 16 392.14 24.33
-1 7 16 423.69 25.15
-1 7 15 11.15 10.71
-1 -7 15 12.2 10.13
-1 7 15 29.16 11.46
-1 7 14 139.43 15.47
-1 7 14 136.14 14.87
-1 -7 14 166.84 15.37
-1 7 13 90.24 12.14
-1 -7 13 92.26 11.86
-1 7 13 73.84 9.37
-1 7 13 102.23 13.74
-1 7 12 37.05 8.04
-1 -7 12 39.25 9.85
-1 7 12 54.82 10.4
-1 7 12 64.85 11.63
-1 -7 11 -2.37 7.67
-1 7 11 -8.38 9.28
1 7 -11 5.22 4.81
-1 7 11 -3.86 7.89
1 7 -10 1044.75 38.4
-1 -7 10 1049.19 41.01
-1 -7 10 1118.29 41.21
-1 7 10 1040.72 40.62
-1 7 10 1130.01 41.5
-1 7 10 1137.89 45.18
-1 7 9 5.24 8.77
-1 -7 9 1.17 6.68
-1 -7 9 16.3 6.54
-1 7 9 13.26 6.98
-1 -7 9 3.16 8.99
1 7 -9 7.5 5.44
-1 7 9 5.61 6.02
-1 -7 8 963.21 36.97
-1 -7 8 980.75 36.8
-1 7 8 933.32 36.46
-1 -7 8 1031.28 43.8
-1 7 8 1020.95 37.26
1 7 -8 1047.2 36.95
-1 7 8 995.65 41.4
-1 7 7 1.87 8.3
-1 7 7 2.1 5.85
-1 -7 7 5.37 8.67
-1 -7 7 9.1 5.9
-1 7 7 3.23 5.04
-1 -7 7 1.53 5.32
1 7 -7 8.14 6.05
1 -7 -6 91.55 12.76
-1 7 6 83.52 7.33
-1 -7 6 76.57 7.1
-1 -7 6 92.18 7.64
-1 7 6 93.73 7.82
-1 -7 6 91.27 12.37
1 7 -6 80.77 8.66
-1 7 5 3.55 4.34
-1 -7 5 2.77 4.35
1 -7 -5 1.45 8.58
-1 -7 5 -2.39 4.78
-1 7 5 11.52 4.9
1 7 -5 6.44 6.37
-1 -7 5 8.03 8.51
-1 7 4 787.01 27.13
1 -7 -4 786.42 35.93
-1 7 4 729.67 27.02
-1 -7 4 747.1 27.16
-1 -7 4 877.91 36.51
1 7 -4 751.42 31.02
1 7 -4 905.13 34.04
-1 -7 4 750.29 27.31
1 7 -3 105.47 11.28
1 -7 -3 100.3 12.96
-1 7 3 84.94 10.85
1 7 -3 82.95 9.2
-1 7 3 78.25 5.29
-1 -7 3 80.07 5.46
-1 -7 2 2214.34 71.94
-1 7 2 2409.38 79.76
-1 7 2 2207.79 71.6
1 7 -2 2292.79 77.94
1 -7 -2 2301.88 81.85
1 -7 -1 36.87 9.95
-1 7 1 26.16 8.67
1 7 -1 31 7.44
-1 7 0 584 27.09
1 7 0 646.21 19.72
-1 -7 0 543.44 19.66
1 7 0 581.63 26.34
-1 -7 0 588.51 27.9
-1 -7 -1 36.06 8.97
1 7 1 41.33 3.43
-1 -7 -1 36.42 3.44
1 7 1 41.66 8.07
1 -7 1 38.77 3.05
1 7 2 227.41 9.65
-1 -7 -2 252.31 16.55
-1 -7 -2 243.75 9.64
1 -7 2 221.08 9.5
1 7 2 238.46 15.37
1 -7 3 163.6 13.61
1 7 3 176.02 13.3
1 -7 3 136.54 7.56
1 7 3 130.49 7.61
-1 -7 -3 167.82 13.45
1 -7 4 857.9 36.05
1 -7 4 774.72 29.1
1 7 4 809.77 34.71
1 7 4 814.23 29.26
-1 -7 -4 831.59 35.94
1 -7 5 128.65 12.46
1 7 5 115.62 12.15
1 7 5 111.32 8.41
1 -7 5 116.5 8.4
1 -7 6 1047.78 38.06
1 7 6 1022.64 38.06
1 -7 6 1053.3 43.67
1 7 6 995.47 42.59
1 7 7 98.36 10.17
1 -7 7 96.27 9.32
1 7 7 99.46 9.47
1 -7 7 96.48 11.96
1 -7 8 33.03 8.09
1 -7 8 29.75 9.53
1 7 8 33.31 8.06
1 7 8 37.94 8.44
1 7 9 96.06 13.22
1 7 9 89.58 9.94
1 -7 9 64.8 9.63
1 7 9 70.65 10.05
1 7 10 353.71 21.65
1 -7 10 294.98 17.83
1 7 10 272.22 17.52
1 -7 11 79.29 11.52
1 7 11 126.93 15.13
1 7 11 73.6 11.32
1 7 12 188.33 15.92
1 -7 12 163.92 15.62
1 7 12 243.03 19.05
1 -7 13 2.77 8.8
1 7 13 -2.09 9.08
1 7 13 1.66 11.05
1 -7 14 63.37 12.59
1 7 14 57.89 12.15
1 7 14 70.13 14.74
1 -7 15 2.39 10.34
1 7 15 -11.31 10.15
1 7 15 6.24 12.2
1 7 16 -6.92 10.65
1 7 16 0.91 12.18
1 -7 16 -3.39 10.87
-1 8 16 5.88 11.87
-1 8 16 8.03 10.77
-1 -8 16 -0.7 10.53
-1 8 15 280.11 19.84
-1 8 15 269.74 20.98
-1 -8 15 224.66 18.51
-1 8 14 8.11 11.26
-1 -8 14 3.6 9.3
-1 8 14 -3.74 9.83
-1 -8 14 12.47 12.12
-1 -8 13 148.48 17.71
-1 -8 13 138.98 13.45
-1 8 13 165.03 14.4
-1 8 13 144.02 16.19
-1 -8 12 18.76 8.83
-1 8 12 17.25 8.86
-1 -8 12 16.23 11.28
-1 8 12 16.57 11.02
-1 8 11 87.9 13.14
-1 -8 11 73.33 13.63
-1 -8 11 54.15 9.73
-1 8 11 70.31 10.33
-1 -8 10 137.39 15.78
-1 -8 10 103.75 10.25
-1 -8 10 102.61 10.35
-1 8 10 100.71 10.86
1 8 -10 119.95 9.45
-1 8 10 119.96 14.63
-1 -8 9 7.15 10.4
-1 -8 9 15.78 6.86
-1 8 9 22.88 7.4
-1 -8 9 18.15 6.61
-1 8 9 21.77 10.34
1 8 -9 14.29 6.53
1 -8 -8 8.89 10.29
-1 -8 8 -0.87 9.49
-1 -8 8 -3.21 5.74
-1 -8 8 -1.89 6
-1 8 8 0.96 6.25
-1 8 8 13.05 9.17
1 8 -8 -1.57 6.33
1 -8 -7 1146.11 47.18
-1 -8 7 1197.27 47.38
-1 8 7 983.98 36.63
-1 -8 7 1001.91 36.85
-1 8 7 1057.05 37.07
-1 -8 7 955.82 36.69
1 8 -7 1096.66 39.64
-1 -8 6 10.48 4.92
-1 -8 6 2.51 9.27
-1 8 6 4.38 5.17
1 8 -6 6.7 6.8
1 -8 -6 13.45 10.32
-1 8 6 8.69 4.83
-1 -8 6 9.9 5.01
-1 -8 5 871.23 30.97
-1 -8 5 1109.93 43.07
-1 8 5 850.55 30.99
-1 8 5 914.87 31.02
1 8 -5 953.74 36.07
-1 -8 5 843.2 31.07
1 -8 -5 994.86 42.25
-1 -8 4 98.17 13.6
-1 8 4 67.33 5.05
-1 8 4 89.06 5.47
-1 -8 4 76.32 5.45
1 8 -4 94.72 10.13
-1 -8 4 95.92 5.65
-1 8 4 110.26 12.84
1 -8 -4 126.45 15.02
1 8 -3 290.61 15.76
1 -8 -3 306.97 19.86
1 8 -2 131.44 11.48
1 -8 -2 139.11 14.84
1 8 -1 21.06 7.76
1 8 0 21.36 8
1 8 1 1340.75 53.67
-1 -8 -1 1519.73 56.26
1 8 2 390.94 22.23
-1 -8 -2 464.39 24.45
-1 -8 -3 3.59 8.68
1 -8 3 3.91 2.95
1 8 3 11.18 3.21
1 8 3 6.21 8.23
1 -8 4 535.89 25.8
-1 -8 -4 494.43 25.46
1 -8 4 371.77 15.77
1 8 4 417.44 16.14
1 8 4 460.11 23.5
-1 -8 -5 100.6 13.35
1 -8 5 130.81 14
1 -8 5 86.44 7.26
1 8 5 85.84 7.39
1 8 5 90.21 11.77
-1 -8 -6 123.49 14.42
1 8 6 125.84 13.76
1 -8 6 128.2 13.89
1 -8 6 111.2 8.89
1 8 6 106.77 8.83
1 -8 7 83.91 12.41
1 -8 7 85.79 8.54
1 8 7 78.47 8.66
1 -8 8 11.64 6.83
1 8 8 3.27 6.63
1 -8 8 1.62 8.94
1 -8 9 562.89 28.91
1 8 9 498.57 24.03
1 -8 9 522.89 23.97
1 8 10 4.72 7.89
1 -8 10 15.2 10.3
1 8 10 9.05 10.98
1 -8 10 6.3 7.93
1 -8 11 360.63 20.19
1 8 11 357.71 23.81
1 8 11 355.05 20.28
1 -8 11 334.9 23.17
1 8 12 14.84 11.99
1 -8 12 17.97 9.34
1 8 12 7.51 9.28
1 8 13 165.58 18.94
1 -8 13 146.03 14.41
1 8 13 128.07 14.72
1 8 14 16.74 12.87
1 -8 14 5.02 9.6
1 8 14 10.95 10.16
1 8 15 52.07 15.27
1 -8 15 35.25 11.65
1 8 15 43.94 12.35
-1 -9 14 36.61 13.73
-1 9 14 26.87 12.89
-1 -9 14 21.05 10.24
-1 -9 13 27.66 9.5
-1 -9 13 38.11 14.13
-1 9 13 36.74 12.9
-1 -9 12 6.33 11.47
-1 -9 12 10.02 8.68
-1 9 12 -11.39 12.83
-1 -9 11 36.84 12.77
-1 -9 11 28.4 8.44
-1 9 11 26.14 12.29
1 -9 -10 337.1 24.58
-1 -9 10 303.79 22.78
-1 9 10 305.31 21.85
-1 -9 10 263.7 15.66
1 -9 -9 42.33 13.14
-1 -9 9 43.59 12.44
1 9 -9 46.47 8.42
-1 -9 9 31.33 7.38
-1 9 9 58.79 12.96
-1 -9 8 180.37 11.62
-1 -9 8 250.26 19.77
-1 9 8 199.69 17.73
1 9 -8 225.4 14.36
1 -9 -8 238.22 20.55
1 -9 -7 53.54 12.89
-1 -9 7 40.6 6.17
-1 -9 7 61.6 13.11
1 9 -7 74.73 9.73
1 -9 -6 105.97 15.27
-1 -9 6 94.21 14.31
1 9 -6 89.84 10.69
-1 -9 6 72.3 6.1
1 -9 -5 7.5 10.56
-1 -9 5 6 3.28
-1 9 5 16.19 10.4
1 9 -5 16.3 8.82
-1 9 4 189.52 16.87
1 9 -4 185.73 14.19
1 -9 -4 226.22 19.02
1 -9 -3 3.6 10
-1 9 3 2.98 9.81
1 9 -3 8.09 8.45
-1 9 2 334.81 21.65
1 9 -2 371.31 20.55
1 -9 -2 395.39 24.7
1 9 -1 46.86 9.66
1 9 0 131.92 12.7
1 9 1 13.19 8.38
1 9 2 530.05 27.32
-1 -9 -2 584.54 29.63
1 9 3 218.6 17.09
-1 -9 -3 247.78 19.29
-1 -9 -4 717.36 33.63
1 9 4 570.8 30.25
1 -9 5 298.38 12.28
1 -9 5 476.44 24.66
1 9 5 411.15 22.63
1 -9 5 290.1 12.59
-1 -9 -5 496.99 25.21
1 -9 6 376.29 16.49
1 -9 6 510.5 26.76
1 -9 6 374.53 15.64
1 9 6 441.33 24.91
-1 -9 -6 529.42 27.17
-1 -9 -7 201.42 18.25
1 9 7 193.21 17.45
1 -9 7 265.76 19.18
1 -9 7 158.69 9.83
1 -9 7 169.7 10.9
1 -9 8 85.29 9.44
1 -9 8 146.28 16.23
1 -9 9 26.93 8.09
1 -9 9 37.5 11.95
1 -9 10 585.48 32
1 9 10 579.2 31.83
1 -9 10 576.67 25.92
1 -9 11 26.68 8.89
1 9 11 28.65 13.18
1 -9 11 -0.97 10.76
1 -9 12 176.16 19.23
1 -9 12 192.54 15.87
1 9 12 259.49 21.98
1 -9 13 8.27 12.01
1 9 13 2.91 12.45
1 -9 13 -3.87 9.37
1 -9 14 104.13 16.9
1 9 14 129.44 18.31
1 -9 14 131.18 14.74
-1 10 12 48.55 14.56
1 -10 -12 57.95 15.16
-1 -10 12 57.94 14.52
1 -10 -11 226.37 22.85
-1 -10 11 190.62 20.47
-1 10 11 208.67 20.51
-1 -10 10 15.99 12.29
1 -10 -10 -1.13 12.37
-1 10 10 20.06 12.96
1 -10 -9 111.86 17.05
-1 -10 9 94.06 16.13
-1 10 9 98.27 15.84
-1 -10 8 68.2 14.65
1 10 -8 71.45 10.48
1 -10 -8 44.2 14.39
-1 -10 7 328.3 24.04
1 10 -7 317.28 18.88
1 -10 -7 353.6 25.59
1 10 -6 259.52 17.42
1 -10 -6 303.24 23.49
1 10 -5 376.98 21.71
1 -10 -5 441.08 27.63
-1 10 5 397.67 25.26
1 10 -4 272.43 18.22
-1 10 4 250.04 20.08
-1 10 3 94.32 14.08
1 10 -3 99.96 11.95
-1 10 2 118.11 15.5
1 10 -2 131.88 13.57
-1 10 1 571.69 29.94
1 10 -1 559.16 27.98
1 10 0 17.2 9.28
-1 10 0 10.16 9.96
1 10 1 715.4 33.51
-1 -10 -2 32.08 11.87
1 10 2 42.65 10.83
1 10 3 597.92 31.66
-1 -10 -3 731.29 34.93
-1 -10 -4 51.42 12.96
1 10 4 42.85 11.8
-1 -10 -5 0.95 10.78
1 10 5 6.53 10.76
1 -10 6 22.9 11.97
-1 -10 -6 55.33 13.84
1 10 6 35.43 12.26
-1 -10 -7 149.95 17.64
1 -10 7 154.25 17.28
1 10 7 114.2 15.91
-1 -10 -8 308 24.29
1 -10 8 307.22 22.65
1 10 8 261.48 21.82
-1 -10 -9 5.24 12.52
1 -10 9 21.73 12.58
-1 -10 -10 85.71 16.31
1 -10 10 61.78 14.27
1 -10 11 20.94 12.19
1 10 11 32.89 14.62
1 -10 12 7.62 12.45
1 10 12 8.15 13.55
1 -11 -10 143.6 19.92
-1 -11 10 185.87 20.25
-1 11 10 122.87 18.64
-1 -11 9 6.88 13.06
-1 11 9 22.81 14.43
1 11 -7 7.57 9.26
-1 11 6 847.7 41.03
1 11 -6 804.83 36.2
-1 11 5 16.24 12.89
1 11 -5 -1.39 9.64
-1 11 4 330.36 23.6
1 11 -4 285.82 19.79
-1 11 3 33.82 13
1 11 -3 34.01 11.39
-1 11 2 112.71 15.68
1 11 -2 79.95 13.1
-1 11 1 7.1 11
1 11 -1 8.46 9.51
-1 11 0 106.74 14.98
1 11 0 114.94 13.87
-1 11 -1 157.07 16.4
1 11 1 145.99 15.46
-1 11 -2 603.65 31.22
1 11 2 595.54 30.93
-1 -11 -3 49.1 14.16
-1 11 -3 45.82 11.78
1 11 3 45.06 13.1
-1 11 -4 590.66 30.77
1 11 4 581.51 31.95
-1 -11 -4 668.02 34.58
-1 -11 -5 46.26 13.82
1 11 5 43.94 13.34
-1 -11 -6 98.88 16.77
1 11 6 43.5 14.23
-1 -11 -7 7.64 12.68
1 11 7 6.65 12.71
1 -11 8 323.93 25.41
1 11 8 343.93 25.11
-1 -11 -8 340.42 26.03
-1 -11 -9 142.16 19.22
1 -11 9 100.84 16.64
-1 12 6 60.99 16.48
1 12 -6 74.05 12.83
-1 12 5 23.31 14.95
1 12 -5 11.36 10.88
-1 12 4 30.9 14.4
1 12 -4 28.39 11.86
-1 12 3 32.25 13.83
1 12 -3 34.71 12.21
-1 12 2 5.93 12.83
1 12 -2 7.45 10.97
1 12 -1 162.77 16.82
-1 12 1 182.87 19.02
-1 12 0 182.53 18.57
1 12 0 157.85 16.59
-1 12 -1 265.57 21.14
1 12 1 263.91 20.89
-1 12 -2 -3.69 11.35
1 12 2 14.57 12
1 12 3 249.54 21.22
-1 12 -3 230.6 20.18
-1 -12 -4 42.22 14.32
-1 12 -4 27.69 11.75
1 12 4 32.5 13.8
-1 12 -5 378.82 25.75
1 12 5 409.07 27.64
-1 -12 -5 451.5 30.07
-2 0 20 -4.11 14.11
2 0 -20 28.06 15.62
2 0 -19 0.94 13.69
-2 0 19 -9.81 13.28
2 0 -18 833.44 38.84
-2 0 18 711.87 38.11
2 0 -17 -1.63 12.49
-2 0 17 8.08 12.53
-2 0 16 3.48 5.03
-2 0 15 -6.57 5.72
-2 0 14 200.5 11.4
-2 0 13 4.32 2.95
-2 0 13 -1.7 5.27
-2 0 12 294.55 11.46
-2 0 11 -0.55 3.39
2 0 -10 140.15 11.93
-2 0 9 -0.45 6.11
2 0 -9 3.66 6.09
2 0 -8 145.23 10.71
-2 0 8 153.8 11.21
2 0 -8 166.71 11.74
2 0 -7 7.13 5.68
-2 0 7 -0.39 5.42
2 0 -7 2.29 5.48
2 0 -6 614.78 25.39
2 0 -6 599.24 23.49
-2 0 6 626.02 25.45
2 0 -5 3.53 5.43
-2 0 5 3.8 5.42
2 0 -5 1.12 4.87
-2 0 4 3514.21 114.52
2 0 -4 3411.12 114.33
2 0 -3 -0.31 4.92
-2 0 3 7.66 5.46
2 0 -2 25.24 6.18
-2 0 2 17.22 3.36
-2 0 2 21.55 2.72
-2 0 2 19.86 5.78
-2 0 1 -3.6 5.33
2 0 -1 -2.22 5.58
-2 0 0 716.93 27.93
2 0 0 739.5 28.35
-2 0 -1 -0.61 5.14
2 0 1 3.65 5.35
-2 0 -2 1691.99 58.1
2 0 2 1662.41 58.48
-2 0 -3 -0.67 5.31
2 0 3 9.96 5.95
-2 0 -4 1177.44 42.72
2 0 4 1158.06 43.24
2 0 5 -1.68 5.91
-2 0 -5 5.97 5.68
2 0 6 713.71 29.78
-2 0 -6 694.16 28.84
2 0 7 -1.49 6.33
-2 0 -8 103.25 10.03
2 0 8 91.27 10.35
-2 0 -9 17.04 7.22
2 0 9 7.45 7.61
-2 0 -10 34.01 8.12
2 0 10 26.54 8.8
2 0 11 9.98 8.62
2 0 12 171.9 16.03
2 0 13 -6.2 9.41
2 0 14 283.56 20.93
2 0 15 1.8 10.11
2 0 16 365.51 25.24
2 0 17 -17.07 12.03
2 0 18 48.24 14.23
2 0 19 14.24 12.93
2 -1 -20 5 14.88
-2 1 20 9.24 13.53
2 -1 -19 20.66 14.26
-2 1 19 24.49 13.87
2 -1 -18 11.43 13.35
-2 1 18 19.58 13.08
2 -1 -17 497.13 27.09
-2 1 17 520.57 27.77
-2 -1 16 26.45 6.5
-2 1 16 24.09 5.47
2 -1 -16 35.85 12.49
2 -1 -15 518.96 26.56
-2 -1 15 448.53 19.42
-2 1 15 430.59 18.17
-2 1 15 455.22 17.83
2 -1 -14 22.74 11.33
-2 1 14 19.05 5.93
-2 -1 14 19.36 6.47
-2 1 14 14.08 4.93
2 -1 -13 80.28 12.29
-2 -1 13 72.75 8.04
-2 1 13 57.04 6.17
2 -1 -12 58.45 11.1
-2 -1 12 44.4 6.8
-2 1 12 34.2 5.64
2 -1 -11 25.5 9.23
-2 -1 11 39.61 6.49
-2 1 11 27.17 5.17
2 -1 -10 147.2 12.4
-2 -1 10 141.03 10.11
2 1 -10 131.21 12.13
2 -1 -9 2139.06 76.39
-2 1 9 2343.37 77.85
2 1 -9 2193.12 77.64
2 -1 -8 0.7 6.57
2 1 -8 5.49 6.01
-2 1 8 5.04 5.88
2 -1 -7 2550.95 88.93
-2 1 7 2697.74 90.2
2 1 -7 2764.02 90.44
2 -1 -6 541.07 22.16
2 1 -6 561.96 23.57
-2 1 6 553.11 23.42
-2 1 5 2448.31 82.26
2 1 -5 2410.56 82.37
-2 1 4 703.89 26.61
-2 1 4 626.23 24.29
2 1 -4 652.03 26.24
-2 1 3 977.61 35.71
2 1 -3 940.67 31.3
-2 1 3 958.8 33.4
-2 -1 3 1011.3 33.79
2 1 -3 969.76 35.56
2 1 -2 1061.7 38.41
-2 -1 2 1059.53 35.96
2 -1 -2 1037.23 35.98
-2 1 2 1029.65 38.09
2 1 -1 267.6 13.65
2 1 -1 255.72 11.09
-2 1 1 261.82 13.49
2 1 0 44.88 5.16
-2 1 0 53.25 5.7
-2 1 0 42.54 6.9
2 1 0 67.07 7.95
-2 1 -1 413.26 17.88
2 1 1 383.25 17.88
-2 1 -2 658.62 26.2
2 1 2 674.92 26.76
-2 1 -3 1423.2 51.05
2 1 3 1472.56 51.83
-2 1 -4 639.09 26.33
2 1 4 654.05 26.93
2 1 5 3258.28 109.22
-2 1 -5 3234.03 108.43
2 1 6 45.43 7.82
-2 1 -6 41.68 7.3
-2 -1 -6 36.97 7.37
-2 -1 -7 2152.77 75.66
2 1 7 2258.5 77.76
-2 1 -8 58.97 8.58
-2 -1 -8 65.28 8.8
2 1 8 42.75 8.54
2 1 9 299.87 18.18
-2 -1 -9 303.02 16.5
2 1 10 479.39 24.94
2 1 11 347.84 21.06
2 1 12 67.88 11.47
-2 -1 -13 5.84 4.16
2 1 13 3.85 8.63
2 1 14 127.76 15.54
2 1 15 32.05 11.91
2 1 16 2.84 11.55
2 1 17 204.03 20.07
2 1 18 7.31 11.98
2 1 19 81.8 16.22
-2 2 20 176.25 20.01
-2 -2 20 175.27 20.53
2 -2 -20 204.04 21.75
2 -2 -19 99.21 17.05
-2 -2 19 112.41 17.48
-2 2 19 86.2 16.08
2 -2 -18 95.84 16.22
-2 -2 18 99.32 16.21
-2 2 18 108.84 16.86
2 -2 -17 50.17 14.03
-2 -2 17 51.38 14.27
-2 2 17 59.05 13.93
-2 2 17 42.73 7.39
2 -2 -16 194.13 18.47
-2 -2 16 213.07 19.04
-2 2 16 194.85 18.65
-2 2 16 169.59 9.66
-2 2 16 210.08 11.91
2 -2 -15 94.19 14.39
-2 -2 15 53.46 8.13
-2 2 15 51.13 7.27
-2 -2 14 100.11 9.53
2 -2 -14 124.22 14.29
-2 2 14 95.22 8.52
2 -2 -13 8.57 9.54
-2 -2 13 -1.82 6.3
-2 2 13 0.94 5.58
2 -2 -12 416.64 21.83
-2 -2 12 398.3 18.08
-2 2 12 319.35 16.33
2 -2 -11 115.44 12.49
-2 -2 11 111.82 9.64
-2 2 11 100.78 8.4
2 -2 -10 117.42 11.69
2 2 -10 103.1 10.81
-2 -2 10 111.81 9.56
2 -2 -10 98.67 10.87
2 -2 -9 1.75 7.68
2 -2 -9 7.3 6.49
-2 -2 9 7.92 5.49
2 2 -9 2.78 5.95
-2 -2 9 -2.24 5.9
-2 2 9 0.46 6.03
-2 -2 8 598.01 24.54
-2 2 8 581.17 24.36
-2 -2 8 503.99 18.41
-2 -2 8 604.6 23.37
2 2 -8 578.91 24.38
2 -2 -8 563.68 24.34
2 -2 -8 566.11 24.31
2 2 -7 49.68 7.26
2 -2 -7 46.36 7.19
-2 -2 7 36.78 4.01
-2 -2 7 56.47 7.37
-2 2 7 41.12 7.21
-2 -2 7 47.79 7.67
-2 2 6 3975.45 132.77
-2 2 6 4134.01 133.51
-2 -2 6 4202.37 133.69
2 2 -6 4194.1 133.74
2 -2 -6 4110.94 133.52
-2 -2 6 3955.41 132.95
-2 -2 6 3952.49 129.57
-2 2 5 287.48 14.82
-2 2 5 288.29 15.16
-2 -2 5 315.38 15.43
2 -2 -5 296.1 15.02
2 2 -5 307.04 15.14
-2 -2 5 292.7 12.64
-2 2 4 2826.07 91.67
-2 -2 4 2765.95 91.6
-2 2 4 2646.11 90.24
2 2 -4 2798.82 91.54
2 -2 -4 2713.09 91.37
-2 -2 4 2777.85 91.06
-2 -2 4 2647.41 89.03
-2 2 3 221.79 12.56
-2 -2 3 214.44 12.35
2 -2 -3 218.29 12.33
2 2 -3 221.49 12.18
2 -2 -3 220.49 11.87
-2 -2 3 231.19 11.1
-2 -2 3 233.4 12
2 -2 -2 109.44 8.52
2 2 -2 96.89 8.4
-2 2 2 76.3 4.94
-2 -2 2 103.88 7.7
-2 -2 2 116.76 7.97
2 -2 -2 100.87 7.65
-2 2 2 114.88 8.57
-2 -2 2 98.19 8.15
2 -2 -1 3504.29 114.96
2 2 -1 3462.02 114.98
-2 -2 1 3484.63 114.04
2 2 -1 3529.65 113.81
-2 2 1 3470.01 114.65
-2 -2 1 3473.64 114.81
2 -2 0 1465.31 50.7
2 2 0 1419.28 50.59
2 2 0 1408.43 49.44
-2 -2 0 1436.7 49.94
-2 2 0 1473.99 50.37
-2 -2 0 1364.15 50.25
-2 2 0 1479.84 49.82
-2 2 -1 310.28 15.08
-2 -2 -1 305.27 15.16
2 -2 1 315.93 15.37
-2 2 -1 339.54 15.1
2 2 1 310.33 15.37
-2 -2 -2 900.44 33.67
-2 -2 -2 876.73 31.37
-2 2 -2 896.79 33.49
2 -2 2 924.46 34.09
2 2 2 902.27 34.07
-2 -2 -3 192.94 11.01
-2 -2 -3 212.55 12.4
-2 2 -3 198.17 11.79
-2 -2 -3 198.56 11.9
2 -2 3 206.58 12.45
2 2 3 209.6 12.59
2 2 4 2392.35 81.07
-2 2 -4 2363.57 80.24
-2 -2 -4 2259.65 80.26
-2 -2 -4 2430.14 80.36
2 -2 4 2366.82 80.98
2 -2 5 6.83 5.83
2 2 5 3.85 6.15
-2 2 -5 2.99 5.17
-2 -2 -5 4.85 5.5
-2 -2 -5 11.53 6.61
-2 -2 -6 825.08 32.02
-2 -2 -6 740.11 31.86
2 -2 6 859.64 33.31
2 2 6 826.7 33.09
-2 -2 -7 126.74 10.61
2 -2 7 123.74 11.17
2 2 7 139.43 11.79
-2 2 -7 112.57 10.23
-2 2 -8 2464.86 84.1
-2 -2 -8 2340.68 83.67
-2 -2 -8 2485.65 84.04
2 -2 8 2453.12 85.89
2 2 8 2480.76 85.85
-2 -2 -9 0.76 4.62
2 -2 9 -1.75 7.16
2 2 9 5.78 7.38
-2 -2 -10 347.54 15.72
2 -2 10 407.2 21.73
2 2 10 403.47 21.55
-2 -2 -11 128.34 8.53
2 -2 11 140.29 13.81
2 2 11 130.3 13.68
-2 -2 -12 456.48 18.4
2 -2 12 503.25 26.58
2 2 12 489.31 26.1
-2 -2 -13 92.65 6.64
2 -2 13 190.13 16.1
2 2 13 157.57 15.35
2 -2 14 872.2 40.38
2 2 14 875.87 40.15
2 -2 15 256.01 21.12
2 2 15 280.81 21.12
2 -2 16 380.29 25.72
2 2 16 361.34 25.14
2 -2 17 33.44 13.12
2 2 17 35.75 12.97
2 -2 18 37.19 13.64
2 2 18 47.74 14.02
-2 -2 -19 32.29 15.24
2 -2 19 43.25 14.29
2 2 19 22.83 13.66
-2 3 20 13.24 13.94
2 -3 -20 -12.31 15.43
-2 -3 20 11.27 13.91
2 -3 -19 255.41 23.28
-2 -3 19 220.78 22.1
-2 3 19 270.17 23.03
-2 3 18 63.09 15.21
2 -3 -18 89.84 16.18
-2 -3 18 86.04 15.47
-2 3 18 65.38 9.41
2 -3 -17 203.96 19.65
-2 -3 17 194.39 19.32
-2 3 17 178.58 18.54
-2 3 17 174.84 13.06
-2 -3 16 13.64 12.4
-2 3 16 20.33 12.2
-2 3 16 9.55 6.89
2 -3 -16 15.33 12.6
2 -3 -15 1102.15 43.03
-2 3 15 862.52 35.4
2 -3 -14 9.12 11.17
-2 -3 14 18.72 7.26
-2 3 14 15.98 6.96
2 -3 -13 444.55 23.88
-2 3 13 382.18 19.15
-2 -3 13 409.84 19.92
2 -3 -12 55.35 11.91
-2 -3 12 55.72 8.42
-2 3 12 52.13 7.97
2 -3 -11 1100.32 43.25
-2 -3 11 1154.15 40.78
-2 3 11 971.59 39.35
2 -3 -10 1.55 8.58
-2 -3 10 0.41 6.14
-2 -3 9 181.97 12.17
-2 3 9 147.86 12.55
2 3 -9 182.95 12.82
2 -3 -9 174.98 12.45
-2 -3 9 147.62 12.09
-2 3 8 108.47 10.26
-2 -3 8 139.98 10.55
2 3 -8 126.89 10.47
2 -3 -8 129.47 10.51
-2 -3 8 127.13 10.77
-2 3 7 1600.71 57.9
-2 3 7 1563.48 57.38
-2 -3 7 1564.52 57.36
-2 -3 7 1658.59 57.37
2 3 -7 1641.71 57.54
-2 -3 7 1616.44 53.08
2 -3 -7 1635.72 57.26
-2 3 6 130.03 11.46
-2 3 6 151.01 10.66
-2 -3 6 159.08 10.73
-2 -3 6 161.4 11
2 3 -6 171.8 11.15
2 -3 -6 138.51 10.22
-2 -3 6 151.16 7.79
-2 3 5 1535.19 56.61
-2 3 5 1614.15 56.69
-2 -3 5 1652.81 56.79
-2 -3 5 1653.72 57.73
2 3 -5 1675.63 56.68
-2 -3 5 1551.76 56.51
-2 -3 5 1600.4 53.62
2 -3 -5 1593.15 56.35
-2 -3 4 22.14 6.04
-2 3 4 28.95 7.36
-2 -3 4 19.28 6.44
2 -3 -4 26.38 6.61
-2 3 4 14.76 5.9
2 -3 -4 23.59 6.06
-2 -3 4 25.2 4.88
2 3 -4 26.62 6.1
-2 3 3 2439.5 80.1
-2 -3 3 2433.06 80.12
-2 -3 3 2424.46 80.83
2 -3 -3 2275.99 79.53
2 3 -3 2390.55 79.77
-2 -3 3 2365.67 78.32
2 3 -3 2312.57 77.23
2 -3 -3 2385.52 80.69
2 -3 -2 315.82 15.62
2 3 -2 339.42 15.81
-2 3 2 319.05 13.64
-2 -3 2 351.66 16.68
-2 -3 2 354.79 15.08
2 -3 -2 357.65 16.79
-2 3 2 311.76 15.52
-2 -3 2 321.52 15.67
2 -3 -1 1789.31 59.61
2 3 -1 1727.12 59.53
2 3 -1 1740.43 59.67
-2 -3 1 1689.27 59.91
-2 -3 1 1630.67 58.49
-2 3 1 1716.57 59.2
-2 -3 1 1754.45 59.46
2 -3 0 2865.19 93.6
2 3 0 2783.01 93.49
-2 -3 0 2771.47 93.06
2 3 0 2742.24 93.42
-2 -3 0 2737.89 93.79
-2 3 0 2846.74 93.2
-2 -3 0 2824.48 93.35
-2 -3 0 2707.86 90.79
-2 3 0 2941.35 94.07
2 3 0 2831.78 90.57
-2 -3 -1 747.95 29.68
2 -3 1 751.3 27.63
-2 -3 -1 757.33 30.07
-2 3 -1 803.65 29.65
-2 -3 -1 764.77 29.51
2 -3 1 795.43 29.87
2 3 1 748.6 29.71
-2 3 -1 815.07 30.63
-2 -3 -2 177.96 11.34
-2 3 -2 186.28 11.2
-2 -3 -2 187.77 11.33
2 -3 2 204.79 11.93
2 3 2 195.73 11.96
-2 3 -3 2125.98 70.43
-2 -3 -3 1990.94 69.15
-2 -3 -3 2033.22 70.3
-2 -3 -3 2048.84 70.36
2 -3 3 2060.85 70.97
2 3 3 2109.6 71.22
-2 -3 -4 453.62 20.79
-2 -3 -4 496.22 20.58
-2 -3 -4 443.49 20.07
-2 3 -4 473.41 20.68
-2 -3 -4 469.04 20.73
2 -3 4 474.42 21.38
2 3 4 484.34 21.58
-2 -3 -5 3633.28 119.73
2 -3 5 3650.43 120.81
-2 -3 -5 3562.06 118.89
-2 3 -5 3599.89 119.99
-2 -3 -5 3511.66 119.85
-2 -3 -5 3743.63 120.24
2 3 5 3616.41 120.94
2 3 6 874.94 35.03
-2 -3 -6 853.82 34.52
2 -3 6 843.81 34.7
-2 -3 -6 864.01 32.52
-2 -3 -6 909.64 34.42
-2 -3 -7 390.08 20.4
-2 -3 -7 387.79 19.01
-2 3 -7 422.07 19.27
-2 -3 -7 370.88 17.3
2 -3 7 385.55 20.14
2 3 7 399.99 20.58
-2 -3 -7 375.61 19.11
2 -3 8 24.35 8.4
2 3 8 25.8 7.67
-2 -3 -8 28.81 9.84
-2 -3 -8 13.81 6.96
-2 3 -8 21.15 7.34
-2 -3 -8 21.71 5.98
-2 -3 -9 387.3 21.53
-2 -3 -9 369.21 16.94
2 -3 9 356.72 20.56
2 3 9 364.27 20.62
-2 -3 -10 364.94 21.42
-2 -3 -10 333.74 15.76
2 -3 10 343.29 20.53
2 3 10 361.35 20.59
-2 -3 -11 72.85 12.93
-2 -3 -11 64.04 7.01
2 -3 11 77.79 11.45
2 3 11 62.36 10.85
-2 -3 -12 15.79 11.23
-2 -3 -12 -4.81 4.96
2 -3 12 -2.2 8.92
2 3 12 0.72 8.74
-2 -3 -13 711.84 33.71
2 -3 13 679.48 33.15
2 3 13 622.53 32.2
-2 -3 -14 134.79 17.12
2 3 14 138.4 15.43
2 -3 14 104.04 14.77
-2 -3 -15 125.33 17.06
2 3 15 84.78 14.48
2 -3 15 84.2 14.39
2 -3 16 -16.44 12.19
2 3 16 5.65 10.9
-2 -3 -17 176.67 19.73
2 -3 17 129.11 17.8
2 3 17 143.92 17.78
-2 -3 -18 6.91 14
2 -3 18 -7.46 12.48
2 3 18 -3.11 12.47
2 -4 -19 33.63 14.8
-2 4 19 33.89 14.04
-2 -4 19 28.37 14.29
-2 -4 18 54.16 14.51
2 -4 -18 35.42 14.61
-2 4 18 46.41 14.67
-2 4 18 33.2 9.32
-2 4 17 27.27 12.85
2 -4 -17 -4.4 12.74
-2 -4 17 0.89 12.25
-2 4 17 -3.42 8.3
2 -4 -16 545.36 29.6
-2 -4 16 491.22 28.85
-2 4 16 514.84 29.16
-2 4 16 466.75 23.31
-2 -4 15 65.26 12.83
2 -4 -15 62.28 13.9
-2 4 15 64.13 13.34
-2 4 15 67.67 9.99
2 -4 -14 936.64 39.96
-2 4 14 853.45 35.51
-2 4 13 8.68 7.82
-2 -4 13 9.03 7.75
-2 4 12 595.23 27.35
-2 -4 12 700.54 28.48
-2 -4 11 82.03 10.03
-2 4 11 66.87 9.4
-2 -4 10 653.92 28.09
-2 -4 9 250.84 14.9
-2 4 9 237.25 15
-2 -4 9 234.13 14.75
2 4 -9 246.24 15.2
2 -4 -9 262.77 15.29
-2 4 8 1750.75 63.83
-2 4 8 1763.62 62.36
-2 -4 8 1724.83 62.11
2 4 -8 1806.1 62.72
2 -4 -8 1732.15 62.18
-2 -4 8 1744.77 62.53
-2 4 7 439.1 22.25
-2 4 7 475.71 20.81
-2 -4 7 467.63 20.65
-2 -4 7 456.67 21.3
2 4 -7 437.28 20.69
2 -4 -7 429.35 20.3
-2 4 6 1668.25 60.99
-2 4 6 1715.51 59.97
-2 -4 6 1744.3 60
-2 -4 6 1692.64 60.77
-2 -4 6 1755.85 62.57
2 4 -6 1651.61 59.56
2 -4 -6 1683.26 59.52
-2 -4 6 1712.74 57.02
-2 4 5 605.86 27.3
-2 4 5 659.26 26.47
-2 -4 5 655.8 26.4
2 4 -5 615.3 25.83
-2 -4 5 666.36 28.68
-2 -4 5 641.55 27.23
2 -4 -5 643.23 25.92
-2 -4 5 652.77 24.2
-2 4 4 206.79 12.82
-2 -4 4 224.63 13.01
2 4 -4 238.88 12.16
2 4 -4 266.62 13.49
2 -4 -4 252.53 13.13
-2 -4 4 263.59 12.11
-2 -4 4 259.71 15.24
2 -4 -4 231.61 14.85
-2 -4 3 76.52 7.79
-2 -4 3 75 9.15
2 -4 -3 81.01 7.83
2 4 -3 70.2 7.8
-2 -4 3 58.15 6.62
-2 4 3 56.59 6.82
2 -4 -3 64.79 9.37
2 4 -3 48.19 6.39
-2 4 3 78.78 7.97
-2 -4 2 1307.91 46.73
2 -4 -2 1237.28 44.67
2 4 -2 1241.74 44.7
-2 4 2 1225.36 43.97
-2 -4 2 1303.33 44.63
2 4 -2 1257.75 45.65
-2 4 2 1300.6 44.98
-2 -4 2 1248.46 44.95
2 -4 -2 1261.62 47.08
2 -4 -1 128.87 9.69
2 4 -1 131.46 9.8
2 4 -1 143.05 11.38
2 4 -1 156.09 10.6
-2 -4 1 139.82 10.65
-2 -4 1 156.32 9.81
-2 4 1 111.81 9.32
-2 -4 1 124.88 9.6
2 -4 0 3254.78 104.96
2 4 0 3199.59 104.97
2 4 0 3111.34 103.26
-2 -4 0 3146.7 104.63
2 4 0 3164.09 106.4
2 4 0 3128.62 106.17
-2 -4 0 3073.97 106.28
-2 -4 0 3193.67 104.93
-2 4 0 3158.19 104.47
-2 -4 0 3169.75 103.85
-2 4 0 3242.67 106.78
-2 -4 -1 198.16 11.08
2 4 1 199.25 11.21
2 -4 1 198.06 11.2
-2 -4 -1 211 12.74
-2 -4 -1 191.48 11.8
2 4 1 175.62 12.68
-2 4 -1 207.15 11.42
2 4 1 201.55 13.11
-2 -4 -1 216.44 11.66
-2 4 -1 219.41 13.81
2 -4 1 205.96 11.81
2 4 1 185.59 11.57
2 4 2 2437.04 84.72
-2 -4 -2 2596.67 86.84
2 4 2 2466.6 87.39
-2 4 -2 2550.99 85.43
-2 -4 -2 2642.89 85.75
2 -4 2 2587.21 86.06
2 4 2 2532.71 86.01
2 -4 2 2540.74 85.3
-2 4 -2 2604.67 87.95
2 4 3 6.36 5.79
2 -4 3 3.35 5.31
-2 -4 -3 8.14 5.95
2 -4 3 8.66 5.12
-2 4 -3 9.24 5.48
-2 -4 -3 8.61 5.35
2 4 3 6.48 6.81
-2 -4 -4 97.45 9.07
-2 4 -4 89.47 8.56
-2 -4 -4 94.97 8.89
-2 -4 -4 82.11 8.88
2 4 4 92.87 10.46
2 -4 4 98.67 9.23
2 4 4 114.75 9.81
-2 -4 -5 12.11 7.64
2 -4 5 36.49 7.36
2 4 5 28.29 7.31
-2 -4 -5 23.3 6.65
-2 -4 -5 17.82 6.32
-2 -4 -5 24.1 7.29
2 4 5 17.46 7.88
2 4 6 697.45 29.58
-2 -4 -6 675.16 29.34
-2 -4 -6 689.1 27.97
2 -4 6 693.8 29.38
2 -4 7 30.05 7.95
2 4 7 28.95 8.2
-2 -4 -7 37.31 9.72
-2 4 -7 21.63 7.57
-2 -4 -7 18.82 7.38
-2 -4 -7 41.34 7.28
-2 -4 -8 590.65 28.14
-2 -4 -8 608.53 26.18
-2 -4 -8 590.21 24.75
-2 4 -8 582.22 25.99
2 -4 8 646.78 28.15
2 4 8 579.89 27.52
-2 -4 -9 161.57 14.81
2 -4 9 153.6 13.73
2 4 9 156.9 13.76
-2 -4 -9 144.58 10.68
-2 -4 -10 357.18 21.35
-2 -4 -10 319.7 15.98
2 -4 10 338.89 20.15
2 4 10 325.7 19.81
-2 -4 -11 -10.37 10.84
-2 -4 -11 -0.3 5.62
2 -4 11 0.69 8.51
2 4 11 9.54 7.8
-2 -4 -12 17.93 11.95
2 -4 12 14.83 9.62
2 4 12 24.74 9.81
-2 -4 -13 79.48 14.58
2 -4 13 68.91 12.33
2 4 13 55.87 12.09
-2 -4 -14 510.71 29.71
2 -4 14 511.02 28.45
2 4 14 511.38 28.44
-2 -4 -15 229.12 20.97
2 -4 15 171.87 18.48
2 4 15 180.22 18.82
-2 -4 -16 195.57 20.78
2 -4 16 189.33 19.65
2 4 16 172.12 18.59
-2 -4 -17 90.57 17.06
2 -4 17 50 14.31
2 4 17 41.81 14.4
-2 -4 -18 87.86 17.58
2 -4 18 53.32 14.89
2 4 18 58.43 14.54
-2 -5 18 0.92 12.69
-2 5 18 13.79 12.51
-2 5 18 10.31 9.61
-2 -5 17 27.13 12.86
-2 5 17 13.99 12.34
-2 5 17 6.89 9.19
-2 -5 16 16.58 11.64
-2 5 16 5.78 12.09
-2 5 16 37.82 9.94
-2 -5 15 2.38 11.15
-2 5 15 -11.85 11.52
-2 5 15 20 9.28
-2 5 14 385.77 23.28
-2 5 14 327.36 19.83
-2 5 13 48.24 10.1
-2 5 12 152.44 13.16
-2 -5 11 50.05 9.53
-2 5 11 50.03 9.63
-2 -5 10 60.78 9.57
-2 5 10 53.66 9.35
-2 -5 9 60.01 9.29
-2 5 9 46.05 8.56
-2 -5 9 65.91 9
-2 -5 8 151.96 13.91
-2 5 8 164.15 12.05
-2 -5 8 164.87 11.87
2 5 -8 189.01 12.69
2 -5 -8 171.72 12.24
-2 -5 8 180.55 13.22
-2 5 7 117.38 10.24
-2 -5 7 119.69 10.09
-2 -5 7 145.01 12.82
-2 -5 7 136.83 11.53
2 5 -7 126.14 10.22
2 -5 -7 114.28 9.92
-2 5 6 96.11 9.21
-2 -5 6 102.73 9.28
-2 5 6 86.89 11.61
-2 -5 6 81.7 10.84
-2 -5 6 99 10.44
2 5 -6 104.11 9.03
2 -5 -6 97.72 8.71
2 5 -6 74.37 8.21
2 -5 -5 429.23 23.25
-2 5 5 455.45 20
-2 -5 5 453.64 20.14
-2 5 5 417.07 21.87
-2 -5 5 489.66 23.88
2 5 -5 442.85 19.83
2 -5 -5 448.52 19.59
-2 -5 5 481.16 19.01
2 5 -5 432.52 19.7
2 5 -5 440.82 19.89
2 5 -4 0.33 5.25
2 -5 -4 -1.68 7.06
2 5 -4 6.08 5.2
2 -5 -4 4.02 5.02
-2 -5 4 1.73 6.79
-2 5 4 -2.03 5.49
-2 -5 4 6.95 4.79
-2 -5 4 1.38 5.65
2 5 -4 5.59 5.62
2 5 -3 1185.53 43.11
2 5 -3 1295.79 43.68
2 -5 -3 1222.52 43.26
-2 -5 3 1231.87 47.08
-2 -5 3 1076.66 45.03
-2 -5 3 1243.55 43.2
2 5 -3 1169.16 43.97
-2 5 3 1177.66 43.55
-2 5 3 1164.74 42.89
-2 -5 3 1257.88 43.34
2 -5 -3 1206.93 47.02
2 -5 -2 58.06 9.07
2 5 -2 72.61 8.98
2 -5 -2 62.36 6.75
2 5 -2 71.09 6.99
-2 5 2 55.11 7.21
-2 5 2 48 6.71
-2 -5 2 58.07 7.03
-2 -5 2 66.31 8.57
-2 -5 2 72.62 7.57
2 5 -2 71.49 8.16
-2 -5 1 31.81 6.03
2 -5 -1 28.73 5.76
2 5 -1 38.15 6.07
-2 5 1 32.81 6.04
-2 -5 1 44.91 7.74
-2 -5 1 41.33 6.75
2 5 -1 34.94 7.57
2 5 -1 43.76 7.42
-2 5 0 161.3 12.63
2 -5 0 189.05 10.83
2 5 0 154.06 10.47
2 5 0 173.11 12.57
-2 -5 0 167.21 12.08
-2 -5 0 174.91 11.33
-2 5 0 170.52 10.29
2 5 0 162.35 12.01
-2 -5 0 157.7 10.28
-2 -5 0 189.48 11.35
2 -5 1 482.06 20.63
2 5 1 469.91 20.76
-2 -5 -1 495.18 22.56
2 5 1 468.87 20.83
2 5 1 497.25 23.48
-2 -5 -1 484.93 21.56
-2 5 -1 487.79 20.4
-2 -5 -1 501.08 20.56
2 5 1 479.29 22.76
-2 -5 -1 475.58 21.18
-2 5 -1 473.16 23.41
-2 -5 -2 97.45 9.1
-2 -5 -2 108.1 9.98
2 5 2 93.71 10.42
2 5 2 93.37 9.37
2 -5 2 97.5 9.14
-2 5 -2 116.68 8.51
-2 -5 -2 94.54 8.25
-2 -5 -2 99.35 9.36
2 5 2 116.6 11.03
2 -5 2 104.36 8.61
2 5 2 104.55 8.68
-2 5 -2 106.01 10.69
-2 5 -3 72.82 10.2
2 5 3 59.61 8.59
2 5 3 57.26 7.68
-2 -5 -3 62.57 8.47
2 -5 3 65.38 8.23
-2 5 -3 74.28 7.74
-2 -5 -3 63.97 7.63
2 -5 3 67.72 7.9
2 5 3 44.99 9.22
-2 5 -4 14.76 5.95
2 -5 4 6.49 6.13
2 5 4 -0.41 6.17
2 -5 4 12.21 6.14
-2 -5 -4 12.27 6.69
-2 -5 -4 9.53 5.84
2 5 4 4.39 7.46
-2 -5 -5 258.16 14.91
2 5 5 243.63 16.68
2 -5 5 243.87 14.6
2 5 5 236.5 14.67
2 -5 6 14.79 6.91
2 5 6 14.25 7.1
-2 5 -6 15.64 7.14
-2 -5 -6 14.96 6.94
-2 -5 -6 8.03 6.47
2 5 6 14.28 9.11
2 5 7 601.43 27.14
-2 -5 -7 578.12 25.25
-2 -5 -7 589.11 25.72
-2 5 -7 599.99 25.49
2 -5 7 562.93 26.65
2 -5 8 2.23 7.24
2 5 8 4.99 7.42
-2 5 -8 -0.86 6.86
-2 -5 -8 -5.78 9.81
-2 -5 -8 9.31 6.84
-2 -5 -9 509.41 26.78
-2 -5 -9 509.05 22.9
2 -5 9 522.34 25.78
2 5 9 533.95 26.02
2 -5 10 9.26 8.96
2 5 10 12.37 8.92
-2 -5 -10 12.41 11.08
-2 -5 -11 1231.28 48.67
2 5 11 1108.3 46.69
2 -5 11 1087.67 46.51
-2 -5 -12 5.54 11.57
2 -5 12 -3 9.41
2 5 12 1.48 9.27
-2 -5 -13 395.03 25.15
2 -5 13 322.47 22.18
2 5 13 311.26 22.06
-2 -5 -14 0.89 13.08
2 -5 14 -5.96 11.09
2 5 14 5.87 10.18
-2 -5 -15 260.64 22.55
2 -5 15 208.63 19.84
2 5 15 187.27 19.14
-2 -5 -16 18.66 14.93
2 -5 16 10.59 12.06
2 5 16 -1.89 12.06
-2 -5 -17 26.63 15.72
2 -5 17 11.22 11.81
2 5 17 1 12.37
-2 6 17 35.89 13.17
-2 -6 17 45.18 13.84
-2 6 17 39.49 11.27
-2 -6 16 81.74 14.19
-2 6 16 83.88 14.8
-2 6 16 93.82 12.75
-2 -6 15 61.85 13.14
-2 6 15 84.36 14.42
-2 6 15 56.36 11.52
-2 -6 14 335.78 21.98
-2 6 14 333.24 22.23
-2 6 14 319.84 20.64
-2 6 13 61.35 12.59
-2 6 13 79.47 12.01
-2 -6 13 102.23 13.59
-2 6 12 393.67 22.37
-2 6 11 329.72 19.86
-2 -6 10 814.14 37.55
-2 6 10 772.63 34.38
-2 6 9 52.15 8.77
-2 -6 9 78.13 11.67
-2 -6 9 71.71 10.32
-2 -6 9 65.78 8.88
-2 6 8 144.06 11.64
-2 -6 8 161.28 11.87
-2 -6 8 164.98 15.35
-2 -6 8 160.81 13.42
2 6 -8 148.49 10.31
2 6 -7 1.79 6.4
2 -6 -7 -3.58 8.63
-2 6 7 1.64 6.08
-2 -6 7 4.58 6.34
2 6 -7 5.03 6.06
-2 -6 7 8.84 8.56
-2 -6 7 7.67 7.22
2 -6 -7 4.13 5.66
2 6 -7 5.5 6.08
2 -6 -6 140.56 14.38
-2 -6 6 141.2 12.43
-2 6 6 139.16 10.7
-2 -6 6 139.76 10.7
-2 -6 6 168.36 14.64
2 6 -6 147.69 10.55
2 -6 -6 141.39 10.6
2 6 -6 144.95 10.78
2 6 -6 130.25 11.27
2 6 -5 63.75 8.62
2 -6 -5 72.47 11.16
-2 -6 5 77.39 10.79
2 6 -5 68.44 7.54
2 -6 -5 60.32 7.46
2 6 -5 77.33 8.63
-2 6 5 59.58 7.76
-2 -6 5 68.72 7.95
2 -6 -4 88.76 11.82
-2 6 4 92.07 9.58
-2 -6 4 106.88 11.81
2 6 -4 105.51 8.37
2 -6 -4 97.94 8.1
2 6 -4 92.42 9.55
-2 6 4 94.34 8.29
-2 -6 4 98.87 8.33
2 6 -4 95.77 9.39
-2 6 3 299.82 14.72
-2 6 3 304.49 16.38
-2 -6 3 296.73 17.86
2 6 -3 323.61 14.83
2 -6 -3 305.93 14.68
-2 -6 3 327.14 15.89
2 6 -3 301.43 16.7
-2 -6 3 282.01 14.62
2 -6 -3 317.69 19.37
2 6 -2 1346.33 51.82
-2 6 2 1477.14 51.67
2 6 -2 1517 49.77
2 -6 -2 1373.58 49.27
-2 -6 2 1418.15 50.61
-2 6 2 1420.32 49.45
-2 -6 2 1394.81 49.37
-2 -6 2 1360.72 53.01
2 -6 -2 1381.3 54.69
-2 6 1 32.55 5.96
-2 -6 1 44.37 6.34
2 -6 -1 37.5 6.23
2 6 -1 43.23 6.35
-2 -6 1 51.27 8.79
-2 -6 1 58.23 7.73
2 6 -1 53.62 8.69
2 -6 0 718 27.5
2 6 0 756.95 27.85
-2 -6 0 681.95 30.75
-2 -6 0 689.16 29
-2 6 0 745.2 27.53
-2 -6 0 747.06 27.67
2 6 0 659.94 30.36
-2 -6 0 710.48 29.71
-2 -6 -1 66.47 9.13
2 -6 1 82.28 7.71
2 6 1 66.25 9.35
-2 -6 -1 70.88 9.48
-2 6 -1 85.79 7.72
-2 -6 -1 79.8 7.75
2 6 1 84.53 10.49
2 6 1 63.14 7.56
2 6 2 1300.98 47.04
2 -6 2 1276.79 48.09
-2 -6 -2 1243.43 48.62
-2 -6 -2 1311.18 45.52
2 6 2 1275.34 49.47
-2 6 -2 1324.81 45.46
-2 -6 -2 1250.07 47.72
2 -6 2 1246.76 45.55
2 6 2 1237.29 45.73
-2 -6 -3 96.94 10.6
2 6 3 104.45 11.81
2 6 3 87.75 10.71
2 -6 3 105.02 10.84
-2 -6 -3 90.58 10.61
-2 -6 -3 88.29 8.55
-2 6 -3 120.42 9.04
2 -6 3 110.28 9
2 6 3 118.06 9.33
2 6 4 763.32 31.04
2 -6 4 731.73 31.53
-2 -6 -4 764.25 31.58
2 6 4 706.38 32.69
2 -6 4 700.39 29.26
2 6 4 721.17 29.6
2 -6 5 221.18 15.51
-2 -6 -5 245.59 13.74
-2 6 -5 240.34 13.62
-2 -6 -5 264.84 15.72
2 6 5 229.7 17.26
2 -6 5 212.09 14.02
2 6 5 267.78 14.97
2 -6 6 366.45 21.08
-2 -6 -6 413.79 19.35
-2 -6 -6 417.35 20.75
-2 6 -6 430.2 19.63
2 6 6 385.83 23.36
2 -6 6 446.28 20.94
2 6 6 414.33 20.71
-2 6 -7 418.93 19.7
-2 -6 -7 404.52 19.44
2 -6 7 396.01 20.96
2 6 7 411.63 21.27
2 -6 8 18.06 8.36
2 6 8 10.64 8.17
2 -6 9 20.59 8.72
2 6 9 27.67 8.9
2 6 9 18.59 10.48
2 -6 10 287.32 18.93
2 6 10 290.17 18.88
2 6 10 278.66 21.31
2 -6 11 84.68 12.28
2 6 11 60.05 11.65
-2 -6 -12 244.98 20.24
2 -6 12 209.75 18.36
2 6 12 214.8 18.4
2 -6 13 58.71 12.7
2 6 13 70.39 13.16
-2 -6 -13 96.14 15.96
2 -6 14 30.71 12.21
2 6 14 26.32 12.06
-2 -6 -14 22.03 14.23
2 6 15 -14.39 11.78
-2 -6 -15 -10.63 14.49
2 -6 15 -1.81 11.41
-2 -6 -16 50.65 16.64
2 -6 16 40.2 13.29
2 6 16 51.46 14
-2 7 16 -2.36 11.01
-2 -7 16 0.77 11.3
-2 7 16 -11.25 10.85
-2 7 15 158.65 16.92
-2 -7 15 148.17 16.45
-2 7 15 161.73 16.11
-2 7 14 47.61 12.46
-2 -7 14 67.42 12.88
-2 7 14 36.55 11.72
-2 -7 13 203.08 17.67
-2 7 13 251.92 18.67
-2 -7 13 250.72 20.73
-2 7 13 216.89 18.18
-2 -7 12 0.93 10.55
-2 -7 12 -3.05 9.8
-2 7 12 4.34 10.46
-2 7 12 11.45 10.25
-2 -7 11 539.63 29.45
-2 7 11 488.19 26.57
-2 7 10 269.51 18.73
-2 -7 10 272 21.05
-2 7 9 237.5 15.02
-2 -7 9 246.01 15.1
-2 -7 9 259.99 19.98
-2 7 9 190.84 16.55
2 7 -9 241.86 13.11
2 -7 -8 312.05 21.82
-2 7 8 282.72 16.1
-2 -7 8 288.33 16.29
-2 -7 8 298.22 21.17
2 7 -8 312.5 15.57
2 -7 -7 269.02 20.37
-2 7 7 284.68 15.38
-2 -7 7 268.1 15
-2 -7 7 333.03 21.27
2 7 -7 265 15.1
2 7 -6 7.6 7.28
2 -7 -6 0.78 9.91
2 7 -6 16.14 7.01
-2 -7 6 12.07 9.29
2 7 -6 17.31 6.07
-2 7 6 20.62 6.69
-2 -7 6 12.69 6.36
-2 7 5 517.11 24.8
-2 -7 5 556.55 28.32
2 7 -5 542.51 21.69
2 -7 -5 484.13 21.39
2 7 -5 493.73 23.24
-2 7 5 499.7 21.47
2 -7 -5 551.17 28.77
-2 -7 5 508.51 21.61
2 7 -5 522.01 24.03
2 -7 -4 44.82 10.66
2 7 -4 39.08 8.36
2 7 -4 41.16 6
2 7 -4 40.88 8.22
2 -7 -4 40.1 6.23
-2 7 4 27.55 8.32
-2 7 4 32.84 6.4
-2 -7 4 39.18 6.3
-2 7 3 373.96 20.11
2 7 -3 410.48 17.16
2 -7 -3 361.16 16.59
2 7 -3 381.63 20.05
-2 -7 3 335.89 20.68
-2 7 3 415.97 17.17
-2 -7 3 404.53 17.16
2 -7 -3 402.15 23.58
-2 7 2 298.25 16.94
-2 -7 2 297.12 18.08
2 7 -2 247.63 16.63
2 7 -2 277.82 13.61
-2 7 2 290.39 13.69
-2 -7 2 303.65 14.01
2 -7 -2 300.47 19.8
2 -7 -2 271.26 13.58
-2 -7 1 1267.2 51.04
2 7 -1 1420.42 46.7
2 -7 -1 1317.71 46.26
-2 7 1 1343.52 46.34
-2 -7 1 1326.08 46.49
2 7 -1 1213.18 50.26
2 -7 0 42.68 6.52
2 7 0 62.63 7.02
-2 -7 0 66.99 10.08
2 7 0 72.53 10.33
-2 7 0 50.62 6.92
-2 -7 0 51.44 7.18
2 7 1 1683.03 60.11
2 -7 1 1612.85 57.16
2 7 1 1705.74 57.62
-2 -7 -1 1596.43 61.9
-2 7 -1 1726.24 57.38
-2 -7 -1 1733.96 57.64
2 7 1 1601.85 62.16
-2 -7 -1 1666.64 61.38
-2 -7 -2 34.79 9.35
2 7 2 29.69 9.14
-2 -7 -2 27.84 9.04
-2 7 -2 28.87 6.11
-2 -7 -2 28.89 6.08
2 -7 2 23.4 5.76
2 7 2 33.2 9.7
2 7 2 35.87 6.58
2 7 3 212.43 15.06
2 -7 3 211.67 15.26
2 7 3 179.09 15.59
2 -7 3 201.42 12.05
2 7 3 208.6 12.24
-2 -7 -3 203.71 15.04
-2 -7 -4 823.16 36.25
2 -7 4 826.15 36.17
-2 7 -4 868.39 32.19
-2 -7 -4 916.24 32.52
2 7 4 830.84 37.33
2 -7 4 794.48 32.54
2 7 4 858.01 33.06
2 7 5 39.53 10.9
2 -7 5 50.71 8.06
2 7 5 53.54 8.36
-2 -7 -5 47.9 7.77
2 -7 5 63.9 10.56
-2 7 -5 53.68 7.96
2 -7 6 111.83 12.69
-2 -7 -6 118.17 10.13
2 7 6 127.89 14.24
2 -7 6 123.63 11.04
2 7 6 90.09 10.65
-2 7 -6 114.52 10.21
2 -7 7 59.98 9.63
2 7 7 48.63 9.54
2 -7 7 53.61 10.23
-2 -7 -7 53.33 8.38
-2 7 -7 64.65 8.95
2 7 7 50.26 11.79
2 -7 8 59.78 10.03
2 7 8 40.65 9.62
2 -7 8 54.21 10.78
2 -7 9 609.74 28.12
2 7 9 555.12 27.57
2 -7 10 13 9.29
2 7 10 8.4 8.73
2 7 10 25.31 12.15
2 -7 11 110.06 14.03
2 7 11 117.95 14.63
2 7 11 133.32 16.88
2 -7 12 6.66 9.86
2 7 12 -4.42 9.56
2 7 12 -4.54 11.87
2 -7 13 115.83 15.26
2 7 13 124.67 15.83
2 -7 14 -11.82 10.76
2 7 14 -0.84 10.28
2 -7 15 90.42 15.15
2 7 15 102.49 15.79
-2 -8 15 8.95 12.58
-2 -8 15 8.21 10.75
-2 8 15 3.51 10.45
-2 8 15 -12.43 11.4
-2 -8 14 51.7 14.53
-2 -8 14 43.18 11.81
-2 8 14 48.95 12.2
-2 8 14 49.28 13.32
-2 -8 13 12.64 12.14
-2 -8 13 5.46 9.62
-2 8 13 4.35 9.91
-2 8 13 -1.67 10.97
-2 -8 12 439.75 23.63
-2 8 12 448.8 23.91
-2 -8 12 505.88 30.03
-2 8 12 449.06 26.6
-2 -8 11 8.04 11.02
-2 -8 11 5.29 8.68
-2 8 11 6.98 9.2
-2 8 11 6.37 10.83
2 -8 -10 984.93 43.54
-2 -8 10 967.68 43.08
-2 -8 10 786.15 35.1
-2 8 10 885.89 36.05
-2 8 10 872.42 39.75
-2 -8 9 1.81 7.05
2 -8 -9 2.84 10.77
-2 -8 9 16.06 10.84
-2 8 9 4.71 10.41
2 8 -9 0.37 6.54
-2 -8 8 381.74 19.1
-2 -8 8 493.54 27.27
-2 8 8 382.97 23.62
2 8 -8 390.41 19.49
2 -8 -8 422.56 26.02
2 -8 -7 20.73 11.46
-2 -8 7 14.71 10.66
-2 -8 7 11.83 6.2
2 8 -7 30.45 7.75
2 -8 -6 74.72 14.01
-2 -8 6 72.22 8.01
2 8 -6 73.88 9.88
-2 -8 6 84.56 13.41
2 -8 -5 3.51 10.24
-2 -8 5 4.28 5.39
2 8 -5 10.45 7.62
2 8 -4 472.15 23.5
2 8 -4 516.91 19.88
2 -8 -4 466.17 19.45
-2 8 4 485.89 19.82
-2 -8 4 469.4 19.66
2 -8 -4 470.85 27.54
2 -8 -3 -3.4 10.35
-2 8 3 7.62 4.79
-2 -8 3 3.87 4.92
2 8 -3 7.47 5.05
2 -8 -3 2.64 4.72
2 8 -3 1.12 8.17
2 8 -2 1083.46 37.98
2 -8 -2 1077.31 37.73
2 8 -2 965.95 42.99
-2 8 2 1109.13 38.2
-2 -8 2 1120.89 38.36
2 8 -1 16.3 5.63
2 -8 -1 7.69 5.06
2 8 -1 33.02 9.24
-2 8 1 6.69 5.41
-2 -8 1 14.05 5.84
2 -8 0 567.39 23.02
2 8 0 639.74 23.74
-2 8 0 646.62 23.68
-2 -8 0 635.1 23.81
2 8 0 562.03 28.62
2 -8 1 137.87 8.55
2 8 1 137.45 9.03
2 8 1 152.48 14.22
-2 -8 -1 158.33 13.94
-2 -8 -2 90.81 11.73
2 8 2 60.74 7.02
2 -8 2 71.52 6.82
-2 8 -2 65.4 7.13
2 8 2 81.59 11.98
-2 -8 -3 2.02 8.74
-2 8 -3 10.69 5.99
-2 -8 -3 12.57 6.1
2 8 3 2.81 9.57
2 -8 3 3.77 5.14
2 8 3 3.04 5.64
-2 -8 -4 1649.17 54.52
2 -8 4 1678.41 61.34
2 8 4 1475.54 60.73
2 -8 4 1464.92 54.6
2 8 4 1558.73 55.13
-2 -8 -4 1664.27 61.12
-2 -8 -5 10.74 9.3
-2 -8 -5 17.25 6.45
2 -8 5 22.43 9.68
2 -8 5 7.91 6.43
2 8 5 11.36 6.41
2 8 5 9.76 10.68
-2 -8 -6 113.8 10.07
2 -8 6 133.18 13.96
2 -8 6 114.37 10.54
2 8 6 125.9 11.01
2 8 6 105.87 14.49
2 -8 7 37.02 8.45
2 8 7 37.48 8.7
2 -8 7 45.5 11.16
-2 -8 -7 35.22 7.94
2 8 7 34.13 12.16
2 -8 8 369.01 23.23
2 -8 8 362.81 20.42
2 8 8 411.44 21.09
2 -8 9 7.59 8.32
2 8 9 2.32 8.37
2 -8 9 5.75 9.28
2 -8 10 341.29 23.46
2 -8 10 415.28 22.04
2 8 10 395.73 22.2
2 -8 11 14.3 9.95
2 8 11 -1.35 9.44
2 -8 11 15.08 10.85
2 8 11 10.33 12.46
2 -8 12 825.43 37.15
2 8 12 785.24 37.22
2 8 12 877.03 42.47
2 -8 13 -9.21 10.5
2 8 13 10.86 10.93
2 8 13 25.14 14.43
2 -8 14 26.76 11.73
2 8 14 25.46 11.88
2 -9 -13 288.8 24.81
-2 -9 13 343.47 26.52
-2 -9 13 325.36 19.8
-2 9 13 365.41 24.93
2 -9 -12 13.23 12.14
-2 -9 12 -9.9 12.32
-2 -9 12 -0.51 8.55
-2 9 12 -5.47 11.65
2 -9 -11 360.74 26.28
-2 -9 11 373.66 25.97
-2 -9 11 286.1 17.81
-2 9 11 330.49 23.59
2 -9 -10 40.2 13.86
-2 -9 10 44.83 8.95
-2 -9 10 40.86 13.52
-2 9 10 21.03 11.91
-2 -9 9 208.43 14.03
-2 -9 9 263.77 21.85
-2 9 9 258.39 20.56
2 -9 -9 258.09 21.86
2 -9 -8 6.16 11.97
-2 -9 8 -6.16 11.06
-2 -9 8 8.68 7.02
-2 9 8 -2.6 10.66
2 9 -8 17.09 8.3
-2 -9 7 272.35 21.91
-2 9 7 279.6 20.58
2 9 -7 247 16.06
2 -9 -7 262.46 22.23
2 -9 -6 60.48 13.77
2 9 -6 59.73 9.97
2 9 -5 576.77 25.48
-2 -9 5 460.23 19.86
2 -9 -5 560.32 30.89
2 -9 -4 65.54 14.12
-2 -9 4 59.95 6.37
2 9 -4 80.56 11.19
-2 -9 3 195.62 10.14
2 9 -3 207.25 15.48
-2 -9 2 33.42 5.6
2 9 -2 26.19 9.11
2 9 -1 1507.11 63.82
-2 -9 1 1781.17 57.24
2 -9 -1 1723.22 56.42
2 9 0 68.99 11.29
2 -9 0 37.01 5.99
2 -9 1 1464.21 50.13
-2 -9 -1 1602.37 50.78
2 9 1 1407.53 58.43
2 -9 2 286.22 12.7
2 9 2 309.46 20.74
-2 -9 -2 321.96 13.51
-2 -9 -2 326.39 20.84
2 -9 3 496.64 20.56
-2 -9 -3 574.91 21.18
2 9 3 567.19 29.38
-2 -9 -3 614.85 29.43
-2 -9 -4 -9.46 10.39
-2 -9 -4 2.74 5.53
2 9 4 -0.79 10.52
2 -9 4 5.1 5.06
-2 -9 -5 39.94 11.39
2 -9 5 49.34 12.11
2 -9 5 19.87 6.3
2 9 5 35.17 11.75
-2 -9 -6 47.18 12.61
2 -9 6 48.67 11.98
2 -9 6 39.26 7.38
2 9 6 58.17 13.41
-2 -9 -7 651.97 32.28
2 -9 7 632.56 31.81
2 9 7 627.8 33.47
2 -9 7 543.15 25.1
2 -9 8 75.18 13.43
2 -9 8 54.99 9.58
2 9 8 64.17 15.15
2 -9 9 603.43 32.64
2 -9 9 629.35 28.3
2 -9 10 -4.83 9.01
2 -9 10 16.08 11.57
2 -9 11 170.15 18.35
2 -9 11 156.11 15.03
2 9 11 160.41 19.96
2 -9 12 6.88 9.88
2 -9 12 -1 11.48
2 9 12 8.25 13.54
2 -10 -11 62.82 15.72
-2 -10 11 58.86 15.55
-2 10 11 59.43 14.91
-2 -10 10 192.15 21
-2 10 10 170.35 19.25
2 -10 -10 177.96 20.2
2 -10 -9 20.72 13.06
-2 -10 9 11.23 12.48
-2 10 9 -5.74 12.3
-2 -10 8 306.34 24.13
-2 10 8 255.5 21.9
2 -10 -8 270.39 23.85
2 -10 -7 -7.72 12.72
-2 10 7 12.26 12.5
2 10 -7 2.8 8.47
2 -10 -6 69.26 15.35
2 10 -6 75.71 11.28
2 10 -5 178.15 15.3
2 -10 -5 171.63 19.81
2 -10 -4 35.21 14.18
2 10 -4 33.53 10.16
2 10 -3 12.46 9.48
2 10 -2 365.95 22.35
2 10 -1 95.16 12.62
2 10 0 453 25.44
2 10 1 169.16 16.42
2 10 2 347.62 22.99
-2 -10 -3 -4.25 10.33
2 10 3 -9.2 11.25
-2 -10 -4 56.43 12.67
2 10 4 17.24 12.33
-2 -10 -5 9.93 11.42
2 10 5 1.77 11.5
2 -10 6 256.91 21.23
2 10 6 247.83 21.11
-2 -10 -6 246.94 20.92
-2 -10 -7 5.64 10.98
2 -10 7 24.54 12.37
2 10 7 15.02 12.99
-2 -10 -8 104.7 16.32
2 -10 8 124.01 16.35
2 10 8 117.46 17.71
-2 -10 -9 7.09 11.82
2 -10 9 19.59 12.79
2 10 9 5 13.5
-2 -10 -10 120.89 17.63
2 -10 10 161.78 18.59
2 -11 -8 -4.84 12.8
-2 11 8 20.67 13.94
2 -11 -7 181.43 21.21
2 -11 -6 -13.11 13.19
2 11 -6 4.59 9.65
-2 11 5 241.42 21.87
2 11 -5 285.67 19.23
2 -11 -5 284.28 24.33
-2 11 4 115.28 16.99
2 11 -4 121.06 13.78
2 11 -3 251.57 19.01
2 11 -2 11.88 10.47
2 11 -1 41.51 11.67
2 11 0 16.69 10.57
2 11 1 147.32 16.8
2 11 2 -4.4 12.03
2 11 3 50.77 14.06
-2 -11 -4 3.85 11.27
2 11 4 0.93 11.95
-2 -11 -5 66.37 14.54
2 11 5 62.06 15.2
-2 -11 -6 15.17 12.38
2 11 6 15.67 13.29
-2 -11 -7 124.32 18.01
2 11 7 122.76 18.33
-2 12 3 71.03 16.23
2 12 -3 64.62 12.66
-2 12 2 99.93 16.55
2 12 -2 77.79 14.08
-2 12 1 66.97 15.19
2 12 -1 58.46 13.09
2 12 0 143.4 17.08
2 12 1 -4.64 11.27
3 0 -19 211.08 20.71
3 0 -18 0.8 12.87
3 0 -17 352.12 23.12
-3 0 17 301.89 17.2
3 0 -16 15.25 11.52
-3 0 16 -2.04 7.17
3 0 -15 1113.84 33.37
-3 0 15 1058.49 28.03
3 0 -14 8.69 9.79
-3 0 14 -1.25 3.73
3 0 -13 61.85 10.85
3 0 -13 78.46 11.98
-3 0 13 45.48 5.36
3 0 -12 -3.75 7.97
3 0 -12 8.46 8.73
3 0 -11 307.74 17
3 0 -11 290.96 18.85
3 0 -10 -2.27 7.39
3 0 -10 1.16 7.56
3 0 -9 491.11 21.31
3 0 -9 459.79 23.71
3 0 -8 0.29 6.12
3 0 -8 -0.52 7.05
3 0 -7 381.03 19.98
-3 0 6 1.02 6.74
3 0 -6 5.69 6.55
3 0 -5 11.16 6.72
-3 0 5 15.61 7.36
3 0 -4 2.31 3.17
3 0 -4 2.84 6.5
-3 0 4 10.03 6.66
-3 0 4 3.16 3.19
3 0 -3 642.01 27.79
-3 0 3 639.1 27.36
3 0 -2 -10.17 7.48
-3 0 2 1.03 3.08
-3 0 2 -1.35 6.4
3 0 -1 1822.94 65.2
-3 0 1 1814.26 64.51
-3 0 0 3.6 3.47
-3 0 0 -4.96 6.56
3 0 0 -1.99 6.84
-3 0 -1 1029.03 38.96
3 0 1 973.44 39.43
-3 0 -2 -0.46 6.11
3 0 2 -2.56 6.21
-3 0 -3 37.02 7.86
3 0 3 49.2 9
3 0 4 10.01 7.13
-3 0 -4 5.77 6.99
3 0 5 1697.06 63.32
3 0 6 4.89 7.82
3 0 7 46.61 9.66
3 0 8 10.15 8.59
3 0 9 347.21 21.86
3 0 10 4.51 9.36
3 0 11 54.62 11.89
3 0 12 -5.03 9.66
3 0 13 305.78 22.24
3 0 14 -19.83 12.2
3 0 15 14.01 11.94
3 0 16 19.05 13.13
3 0 17 40.46 14.6
3 -1 -19 92.16 16.58
3 1 -19 58.59 14.9
3 -1 -18 140.81 17.52
3 1 -18 155.14 17.92
3 -1 -17 35.65 12.97
3 1 -17 22.41 12.96
-3 -1 17 37.1 8.74
-3 1 17 31.66 8.09
3 -1 -16 60.47 12.92
3 1 -16 67.63 12.93
-3 -1 16 58.16 9.72
-3 1 16 52.15 9.07
-3 1 16 40.15 5.68
3 1 -15 143.59 15.02
3 -1 -15 127.72 14.94
-3 -1 15 105.73 11.16
-3 1 15 79.9 7.34
3 -1 -14 24.14 10.34
3 1 -14 21.32 10.44
-3 -1 14 28.4 8.11
-3 1 14 21.79 5.61
3 -1 -13 75.32 11.73
3 1 -13 86.71 11.71
-3 -1 13 92.85 10.8
3 1 -13 83.44 11.89
3 -1 -12 325.31 18.81
3 1 -12 321.51 18.27
3 1 -12 325.28 20.3
3 -1 -11 57.32 10.43
3 1 -11 40.95 9.1
3 1 -11 60 10.05
3 -1 -10 199.02 13.38
3 1 -10 175.91 12.37
3 1 -10 184.39 14.7
3 1 -9 25.48 6.88
3 1 -9 11.34 7.54
3 1 -8 55.06 7.15
3 1 -8 66.41 9.25
3 1 -7 40.53 6.03
3 1 -7 46.29 8.07
-3 1 6 1721.76 62.73
3 1 -6 1731.93 62.87
3 -1 -5 20.58 5.19
-3 -1 5 24.73 5.62
3 1 -5 37.49 7.82
-3 1 5 18.14 7.61
-3 1 4 1709.59 58.53
-3 1 4 1608.11 53.86
3 1 -4 1613.49 58.13
-3 -1 4 1559.61 54.08
3 -1 -4 1562.83 54.01
-3 1 3 204.13 10.51
3 1 -3 212.28 13.73
-3 1 3 226.32 13.72
3 1 -2 18.86 7.45
-3 1 2 22.54 7.26
3 1 -1 118.21 10.99
-3 1 1 108.37 10.21
3 1 0 219.89 14.26
3 1 0 181.37 9.52
-3 1 0 195.95 13.14
-3 1 0 206.64 10.34
-3 1 -1 203.36 13.09
-3 1 -1 194.3 10.8
3 1 1 202.86 13.9
-3 1 -2 1504.2 55
3 1 2 1515.42 55.92
-3 1 -3 15.94 6.92
3 1 3 19 7.91
-3 1 -4 148.64 12.08
3 1 4 166.08 12.93
3 1 5 195.91 14.93
3 1 6 75.01 10.45
3 1 7 9.6 8.37
3 1 8 286.67 18.96
3 1 9 62.41 11.79
3 1 10 1211.65 50.15
3 1 11 15.04 9.42
3 1 12 116.42 15.06
3 1 13 16.91 10.97
3 1 14 154.03 17.7
3 1 15 16.88 12.28
3 1 16 38.95 13.84
3 1 17 48.95 15.09
3 -2 -19 41.8 14.87
3 -2 -18 24.2 13.51
3 -2 -17 278.46 21.76
-3 -2 17 281.19 16.9
3 -2 -16 -0.73 11.8
-3 -2 16 15.99 8.33
-3 2 16 13.97 6.38
3 -2 -15 278.9 19.63
-3 -2 15 248.59 15.65
-3 2 15 178.31 12.35
3 -2 -14 10.67 10.25
-3 -2 14 0.5 7.81
-3 2 14 2.01 5.89
3 -2 -13 208.98 16.1
-3 -2 13 200.63 14.59
3 2 -13 203.84 16.61
3 -2 -13 229.7 17.25
-3 -2 12 6.89 7.69
3 2 -12 11.78 8.55
3 -2 -12 -1.3 8.5
3 2 -11 19.07 8.35
3 -2 -11 10.41 8.32
-3 -2 11 22.02 8.09
-3 -2 11 8.31 3.16
3 2 -10 10.49 7.91
3 -2 -10 19.69 8.13
-3 -2 10 15.6 8.08
-3 -2 10 4.57 4.01
3 2 -9 908.61 36.7
3 -2 -9 882.1 36.46
-3 -2 9 861.27 30.99
3 2 -8 4.73 6.99
3 -2 -8 7.33 7.02
-3 -2 8 9.03 5.05
3 2 -7 2156.4 73.69
3 -2 -7 2066.35 73.31
-3 -2 7 2002.39 69.17
-3 2 6 101.81 10.87
-3 -2 6 92.4 10.56
3 2 -6 89.7 6.21
-3 2 6 95.54 9.39
-3 -2 6 98.24 9
3 -2 -6 93.34 10.24
3 2 -6 102.84 10.53
-3 2 5 1177.36 44.52
-3 -2 5 1217.09 44.72
-3 2 5 1069.82 41.22
3 -2 -5 1202.05 44.49
-3 -2 5 1170.72 42.37
3 2 -5 1169.65 44.27
3 -2 -5 1109.02 41.73
-3 2 4 488.7 22.3
-3 -2 4 469.01 22.11
-3 2 4 436.04 19.34
3 -2 -4 459.16 21.85
3 2 -4 435.65 21.66
-3 -2 4 458.49 19.82
3 -2 -4 450.5 19.79
3 -2 -3 2143.48 75.2
3 2 -3 2145.8 75.27
-3 2 3 2126.45 74.88
-3 -2 3 2166.08 75.09
3 -2 -2 -2.42 7.08
3 2 -2 -0.97 7.66
-3 2 2 -9.51 7.85
-3 -2 2 -13.25 7.99
3 -2 -1 2162.65 73.82
3 2 -1 2054.42 73.53
3 2 -1 2060.83 69.89
-3 2 1 2046.99 72.69
-3 -2 1 2105.67 73.07
3 -2 0 383.99 19.76
3 2 0 383.71 19.96
3 2 0 345.71 16.35
-3 2 0 391.63 19.34
-3 -2 0 370.76 19.3
-3 2 0 409.3 17.44
3 2 1 1004.16 32.62
-3 2 -1 1124.3 35.96
-3 -2 -1 1092.77 35.31
-3 -2 -1 1118.87 36.28
-3 2 -1 1039.23 33.53
3 -2 1 1049.19 36.39
3 2 1 1175.33 37.46
-3 2 -2 2.26 6.24
-3 -2 -2 -1.83 6.33
-3 -2 -2 7.11 4.63
3 -2 2 4.08 6.54
3 2 2 2.05 6.63
-3 -2 -3 897.25 33.27
-3 2 -3 955.79 37.16
-3 -2 -3 969.6 37.34
3 -2 3 921.88 37.79
3 2 3 918.79 37.93
-3 2 -4 196.37 13.56
-3 -2 -4 203.42 13.96
3 -2 4 206.98 14.46
3 2 4 211.62 14.61
3 -2 5 1138.25 44.33
3 2 5 1059.1 43.94
3 -2 6 746.95 33.08
3 2 6 736.69 33.24
3 -2 7 1284.46 51.29
3 2 7 1319.96 51.54
3 -2 8 141.01 13.58
3 2 8 131.88 13.67
3 -2 9 501.62 26.47
3 2 9 485.42 26.31
3 -2 10 11.48 9.87
3 2 10 0.76 9.26
3 -2 11 1243.82 51.05
3 2 11 1176.13 50.32
3 -2 12 34.82 11.49
3 2 12 33.48 10.87
-3 -2 -12 24.86 7.22
3 -2 13 334.34 23.93
3 2 13 378.73 24.33
3 -2 14 32.47 12.43
3 2 14 32.9 12.65
3 -2 15 41.35 13.18
3 2 15 30.73 12.38
3 -2 16 -5.34 12.12
3 2 16 -14.68 12.69
3 -2 17 5.66 12.86
3 2 17 33.18 13.77
3 -3 -18 272 21.95
-3 -3 18 253.13 16.96
3 -3 -17 37.95 13.31
-3 -3 17 28.31 9.14
-3 3 17 20.46 7.88
-3 -3 16 488.58 23.6
-3 3 16 439.35 21.24
-3 -3 15 20.97 8.82
-3 3 15 17.89 7.43
-3 -3 14 314.06 17.81
-3 3 14 248.83 15.23
-3 -3 13 113.36 12.15
-3 -3 12 728 31.66
3 3 -12 715.45 32.93
3 -3 -12 709.57 32.82
3 -3 -11 23.98 8.96
-3 -3 11 22.25 8.31
3 3 -11 15.55 8.65
-3 -3 10 1007.92 38.3
3 3 -10 1004.19 39.28
3 -3 -10 997.85 39.21
-3 -3 10 872.32 31.32
-3 -3 9 386.38 20.22
3 3 -9 363.6 20.23
3 -3 -9 382.56 20.52
-3 -3 9 353.58 14.62
-3 -3 8 1853.49 62.97
3 3 -8 1750.54 62.46
3 -3 -8 1645.9 61.96
-3 -3 8 1647.57 56.99
-3 3 7 615.07 26.5
-3 -3 7 626.9 27.3
3 3 -7 634.55 27.38
3 -3 -7 623.53 27.29
-3 -3 7 554.46 27.03
-3 -3 7 569.58 22.97
3 -3 -6 119.4 10.81
-3 3 6 112.2 11.55
-3 -3 6 137.6 11.79
-3 3 6 132.78 11.5
-3 -3 6 130.72 11.11
3 3 -6 142.99 11.74
-3 -3 6 143.84 12.38
3 -3 -6 140.65 11.73
-3 -3 6 147.55 9.41
-3 3 5 224.97 14.28
-3 -3 5 187.15 13.64
-3 3 5 184.03 12.71
-3 -3 5 216.88 13.23
3 3 -5 225.65 13.95
3 -3 -5 197.92 13.38
-3 -3 5 209.92 11.4
3 3 -5 157.88 8.1
3 -3 -5 186.98 12.78
-3 3 4 342.56 16.19
3 -3 -4 342.36 17.23
3 3 -4 347.5 17.43
-3 -3 4 352.74 16.8
-3 -3 4 361.2 15.75
3 -3 -4 320.51 16.3
-3 3 4 324.22 17.02
-3 -3 4 317.84 17.17
3 -3 -3 3.17 5.81
3 -3 -3 9.24 6.75
3 3 -3 9.26 6.55
-3 3 3 -5.91 8.19
-3 -3 3 -5.04 7.49
-3 -3 3 11.96 6.44
3 -3 -2 1504.9 55.48
3 3 -2 1528.98 55.72
-3 -3 2 1474.94 53.76
-3 3 2 1513.75 55.28
-3 -3 2 1562.44 55.65
3 -3 -1 573.05 25.92
3 3 -1 589.31 26.11
3 3 -1 551.41 23.68
-3 -3 1 569.49 24.48
-3 3 1 568.25 25.33
-3 -3 1 570.53 25.46
3 -3 0 1960.1 69.73
3 3 0 2002.47 69.96
3 3 0 1849.57 67.29
-3 -3 0 1902.21 68.13
-3 3 0 2006.93 69.11
-3 -3 0 2014.68 69.26
-3 3 0 1988.35 68.07
3 3 1 773.57 33
3 3 1 734.55 30.84
-3 -3 -1 779.66 31.81
-3 3 -1 811.3 32.18
-3 -3 -1 812.07 32.4
-3 3 -1 798.5 31.85
3 -3 1 798.28 33.11
3 -3 2 1805.71 65.49
-3 3 -2 2122.42 70.52
-3 -3 -2 2067.58 70.57
-3 -3 -2 2025.98 70.11
-3 3 -2 2062.43 70.31
3 -3 2 2076.71 71.25
3 3 2 2075.3 71.4
-3 -3 -3 346.19 18.87
-3 3 -3 362.16 18.89
3 -3 3 365.94 19.67
3 3 3 374.48 19.87
-3 -3 -4 1120.94 40.33
-3 3 -4 1090.77 42.59
-3 -3 -4 1077.77 42.79
3 -3 4 1128.07 44.02
3 3 4 1109.13 44.05
-3 -3 -5 160.98 11.92
3 -3 5 189.53 14.22
3 3 5 163.91 13.87
-3 -3 -6 1072.1 41.87
3 -3 6 1109.2 44.88
3 3 6 1149.98 45.23
-3 -3 -7 62.85 10.62
3 -3 7 69.67 10.88
3 3 7 80.34 11.35
-3 -3 -7 81.19 9.53
-3 -3 -8 540.53 26.68
-3 -3 -8 566.72 24.99
3 -3 8 568.68 28.41
3 3 8 587.19 28.62
3 -3 9 13.18 9.37
3 3 9 12.37 9.13
-3 -3 -9 16.6 10.21
-3 -3 -9 21.21 7.42
3 -3 10 34.14 10.88
3 3 10 39.21 10.89
-3 -3 -10 26.19 10.86
-3 -3 -10 35.99 7.72
3 -3 11 69.41 12.75
3 3 11 77.57 13.2
-3 -3 -11 84 13.93
-3 -3 -11 74.91 9.15
-3 -3 -12 601.71 29.94
-3 -3 -12 517.96 23.64
3 -3 12 578.78 30.77
3 3 12 598.4 30.93
-3 -3 -13 346.9 23.45
3 -3 13 334.24 23.99
3 3 13 345.53 23.93
-3 -3 -14 323.46 23.51
3 -3 14 339.54 24.16
3 3 14 318.98 23.39
3 -3 15 -1.01 12.67
3 3 15 1.98 11.64
-3 -3 -16 428.14 27.36
3 -3 16 402.93 28.01
3 3 16 361.38 27.11
3 -3 17 -7.92 13.45
3 3 17 -9.92 13.15
-3 -3 -17 -6.56 14.41
-3 -4 17 92.29 12.35
-3 4 17 107.76 11.62
-3 -4 16 8.56 9.03
-3 4 16 19.23 9.02
-3 -4 15 254.53 17.61
-3 4 15 251.7 16.17
-3 -4 14 4.1 8.36
-3 4 14 -1.01 7.81
-3 -4 13 355.5 20.31
-3 4 13 341.64 18.76
-3 -4 12 217.75 15.92
3 4 -12 191.91 15.9
3 -4 -12 190.86 15.65
-3 -4 11 150.85 13.45
3 4 -11 133.42 13.19
3 -4 -11 142.12 13.48
-3 -4 10 1298.36 48.96
3 4 -10 1260.59 48.61
3 -4 -10 1160.86 47.97
-3 -4 9 364.1 21.97
-3 -4 9 426.37 21.88
3 4 -9 377.75 20.76
3 -4 -9 395.47 21
-3 -4 9 395.37 15.9
-3 -4 8 556.6 26.21
-3 -4 8 505.98 24.94
3 4 -8 516.33 24.24
3 -4 -8 486.52 23.78
-3 -4 8 489.31 19.87
3 -4 -7 783.8 34.68
-3 4 7 806.23 33.81
-3 -4 7 853.98 35.58
3 4 -7 815.28 33.76
3 -4 -7 778.64 33.34
-3 -4 7 818.02 34.49
-3 -4 7 814.22 29.91
-3 4 6 488.12 23.47
-3 4 6 452.55 22.93
3 4 -6 507.04 23.33
-3 -4 6 531.3 24.67
3 -4 -6 510.9 23.2
-3 -4 6 462.35 23.79
-3 -4 6 507.18 20.17
3 4 -6 445.98 18.92
3 -4 -6 480.08 23.64
-3 4 5 1144.86 41.48
-3 -4 5 1121.89 41.49
-3 4 5 1038.94 40.33
-3 -4 5 1107.29 42.09
3 4 -5 1064.41 41.25
3 -4 -5 1026.87 40.94
-3 -4 5 1071.66 38.19
3 -4 -5 1011.22 41.37
3 4 -5 971.38 35.85
-3 4 4 134.72 8.69
3 -4 -4 170.77 12.35
3 4 -4 178.73 12.6
-3 -4 4 174.3 10.83
3 -4 -4 171.12 12.96
-3 4 4 164.64 12.36
-3 -4 4 197.81 13.06
3 -4 -3 155.28 11.83
3 4 -3 161.74 12.04
-3 -4 3 148.53 12.89
-3 -4 3 181.94 11.44
-3 4 3 169.07 12.47
-3 -4 3 172.89 12.3
3 -4 -3 158.12 12.52
3 4 -2 3.6 4.05
3 -4 -2 4.64 6.79
3 4 -2 6.52 6.77
-3 4 2 -0.45 6.91
-3 -4 2 7.76 6.96
-3 -4 2 13.85 7.19
-3 -4 2 10.19 6.4
3 -4 -1 288.25 16.44
3 4 -1 296.53 16.76
-3 -4 1 284.89 17.2
-3 -4 1 297.23 15.78
-3 4 1 267.56 15.84
-3 -4 1 277.06 16.09
3 4 -1 304.45 16.1
-3 4 0 29.69 8.25
-3 4 0 28.43 7.72
-3 -4 0 11.6 7.32
3 4 0 23.27 7.52
-3 -4 0 39.7 9.14
-3 -4 0 14.74 6.88
3 -4 0 30.16 7.84
3 4 0 19.09 7.87
3 -4 1 304.87 17.34
3 4 1 323.42 17.72
3 4 1 296.91 16.66
-3 -4 -1 293.63 17.31
-3 4 -1 274.12 16.22
-3 -4 -1 320.73 16.89
-3 -4 -1 276.68 13.27
-3 4 -1 328.74 17.63
-3 4 -2 14.22 7.69
-3 4 -2 7.23 6.72
-3 -4 -2 6.41 6.65
3 -4 2 8.33 4.76
3 4 2 10.22 6.86
-3 -4 -2 25.86 8.29
3 -4 2 13.38 7.45
3 4 2 12.42 7.42
3 -4 3 608.53 26.22
-3 -4 -3 690.75 29.67
-3 4 -3 718.43 29.42
-3 -4 -3 709.24 29.24
3 -4 3 693.51 30.01
3 4 3 721.62 30.48
-3 4 -3 672.27 30.33
-3 -4 -4 237.84 15.3
-3 4 -4 224.36 14.82
3 -4 4 255.33 16.3
3 4 4 236.61 16.16
-3 -4 -5 162.29 12.75
3 -4 5 156.55 13.54
3 4 5 177.95 14.33
-3 -4 -6 -9.67 8.55
3 -4 6 0.63 7.95
3 4 6 12.71 8.81
-3 -4 -6 8.43 7.08
-3 -4 -7 182.1 14.51
-3 -4 -7 173.52 12.73
3 -4 7 202.57 15.86
3 4 7 209.14 16.07
-3 -4 -8 0.55 9.56
3 -4 8 8.42 9.05
3 4 8 7 8.57
-3 -4 -8 4.55 7
-3 -4 -9 162.06 12.58
-3 -4 -9 189.51 15.7
3 -4 9 177.42 16.08
3 4 9 169.88 15.89
-3 -4 -10 127.24 14.74
-3 -4 -10 138.07 11.8
3 -4 10 138.66 14.83
3 4 10 130.52 14.78
-3 -4 -11 492.85 25.96
-3 -4 -11 407.16 21.03
3 -4 11 482.9 26.88
3 4 11 454.21 26.41
3 -4 12 0.87 10.06
3 4 12 10.33 10.49
-3 -4 -12 12.55 11.55
-3 -4 -12 12.9 7.72
3 -4 13 136.4 16.98
3 4 13 119.7 16.38
-3 -4 -13 155.86 17.31
-3 -4 -14 277.14 21.67
3 -4 14 241.54 21.47
3 4 14 213.44 20.72
3 -4 15 43.56 14.2
3 4 15 36.65 13.59
-3 -4 -15 57.76 14.91
3 -4 16 10.68 12.97
3 4 16 13.54 12.11
-3 -4 -16 9.16 13.45
-3 5 17 4.63 9.3
-3 5 16 11.93 9.3
-3 -5 15 48.58 10.86
-3 5 15 39.22 10.06
-3 -5 14 127.06 13.84
-3 5 14 88.58 12.26
-3 -5 13 82.26 12.22
-3 5 13 45.92 10.25
-3 -5 12 8.83 9.11
-3 -5 11 2.43 9.96
-3 -5 11 8.15 9.19
3 5 -11 23.76 9.17
3 -5 -11 22.65 8.64
-3 -5 10 1114.75 48.35
-3 -5 10 1210.84 46.74
3 5 -10 1160.63 45.9
3 -5 -10 1127.09 45.72
-3 -5 9 12.9 9.67
-3 -5 9 11.73 8.41
3 5 -9 3.31 7.48
3 -5 -9 12.91 7.94
3 -5 -8 423.02 24.19
-3 -5 8 466 25.19
-3 -5 8 447.84 23.75
3 5 -8 438.47 22.31
3 -5 -8 451.22 22.22
-3 -5 8 436.64 18.32
3 5 -7 6.32 5.65
3 -5 -7 9.81 8.95
-3 -5 7 13.72 8.82
-3 -5 7 0.62 8.21
3 5 -7 0.5 7.19
3 -5 -7 5.42 7.19
-3 -5 7 3.22 5.4
-3 5 6 635.52 28.84
-3 -5 6 664.47 31.09
3 5 -6 671.43 28.86
3 -5 -6 663.11 28.7
-3 -5 6 686.88 30.81
-3 -5 6 677.72 26.27
3 5 -6 640.44 25.49
3 -5 -6 680.16 31.05
3 -5 -5 25.39 9.17
3 5 -5 38.14 8.67
3 -5 -5 42.94 8.49
-3 5 5 22.99 6.15
-3 -5 5 41.77 9.61
-3 5 5 27.17 8.07
-3 -5 5 39.35 8.36
-3 -5 5 34.94 6.9
-3 5 4 176.87 11.04
3 5 -4 203.1 13.69
3 -5 -4 202.89 13.73
-3 -5 4 230.19 12.84
-3 5 4 197.23 13.56
-3 -5 4 211.3 13.7
3 -5 -4 206.45 15.36
-3 5 3 23.85 7.94
-3 -5 3 40.48 8.44
-3 -5 3 45.96 9.16
3 -5 -3 19.33 7.42
3 5 -3 31.93 8.03
-3 -5 3 49.73 7.77
3 5 -2 1142.63 39.88
3 -5 -2 1170.97 43.67
3 5 -2 1127.99 43.59
-3 -5 2 1115.83 45.29
-3 -5 2 1129.21 42.69
-3 5 2 1182.79 43.89
-3 -5 2 1172.83 43.72
3 5 -1 908 33.01
3 -5 -1 914.57 36.65
3 5 -1 921.09 36.87
3 5 -1 937.82 37.4
-3 -5 1 941.56 38.58
-3 5 1 937.27 36.41
-3 -5 1 921.61 36.46
-3 5 0 914.22 37.85
3 -5 0 916.42 36.99
3 5 0 926.32 37.15
3 5 0 948.07 37.84
-3 -5 0 894.81 37.93
-3 5 0 930.96 36.3
-3 -5 0 923.56 36.4
3 -5 1 991.85 39.78
3 5 1 1034.5 40.22
3 5 1 1008.54 40.46
-3 -5 -1 999.09 40.93
-3 5 -1 1010.01 38.9
-3 -5 -1 1047.67 39.32
-3 -5 -1 985.61 36.81
3 5 2 481.45 23.18
3 5 2 418.11 22.99
-3 -5 -2 463.03 23.5
-3 5 -2 493.68 22.22
-3 -5 -2 505.98 22.34
-3 -5 -2 414.99 19.9
3 -5 2 471.46 22.89
-3 -5 -3 151.87 13.21
-3 5 -3 151.83 11.95
-3 -5 -3 165.17 12.09
3 -5 3 134.01 10.57
3 -5 3 149.4 12.49
3 5 3 140.01 12.45
3 -5 4 964.96 39.55
-3 -5 -4 1116.88 42.51
3 -5 4 1098.61 42.51
3 5 4 1062.26 42.53
3 -5 5 432.23 21.79
-3 -5 -5 508.52 24.09
3 -5 5 515.38 24.89
3 5 5 477.95 24.6
-3 -5 -6 1072.96 42.48
3 -5 6 1056.17 43.67
3 5 6 1079.33 43.97
3 -5 7 43.37 10.43
3 5 7 50.05 10.63
-3 -5 -7 45.41 9.42
-3 -5 -8 195.46 15.81
-3 -5 -8 205.19 14.52
3 -5 8 230.54 17.35
3 5 8 197.85 16.64
-3 -5 -9 0.62 10.13
3 -5 9 -7.49 9.69
3 5 9 11.94 9.5
-3 -5 -9 0.5 7.73
-3 -5 -10 187.01 17.21
-3 -5 -10 173 13.48
3 -5 10 195.01 17.17
3 5 10 152.43 15.73
3 -5 11 41.77 12
3 5 11 27.29 11.61
-3 -5 -11 29.22 12.67
-3 -5 -11 26.81 8.58
-3 -5 -12 149.66 17.26
3 -5 12 157.12 17.57
3 5 12 148.07 17.05
3 -5 13 0.93 11.85
3 5 13 0.91 11.72
-3 -5 -13 -4.15 12.85
-3 -5 -14 350.76 24.97
3 -5 14 317.38 24.34
3 5 14 294.34 24.2
3 -5 15 -2.03 12.17
3 5 15 -9.02 12.35
-3 -5 -15 -4.61 13.85
-3 6 16 41.14 11.47
-3 6 15 9.43 9.89
-3 -6 14 157.79 18.18
-3 -6 14 161.81 15.83
-3 6 14 164.22 15.57
-3 -6 13 46.95 13.12
-3 -6 13 60.1 11.53
-3 6 13 61.84 11.71
-3 -6 12 25.76 11.66
-3 -6 12 21.72 10.48
-3 -6 11 413.92 25.28
-3 -6 11 362.06 22.28
3 6 -10 92.57 11.72
-3 -6 10 117.7 15.15
-3 -6 10 104.36 12.95
3 -6 -10 123.89 12.46
3 -6 -9 67.43 13.18
3 -6 -9 79.38 10.77
-3 -6 9 100.64 13.88
-3 -6 9 98.52 12.33
3 6 -9 101.68 11.13
-3 -6 8 349.91 21.86
-3 -6 8 305.15 19.75
3 6 -8 301.52 17.63
3 -6 -8 334.49 17.87
3 6 -8 293.29 16.31
3 -6 -8 295.89 20.62
3 6 -7 39.76 7.63
3 -6 -7 50.85 11.53
-3 -6 7 42.91 11.11
-3 -6 7 49.17 10.56
-3 -6 7 49.03 7.17
3 6 -7 37.46 8.59
3 -6 -7 42.04 8.46
-3 6 6 161.9 12.41
-3 -6 6 224.27 17.2
-3 -6 6 181.23 15.22
3 6 -6 190.96 13.36
3 -6 -6 166.64 13.1
-3 -6 6 202.14 11.96
3 -6 -6 202.52 16.73
3 6 -6 211.18 12.22
-3 6 5 456.14 22.18
3 6 -5 546.03 24.13
3 -6 -5 537.96 23.98
-3 -6 5 525.24 22.48
-3 6 5 546.52 24.12
-3 -6 5 501.2 23.61
3 -6 -5 535.99 27.47
3 -6 -4 71.1 9.51
3 -6 -4 70.33 11.53
-3 6 4 62.33 8.3
-3 6 4 73.99 9.55
-3 -6 4 68.24 9.13
-3 -6 4 87.99 9.03
3 6 -4 68.85 9.05
-3 6 3 41.93 8.16
-3 -6 3 29.17 7.71
-3 -6 3 44.54 9.77
3 -6 -3 29.75 7.72
3 6 -3 43.66 8.08
3 6 -2 300.69 14.87
3 -6 -2 266.54 16.46
3 6 -2 333.39 17.02
-3 -6 2 309.57 19.17
-3 6 2 291.47 16.47
-3 -6 2 343.86 17.07
3 6 -1 108.39 9.73
3 -6 -1 113.49 10.73
3 6 -1 132.96 10.94
-3 6 1 116.38 10.27
-3 -6 1 141.44 10.65
-3 -6 1 120.48 13.03
3 -6 0 609.15 27.21
3 6 0 622.35 27.51
3 6 0 619.31 25.34
-3 -6 0 632.46 29.8
-3 6 0 641.56 26.87
-3 -6 0 638.13 26.92
3 -6 1 312.54 17.56
3 6 1 302.24 17.66
3 6 1 302.25 16.22
-3 -6 -1 306.66 19.28
-3 6 -1 347.67 17.3
-3 -6 -1 318.22 17.09
-3 -6 -1 319.79 16.3
-3 -6 -2 4.62 6.52
-3 -6 -2 0.61 8.33
3 -6 2 6.1 7.21
3 6 2 -4.12 7.64
-3 6 -2 4.8 6.68
-3 -6 -2 2.22 6.65
3 -6 3 379.74 19.71
-3 -6 -3 396.88 22.09
-3 6 -3 431.99 20.33
-3 -6 -3 405.56 20.02
3 -6 3 432.16 21.1
3 6 3 421.1 21.3
-3 -6 -3 361.52 19.42
3 -6 4 38.42 8.49
-3 -6 -4 38.05 9.68
3 -6 4 35.93 8.8
3 6 4 32.62 8.65
3 -6 5 93.1 10.93
-3 -6 -5 108.34 12.28
3 -6 5 105.27 11.97
3 6 5 106.13 11.82
3 -6 6 0.56 7.63
3 -6 6 5.72 8.42
3 6 6 3.82 8.67
-3 -6 -6 12.23 8.59
3 -6 7 93.25 11.73
-3 -6 -7 133.95 12.93
3 -6 7 123.11 13.54
3 6 7 134.41 13.74
3 -6 8 39.57 10.8
3 6 8 81.56 12.43
-3 -6 -8 48.52 9.99
-3 -6 -9 261.09 17.75
3 -6 9 320.61 20.72
3 6 9 322.95 21
3 -6 10 124.17 14.22
3 6 10 103.14 14.29
-3 -6 -10 90.63 11.52
3 -6 11 5.84 10.31
3 6 11 -1.66 10.93
-3 -6 -11 -1.54 8.38
3 -6 12 29.09 12.11
3 6 12 35.75 12.68
3 -6 13 36.07 12.88
3 6 13 11.93 11.7
-3 -6 -13 2.54 13.11
3 -6 14 -11.66 12.25
3 6 14 -10.59 11.86
-3 -6 -14 6.25 12.85
-3 -7 15 -4.42 12.23
-3 7 15 -8.39 11.07
-3 -7 14 390.83 27.05
-3 7 14 322.82 22.67
-3 -7 13 15.83 13.06
-3 7 13 18.41 11.08
-3 -7 12 848.47 40.84
-3 7 12 762.2 36.34
3 -7 -11 44.43 13.2
-3 -7 11 34.5 12.48
-3 -7 11 30.76 11.22
3 -7 -10 179.44 18.13
-3 -7 10 193.35 18.52
-3 -7 10 190.12 16.76
3 7 -9 15.63 7.92
3 -7 -9 20.23 11.2
3 -7 -9 4.18 7.64
-3 -7 9 11.98 11.19
-3 -7 9 9.29 9.48
-3 -7 8 440.98 25.59
-3 -7 8 367.81 22.31
3 7 -8 376.37 19.65
3 -7 -8 316.36 19.19
3 -7 -8 372.93 24.02
3 -7 -7 19.73 10.87
3 7 -7 19.7 7.75
-3 7 7 28.11 8.48
3 -7 -7 10.12 7.19
-3 -7 7 28 9.79
-3 -7 7 6.14 10.29
3 -7 -6 128.76 15.2
-3 7 6 106.41 11.24
-3 -7 6 130.96 14.01
3 7 -6 140.68 11.48
3 -7 -6 109.49 10.86
3 -7 -5 45.92 12.12
-3 7 5 62.1 9.23
-3 7 5 67.9 9.52
-3 -7 5 63.99 9.3
3 7 -5 76.1 8.93
3 -7 -5 69.9 9.03
3 7 -4 274.13 15.02
3 -7 -4 238.96 14.79
-3 -7 4 235.98 17.83
-3 7 4 221.14 14.58
-3 7 4 252.1 14.88
-3 -7 4 282.9 15.28
3 -7 -4 245.9 19.06
3 7 -3 257.91 15.02
3 -7 -3 212.75 14.18
-3 -7 3 233.32 17.45
-3 7 3 237.69 14.49
-3 -7 3 230.09 14.15
3 7 -2 83.75 9.37
-3 -7 2 77.54 9.13
3 -7 -2 94.15 9.58
3 7 -2 102 9.93
-3 -7 2 79.85 11.51
-3 7 2 95.66 9.83
-3 7 1 42.97 7.53
-3 -7 1 42.44 7.54
3 7 -1 25.46 8.02
3 -7 -1 20.5 7.09
3 7 -1 36.74 7.73
-3 -7 1 39.36 10.44
3 7 0 349.21 17.44
3 -7 0 301.26 17.09
3 7 0 373.84 18.34
-3 -7 0 299.48 20.09
-3 7 0 332.42 17.41
-3 -7 0 364.34 17.66
-3 -7 -1 6.61 6.95
3 -7 1 9.08 6.84
3 7 1 2.8 6.88
3 7 1 5.12 8.05
-3 -7 -1 10.01 9.03
-3 7 -1 1.24 6.57
-3 -7 -1 2.11 6.44
3 -7 2 695.89 30.51
3 7 2 776.69 31.37
3 7 2 679.28 30.2
-3 -7 -2 675.18 32.89
-3 7 -2 788.66 30.46
-3 -7 -2 745.3 30.29
-3 -7 -2 748.62 31.19
-3 -7 -3 21.27 8.33
-3 -7 -3 27.67 10.1
3 -7 3 35.92 8.6
3 7 3 30.62 8.86
-3 7 -3 24.25 7.7
-3 -7 -3 27.36 7.48
3 -7 4 868.11 36.69
-3 -7 -4 889.24 38.25
3 -7 4 898.75 36.13
3 7 4 900.55 36.45
-3 -7 -4 808.33 35.89
3 -7 5 278.26 18.25
-3 -7 -5 315.35 19.88
3 -7 5 325.14 18.64
3 7 5 313.19 18.51
3 -7 6 140.59 13.66
-3 -7 -6 120.84 13.56
3 -7 6 121.26 13.25
3 7 6 145.27 13.76
3 -7 7 37.47 10
3 -7 7 34.65 10.01
3 7 7 25.3 9.84
-3 -7 -7 21.25 9.89
3 -7 8 30.19 10.07
3 -7 8 35.32 10.46
3 7 8 39.06 10.79
-3 -7 -8 47.13 10.65
3 -7 9 -5.27 10.24
3 7 9 2.24 9.82
3 -7 9 2.21 9.75
-3 -7 -9 1.22 9.09
3 -7 10 34.53 11.7
3 7 10 40.64 12.17
3 -7 11 21.78 11.45
3 7 11 15.89 10.93
3 -7 12 86.51 15
3 7 12 82.99 14.87
3 -7 13 29.18 12.71
3 7 13 21.9 11.91
3 -8 -14 23.71 13.07
-3 -8 14 26.81 13.78
-3 8 14 29.81 12.5
3 -8 -13 93.82 16.47
-3 -8 13 98 17.3
-3 8 13 91 14.85
3 -8 -12 24.85 13.17
-3 -8 12 32.59 13.77
-3 8 12 30 12.21
-3 -8 11 423.19 27.91
-3 8 11 347.36 23.88
3 -8 -11 387.6 26.65
3 -8 -10 -0.99 11.18
-3 -8 10 26.95 12.68
-3 -8 9 526.83 31.09
3 -8 -9 503.12 30.23
3 -8 -8 25.34 12.32
3 -8 -8 21.83 7.7
3 8 -8 36.03 8.42
-3 -8 8 33.85 12.75
-3 -8 8 26.4 10.93
-3 -8 7 555.69 29.34
3 8 -7 595.54 25.52
3 -8 -7 553.56 25.37
3 -8 -7 580.17 32.01
3 -8 -6 51.66 13.03
3 8 -6 61.02 8.82
3 -8 -6 41.99 8.19
3 8 -5 804.63 31.25
3 -8 -5 726.72 30.5
-3 -8 5 758.17 31.08
3 -8 -5 803.2 38.48
-3 -8 4 28.99 7.59
-3 -8 4 35.5 10.87
3 8 -4 31.77 7.92
3 -8 -4 24.53 7.18
3 8 -3 1503.79 51.04
3 -8 -3 1418 50.27
-3 -8 3 1307.25 54.98
3 8 -3 1254.42 53.53
-3 -8 3 1413.91 50.51
-3 -8 2 28.81 7.26
-3 -8 2 39.76 11.28
3 8 -2 30.12 8.21
3 -8 -2 14.58 7.28
3 8 -2 31.54 10.14
3 -8 -1 290.28 15.62
3 8 -1 305.93 16.22
-3 -8 1 272.28 19.8
-3 -8 1 303.17 15.8
3 8 -1 260.91 19.6
3 -8 0 -7.26 7.01
3 8 0 -7.33 7.66
-3 -8 0 4.36 9.2
3 8 0 15.43 9.48
-3 -8 0 12.23 6.87
3 -8 1 379.74 18.9
3 8 1 416.02 20.07
-3 -8 -1 393.61 23.37
-3 -8 -1 406.5 19.46
3 8 1 408.75 24.36
-3 -8 -2 -3.5 8.15
3 -8 2 10.92 6.85
3 8 2 5.01 7.32
-3 -8 -2 11.41 9.34
-3 -8 -2 4.99 6.82
3 8 2 11.04 10.58
3 -8 3 213.04 14.44
3 8 3 262.24 15.7
-3 -8 -3 221.91 17.93
-3 -8 -3 227.13 15.01
3 8 3 256.37 20.29
-3 -8 -3 268.45 17.23
-3 -8 -4 22.07 9.94
-3 -8 -4 17.67 10.27
3 -8 4 46.91 8.84
3 8 4 35.41 8.97
3 8 4 30.41 12.38
3 -8 5 262.98 18.68
-3 -8 -5 251.36 18.84
3 -8 5 262.53 16.55
3 8 5 277.34 17.37
-3 -8 -5 251.78 18.12
-3 -8 -6 14.19 9.95
3 -8 6 7.92 9.18
-3 -8 -6 14.04 9.85
3 -8 6 2.31 8.32
3 8 6 5.22 8.71
3 -8 7 842.76 39.13
3 -8 7 930.71 38.12
3 8 7 861.78 37.66
3 -8 8 15.77 10.61
3 -8 8 4.82 9.51
3 8 8 8.18 9.59
3 -8 9 438 27.01
3 -8 9 541.3 27.22
3 8 9 489.34 26.75
3 -8 10 3.88 10.13
3 8 10 13.09 10.36
3 -8 10 14.5 11.04
3 -8 11 158.57 17.54
3 -8 11 186.46 18.21
3 8 11 199.75 18.12
3 -8 12 77.33 14.22
3 8 12 61.5 13.53
3 -8 12 71.25 14.79
3 -9 -12 186.09 20.98
-3 -9 12 234.27 22.69
-3 9 12 209.17 20.32
3 -9 -11 -4.41 11.92
-3 -9 11 19.65 13.27
-3 9 11 7.51 12.3
3 -9 -10 47.5 14.77
-3 -9 10 53.24 14.88
-3 9 10 51.62 13.92
3 -9 -9 15.21 12.77
-3 -9 9 1.12 12.2
3 -9 -8 303.91 24.73
3 -9 -7 23.86 12.97
3 -9 -6 86.77 15.3
3 -9 -6 68.1 8.87
3 -9 -5 8.15 12.24
3 -9 -5 12.69 5.93
3 -9 -4 141.47 10.55
3 9 -4 163.87 14.98
3 -9 -3 75.23 7.94
3 9 -3 72.24 12.11
3 -9 -2 629.06 24.66
3 9 -2 563.09 30.05
3 9 -1 27.28 10.94
3 -9 -1 25.86 6.83
3 -9 0 508.75 21.45
3 9 0 459.35 27.81
3 -9 1 7.61 6.1
3 9 1 36.88 12.16
3 -9 2 361.97 16.96
3 9 2 307.84 23.32
-3 -9 -3 40.9 10.9
3 -9 3 28.18 7.37
3 9 3 45.19 13.35
3 -9 4 426.41 20.55
3 9 4 431.87 27.41
-3 -9 -4 432.77 24.6
-3 -9 -5 47.3 11.48
3 -9 5 22.11 8.16
3 9 5 34.13 13.14
3 -9 6 735.9 34.42
3 9 6 749.34 37.51
-3 -9 -6 616.03 32.6
3 -9 6 676.14 29.92
-3 -9 -7 16.51 10.76
3 -9 7 12.56 11.28
3 -9 7 19.47 9.11
-3 -9 -8 97.7 14.95
3 -9 8 90.09 14.76
3 -9 8 89.02 12.2
3 -9 9 -3.57 10.92
3 -9 9 -2.73 9.69
3 -9 10 78.83 14.38
3 -9 10 56.39 12.25
3 -10 -9 113.05 18.03
-3 10 9 101.41 16.86
3 -10 -8 133.13 18.44
3 -10 -7 112.33 17.43
3 -10 -6 24.93 13.88
3 10 -5 175.01 16.24
3 10 -4 5.66 10.32
3 10 -3 435.69 24.95
3 10 -2 148.66 15.65
3 10 -1 191.63 17.48
3 10 0 38.6 12.56
3 10 1 312.55 23.16
3 10 2 29.82 13.33
3 10 3 145.03 18.43
-3 -10 -3 164.21 16.76
-3 -10 -4 12.88 10.62
3 10 4 6.65 12.4
3 10 5 412.2 27.95
-3 -10 -5 408.28 25.79
-3 -10 -6 62.25 13.51
3 10 6 49.33 15.38
-3 -10 -7 101.02 15.14
3 10 7 80.24 17.53
3 11 -5 32.69 11.44
3 11 -4 66.15 13.08
3 11 -3 22.41 11.51
3 11 -2 281.72 21.43
3 11 -1 5.29 10.68
3 11 0 69.1 14.33
3 11 1 88.68 15.95
3 11 2 127.83 17.68
3 11 3 102.43 17.54
-4 0 17 -5.09 9.14
-4 0 16 145.95 14.33
4 0 -15 -1.69 9.88
4 0 -15 4.25 10.46
4 0 -14 328.17 19.51
4 0 -14 373.63 23.35
4 0 -13 12.44 10.31
4 0 -12 1241.48 51.07
4 0 -11 14.34 9.74
4 0 -10 946.75 40.95
4 0 -9 6.76 8.47
4 0 -8 345.81 21.05
4 0 -7 1.42 4.4
-4 0 7 1.02 4.82
4 0 -7 5.46 8.49
4 0 -6 156.07 13.84
-4 0 6 113.46 7.24
4 0 -5 2.55 8.05
4 0 -4 10 8.29
4 0 -3 5.11 8.26
4 0 -2 386.47 22.29
4 0 -1 -11.35 9.57
4 0 0 894.02 38.82
-4 0 -1 -0.79 4.41
4 0 1 -9.61 9.13
4 0 2 2053.5 75.9
4 0 3 3.49 8.41
4 0 4 21.12 9.39
4 0 5 3.05 8.68
4 0 6 21.12 10.33
4 0 7 1.63 9.37
4 0 8 999.94 44.57
4 0 9 -2.67 10.13
4 0 10 309.44 22.47
4 0 11 11.44 11.12
4 0 12 33.62 13.07
4 0 13 -9.24 12.65
4 0 14 24.64 13.12
4 0 15 -2.24 12.29
-4 -1 17 21.13 10.1
-4 -1 16 -0.6 9.13
-4 -1 15 163.78 15.48
4 1 -15 149.61 16.68
4 1 -14 7.36 9
-4 -1 14 20.3 10.31
4 1 -14 17.15 10.03
4 1 -13 417.36 21.27
4 1 -13 444.54 25.7
4 1 -12 12.44 8.41
4 1 -12 14.93 9.69
4 1 -11 337.55 21.44
4 1 -10 180.82 15.84
4 1 -9 101.28 12.7
4 -1 -8 199.78 12.52
-4 -1 8 230.71 13.47
4 1 -8 300.3 18.13
-4 -1 7 205.66 11.72
4 1 -7 277.52 17.28
4 -1 -7 214.18 11.33
-4 -1 6 80.61 7.38
4 1 -6 74.99 11.39
4 -1 -6 71.01 7.21
4 1 -5 184.57 15.21
4 1 -4 252.1 17.09
-4 1 3 1152.6 39.98
4 1 -3 1192.07 47.14
4 1 -2 9.18 9.89
4 1 -1 3196.91 111.62
4 1 0 353.98 21.59
4 1 1 902.04 34.7
4 1 1 651.28 24.71
-4 1 -1 849.28 26.89
-4 1 -2 65.23 7.93
4 1 2 89.86 12.25
4 1 3 191.37 15.74
4 1 4 176.44 15.72
4 1 5 119.29 13.92
4 1 6 323.88 21.78
4 1 7 581.29 30.37
4 1 8 124.14 15.41
4 1 9 188.27 17.94
4 1 10 50.91 13.32
4 1 11 519.24 30.1
4 1 12 94.9 15.78
4 1 13 437.89 28.39
4 1 14 -1.07 12.23
4 1 15 79.23 16.25
-4 -2 17 120.96 14.26
-4 -2 16 -6.43 10.32
4 2 -15 11.05 10.51
-4 -2 15 27.96 10.29
4 -2 -15 5.93 10.87
4 -2 -14 52.94 12.3
-4 -2 14 54.74 11.18
4 2 -14 49.84 12.19
4 2 -13 7.79 9.56
4 -2 -13 -1.55 9.23
-4 -2 13 5.94 9.52
4 2 -12 239.4 14.69
-4 -2 12 248.8 18.63
4 2 -12 253.6 18.85
4 -2 -12 243.33 18.66
4 2 -11 103.98 9.95
4 2 -11 136.26 14.04
4 -2 -11 123.76 14.03
-4 -2 11 91.63 8.51
4 2 -10 1100.66 40.94
4 2 -10 1291.58 48.82
4 -2 -10 1239.99 48.48
-4 -2 10 1169.63 42.06
-4 -2 9 636.12 28.46
4 2 -9 704.66 31.37
4 -2 -9 699.42 31.63
-4 -2 9 611.82 26.26
-4 -2 8 305.53 17.11
4 2 -8 334.45 20.1
4 -2 -8 315.93 19.8
4 -2 -8 303.52 16.68
4 2 -7 62.99 10.82
4 -2 -7 62.33 10.65
4 -2 -7 43.63 7.98
-4 -2 7 55.66 8.05
4 2 -6 329.89 19.96
4 -2 -6 320.4 19.73
-4 -2 6 321.76 16.31
4 -2 -6 311.52 15.78
-4 2 5 98.9 9.37
4 2 -5 103.61 11.97
4 -2 -5 86.01 11.7
-4 2 4 947.54 35.58
4 -2 -4 990.69 40.65
4 2 -4 978.9 40.45
-4 2 3 15.96 6.72
4 -2 -3 17.75 8.91
4 2 -3 19 8.71
4 -2 -2 881.13 37.57
4 2 -2 834.53 37.16
4 -2 -1 272.53 18.55
4 2 -1 262.08 18.19
4 -2 0 737.65 32.73
4 2 0 712.46 32.58
4 2 0 662.36 26.29
4 2 1 72.21 7.79
4 -2 1 94.38 12.39
4 2 1 80.16 12.16
-4 2 -1 79.15 8.61
4 2 2 515.1 23.48
-4 2 -2 620.29 25.37
4 -2 2 605.15 29.33
4 2 2 699.59 30.72
-4 -2 -3 95.38 7.72
4 2 3 89.59 12.35
-4 2 -3 89.42 10.16
4 -2 3 125.01 13.36
-4 -2 -4 261.05 13.76
4 -2 4 264.83 18.86
4 2 4 276.26 19.07
-4 -2 -5 118.94 10.52
4 -2 5 116.13 13.43
4 2 5 109.69 13.55
4 -2 6 125.3 14.69
4 2 6 137.57 14.81
4 -2 7 115.86 14.06
4 2 7 115.05 14.69
4 -2 8 243.75 19.23
4 2 8 214.56 18.78
4 -2 9 110.96 14.85
4 2 9 123.23 15.26
4 -2 10 583.31 31.82
4 2 10 586.36 32.26
4 -2 11 0.97 11.25
4 2 11 3.85 11.3
4 -2 12 72.27 14.67
4 2 12 62.67 14.29
4 -2 13 -9.38 12.29
4 2 13 -9.27 11.88
4 -2 14 50.95 15.34
4 2 14 80.26 16.1
4 -2 15 2.27 13.09
4 2 15 16.71 13.49
-4 -3 17 151.4 15.47
-4 -3 16 -0.68 10.18
-4 -3 15 339.67 21.81
4 3 -15 311.59 22.7
-4 -3 14 4.82 10.17
4 3 -14 4.92 11.02
4 -3 -14 13.03 10.86
-4 -3 13 364.76 21.98
4 3 -13 343.93 22.62
4 -3 -13 346.14 23.09
-4 -3 12 0.68 9.58
4 3 -12 -4.45 9.45
4 -3 -12 1.48 8.9
4 3 -11 92.4 12.34
4 -3 -11 72.04 11.99
-4 -3 11 72.73 11.94
-4 -3 11 88.18 13.08
-4 -3 11 72.32 7.06
-4 -3 10 127.65 13.43
-4 -3 10 124.98 14.29
4 3 -10 176.19 14.79
4 -3 -10 145.18 14.16
-4 -3 10 120.89 9.33
4 -3 -9 404.36 21.37
4 3 -9 387.11 16.44
-4 -3 9 461.82 22.99
4 3 -9 455.91 23.79
4 -3 -9 397.29 23.24
-4 -3 9 455.46 24.5
-4 -3 9 440.73 18.89
4 -3 -8 53.28 9.36
4 3 -8 85.46 11.37
4 -3 -8 86.63 11.74
-4 -3 8 58.23 10.29
-4 -3 8 95.61 12.79
-4 -3 8 63.94 8.57
4 -3 -7 52.06 8.97
4 3 -7 73.14 10.9
4 -3 -7 55.8 10.26
-4 -3 7 59.66 9.01
-4 -3 7 49.75 8.24
-4 3 6 84.72 10.42
4 3 -6 86.45 11.57
4 -3 -6 89.69 11.68
-4 -3 6 81.4 9.58
4 -3 -6 88.21 9.97
-4 3 5 118.51 11.23
4 -3 -5 149.45 13.31
4 3 -5 179.26 14.03
-4 -3 5 115.29 11.5
-4 3 4 19.41 7.89
4 -3 -4 32.16 8.94
4 3 -4 36.56 9.36
4 -3 -3 76.04 10.65
4 3 -3 81.02 10.99
4 -3 -2 232.43 16.8
4 3 -2 246.65 17
4 -3 -1 862.87 37.15
4 3 -1 828.9 36.81
4 3 0 5.42 5.96
4 -3 0 2.01 8.65
4 3 0 4.69 8.67
4 -3 1 758.78 33.82
4 3 1 716.35 33.42
4 3 1 676.77 28.81
-4 3 -1 758.07 30.01
-4 3 -2 -1.9 7.2
4 3 2 1.62 6.14
4 -3 2 4.91 9.08
4 3 2 0.71 8.75
-4 3 -3 125.21 11.94
4 -3 3 154.65 13.87
4 3 3 153.27 13.84
-4 -3 -4 398 17.35
-4 3 -4 392.37 21.2
4 -3 4 355.24 22.25
4 3 4 387.93 22.86
-4 -3 -5 258.53 14.85
4 -3 5 300.14 19.93
4 3 5 260.07 19.06
-4 -3 -6 360.98 19.13
4 -3 6 407.62 24.15
4 3 6 431.24 24.58
-4 -3 -7 176.83 13.94
4 -3 7 207.86 17.41
4 3 7 171.88 17
-4 -3 -8 -3.59 9.42
4 -3 8 2.6 9.82
4 3 8 6.06 10.84
-4 -3 -9 319.7 19.86
-4 -3 -9 313.11 18.8
4 -3 9 344.6 23.35
4 3 9 341.81 23.45
-4 -3 -10 14.2 10.49
4 -3 10 14.2 11.59
4 3 10 6.59 11.19
-4 -3 -10 7.22 8.24
-4 -3 -11 195.06 17.41
-4 -3 -11 185.82 14.23
4 -3 11 195.13 19.49
4 3 11 252.12 21
-4 -3 -12 12.13 11.72
4 -3 12 1.02 11.78
4 3 12 2.01 11.46
4 -3 13 21.12 12.85
4 3 13 40.63 13.33
-4 -3 -13 13.67 11.7
4 -3 14 -2.19 13.16
4 3 14 5.39 12.13
-4 -3 -14 13.66 12.81
-4 -4 16 81.51 13.36
-4 4 16 40.96 9.85
-4 -4 15 2.16 10.4
-4 4 15 4.38 8.61
4 4 -14 -3.27 10.39
4 -4 -14 -5.67 10.08
-4 -4 14 8.08 10.88
-4 -4 13 65.11 13.75
-4 -4 13 59.8 12.59
4 4 -13 59.61 12.34
4 -4 -13 60.75 12.59
-4 -4 12 286.25 21.6
-4 -4 12 393.06 22.86
4 4 -12 357.39 22
4 -4 -12 311.02 21.26
-4 -4 11 264.25 19.57
-4 -4 11 236.44 18.83
4 4 -11 255.45 18.38
4 -4 -11 262.45 18.72
4 -4 -10 396.59 22.77
-4 -4 10 448.58 24.58
-4 -4 10 455.44 24.9
4 4 -10 471.25 24.36
4 -4 -10 436.27 24
-4 -4 10 382.51 17.66
4 -4 -9 2.49 8.36
-4 -4 9 9.43 9.14
-4 -4 9 0.71 9.55
4 4 -9 7.38 8.82
4 -4 -9 1.33 8.12
-4 -4 9 10.78 5.88
-4 -4 8 259.66 17.75
4 4 -8 279.32 18.33
4 -4 -8 245.57 17.76
-4 -4 8 293.78 19.37
-4 -4 8 244.44 13.9
4 -4 -8 259.21 17.28
4 -4 -7 19.5 8.77
4 4 -7 36.26 9.42
4 -4 -7 25.58 9.02
-4 4 7 17.34 4.9
-4 -4 7 23.28 9.12
-4 -4 7 32.3 10.91
-4 -4 7 26.95 7.35
4 -4 -6 21.77 8.31
-4 4 6 7.54 8.93
-4 -4 6 15.85 10.27
-4 -4 6 11.67 6.79
4 4 -6 37.81 9.51
4 -4 -6 7.92 8.66
-4 4 5 191.65 14.44
4 -4 -5 218.69 16.1
4 4 -5 220.02 16.03
-4 4 4 747.41 30.48
4 -4 -4 729.3 32.86
4 4 -4 702.43 32.44
4 -4 -3 30.22 9.75
4 4 -3 59.15 9.92
-4 -4 3 45.97 11.13
4 -4 -2 427.19 23.15
4 4 -2 447.79 23.45
-4 -4 2 423.97 24.18
4 -4 -1 9.17 8.48
4 4 -1 15.12 9
-4 -4 1 8.33 9.48
4 -4 0 182.57 15.13
4 4 0 199.25 15.57
4 4 0 156.27 12.38
-4 -4 0 161.4 15.14
-4 4 -1 6.72 7.12
4 4 1 -0.92 6.92
-4 -4 -1 6.72 8.8
4 -4 1 2.04 8.58
4 4 1 4.1 9.08
4 -4 2 221.84 16.23
4 4 2 193.66 15.41
4 4 2 141.06 12.47
-4 -4 -2 193.64 15.64
-4 -4 -2 135.88 8.12
4 -4 3 2.18 4.63
4 4 3 10.14 7.71
-4 -4 -3 -7.07 8.97
4 -4 3 1.43 8.63
4 4 3 5.78 9.2
-4 -4 -4 1164.13 43.47
4 -4 4 1220.63 45.22
4 4 4 1241.09 45.76
4 -4 5 29.92 10.48
-4 -4 -5 33.93 9.97
4 4 5 18.42 9.43
-4 -4 -6 436.38 23.69
4 -4 6 478.82 26.55
4 4 6 467.74 26.46
-4 -4 -7 20.27 9.36
4 -4 7 26.06 10.82
4 4 7 16.05 10.2
-4 -4 -7 12.78 8.69
-4 -4 -8 104.12 12.65
4 -4 8 111.74 15.11
4 4 8 99.65 13.93
-4 -4 -8 106.32 12.03
-4 -4 -9 19.84 10.58
4 -4 9 23.75 11.43
4 4 9 22.76 11.69
-4 -4 -9 25.22 9.28
-4 -4 -10 146.1 15.44
-4 -4 -10 127.13 12.83
4 -4 10 171.44 18.03
4 4 10 172.92 18.54
-4 -4 -11 48.47 12.72
4 -4 11 52.87 13.96
4 4 11 55.36 13.91
-4 -4 -11 45.12 10.09
-4 -4 -12 296.02 22.06
4 -4 12 355.83 25.79
4 4 12 344.53 25.26
-4 -4 -13 3.09 11.96
4 -4 13 -6.42 13.54
4 4 13 -16.91 14.14
-4 -4 -14 158.42 18.22
4 4 14 143.09 19.27
4 -4 14 187.34 21.03
-4 -5 15 118.59 16.72
-4 -5 15 109.71 14.88
-4 5 15 110.24 13.35
-4 -5 14 24.95 12.73
-4 -5 14 11.52 11.1
-4 -5 13 36.39 13.05
4 5 -13 27.42 11.16
-4 -5 13 31.49 11.66
4 -5 -13 19.27 10.93
4 -5 -12 55.06 12.14
-4 -5 12 66.46 13.81
4 5 -12 63.69 12.06
4 -5 -12 55.46 11.79
-4 -5 12 55.07 12.63
4 -5 -11 174.39 16.94
-4 -5 11 258.65 19.99
-4 -5 11 243.29 18.98
4 5 -11 229.42 17.53
4 -5 -11 166.39 16.24
4 -5 -10 31.82 10.84
4 5 -10 39.12 10.14
4 -5 -10 61.49 11.03
-4 -5 10 40.99 12.21
-4 -5 10 34.7 11.74
-4 -5 9 241.18 18.34
-4 -5 9 276.17 19.78
4 5 -9 224.13 16.75
4 -5 -9 221.48 16.6
-4 -5 9 214.29 12.8
4 -5 -9 234.72 18.06
4 -5 -8 7.71 9
-4 -5 8 12.47 9.91
-4 -5 8 33.72 11.43
4 5 -8 23.15 9.5
4 -5 -8 13.95 8.81
-4 -5 8 22.22 7.17
4 5 -7 1859.88 60.1
4 -5 -7 1859.67 59.87
-4 -5 7 1855.18 62.43
-4 -5 7 1781.25 55.06
4 -5 -7 1768.91 59.88
4 -5 -6 0.65 8.58
4 5 -6 19.93 9.47
4 -5 -6 19.05 8.96
-4 -5 6 17.18 10.73
4 5 -5 939.66 39.12
4 -5 -5 902.5 38.77
4 -5 -4 122.53 12.95
4 5 -4 121.18 12.41
4 -5 -3 1242.7 49.77
4 5 -3 1328.63 50.36
-4 -5 3 1254.58 51.61
4 -5 -2 1.23 8.01
4 5 -2 6.82 8.02
-4 -5 2 10.07 9.59
4 -5 -1 149.01 13.59
4 5 -1 154.71 13.99
-4 -5 1 140.68 14.39
4 -5 0 82.89 11.61
4 5 0 74.34 11.03
-4 -5 0 66.72 11.51
4 -5 1 369.92 21.97
4 5 1 426.13 23.27
-4 -5 -1 388.82 22.82
-4 -5 -2 6.54 5.39
-4 -5 -2 11.51 9.17
4 -5 2 10.55 8.7
4 5 2 11.3 9.02
-4 -5 -3 70.64 7.94
-4 -5 -3 72.37 11.68
4 -5 3 107.82 12.85
4 5 3 88.07 12.71
4 -5 4 264.08 14.79
-4 -5 -4 324.8 19.95
4 -5 4 346.15 21
4 5 4 348.75 21.28
4 -5 5 168.09 12.41
-4 -5 -5 189.19 15.83
4 -5 5 207.76 17.05
4 5 5 185.36 16.69
4 -5 6 0.45 7.07
4 -5 6 2.41 9.55
-4 -5 -6 -6.93 9.27
4 5 6 2.42 10.22
-4 -5 -7 257.05 18.48
4 -5 7 305.82 21.76
4 5 7 352.03 22.95
4 -5 8 -9.68 11.13
4 5 8 7.05 10.52
-4 -5 -8 4.94 9.25
-4 -5 -9 554.57 28.1
4 -5 9 592.59 31.77
4 5 9 654.39 33.05
-4 -5 -10 5.16 10.5
4 -5 10 -11.52 11.86
4 5 10 13.37 11.35
-4 -5 -10 -7.16 9.46
-4 -5 -11 11.91 11.98
4 -5 11 30.02 13.58
4 5 11 -1.98 11.47
-4 -5 -12 12.06 12.8
4 -5 12 -3.14 12.44
4 5 12 14.47 12.99
-4 -5 -13 64.19 15.17
4 -5 13 85.14 16.26
4 5 13 97.21 16.8
4 -6 -14 222.22 20.92
-4 -6 14 233.14 22.34
-4 -6 14 229.99 20.19
4 -6 -13 3.62 11.04
-4 -6 13 24.39 13.63
4 -6 -13 9.05 10.33
-4 -6 13 -2.44 11.21
4 6 -13 20.87 10.9
4 -6 -12 242.98 20.46
-4 -6 12 253.19 21.6
-4 -6 12 255.78 20.1
4 6 -12 243.8 18.83
4 -6 -12 208.48 18.73
4 -6 -11 11.09 11.01
4 6 -11 5.7 9.66
4 -6 -11 14.59 9.62
-4 -6 11 19.62 12.13
-4 -6 11 16.3 11.37
4 -6 -10 34.12 11.17
-4 -6 10 28.6 12.06
4 6 -10 23.15 9.72
-4 -6 10 24.3 11.46
4 -6 -10 35.82 10.22
4 -6 -9 43.57 11.96
4 6 -9 60.05 10.97
4 -6 -9 43.06 10.55
-4 -6 9 49.35 12.55
-4 -6 9 47.86 12.18
-4 -6 8 623.72 31.87
-4 -6 8 609.3 31.67
4 6 -8 615.7 28.97
4 -6 -8 557.13 28.24
4 -6 -8 598.99 31.24
4 6 -7 209.25 16.02
-4 -6 7 208.16 18.43
4 -6 -7 173.76 15.21
4 -6 -7 201.5 17.21
4 6 -6 601.83 28.44
4 -6 -6 614.44 28.64
4 -6 -6 604.44 30.58
4 6 -5 13.28 9.22
4 -6 -5 9.27 8.7
4 6 -4 133.54 12.89
4 -6 -4 134.59 13.04
-4 -6 4 128.98 15.68
-4 -6 3 84.36 13.52
4 -6 -3 60.72 10.9
4 6 -3 88.27 11.11
4 -6 -2 258.45 17.46
4 6 -2 287.72 17.93
-4 -6 2 255.4 19.95
4 -6 -1 99.42 12.08
4 6 -1 96.97 11.98
-4 -6 1 81.42 13.26
4 -6 0 621.45 29.18
4 6 0 627.13 29.47
-4 -6 0 562.69 30.35
4 6 1 115.57 13.22
4 -6 1 124.22 12.96
-4 -6 -1 115.39 14.29
4 -6 2 814.75 34.27
4 6 2 815.65 34.46
-4 -6 -2 778.77 35.07
-4 -6 -2 646.22 27.77
-4 -6 -3 25.07 7.52
-4 -6 -3 42.09 11.6
4 -6 3 34.41 10.89
4 6 3 33.79 10.65
4 6 4 775.96 34.33
-4 -6 -4 655.94 32.83
-4 -6 -4 612.74 27.95
4 -6 4 799.7 34.14
4 -6 5 24.47 8.31
-4 -6 -5 32.14 11.27
4 -6 5 26.62 10.67
4 6 5 18.3 10.46
-4 -6 -6 596.51 30.18
4 -6 6 598.61 31
4 6 6 664.02 31.95
-4 -6 -7 51.79 11.64
4 -6 7 58.77 12.96
4 6 7 52.68 12.91
-4 -6 -8 276.72 19.51
4 -6 8 310.48 22.44
4 6 8 327.43 22.74
4 -6 9 2.77 11.09
4 6 9 -6.44 11.86
-4 -6 -9 9.05 9.89
4 -6 10 12.36 12.23
4 6 10 0.95 11.99
-4 -6 -10 11.96 9.81
4 -6 11 2 11.43
4 6 11 7.92 11.46
4 -6 12 68.57 15.19
4 6 12 73.45 15.49
4 -7 -13 71.8 15.8
-4 -7 13 105.56 17.32
-4 -7 13 89.87 15.04
4 -7 -12 24.01 12.24
4 7 -12 51.01 11.64
4 -7 -12 47.06 11.2
-4 -7 12 73.4 15.76
-4 -7 12 49.59 13.52
4 -7 -11 122.84 16.86
-4 -7 11 165.66 18.93
-4 -7 11 153.84 17.34
4 7 -11 157.78 15.28
4 -7 -11 143.37 15.27
4 7 -10 30.85 10.06
4 -7 -10 51.66 13.51
4 -7 -10 36.26 10.29
-4 -7 10 57.64 14.46
-4 -7 10 34.19 12.61
-4 -7 9 265.14 21.71
-4 -7 9 250.09 20.37
4 7 -9 241.32 17.58
4 -7 -9 226.5 17.4
4 -7 -9 265.38 21.12
4 -7 -8 -3.52 10.73
4 -7 -8 -4.2 8.33
-4 -7 8 -10.21 11.87
4 7 -8 7.52 8.28
-4 -7 7 162.09 17.25
4 7 -7 163.76 14.04
4 -7 -7 133.63 13.79
4 -7 -7 160.66 17.19
4 7 -6 62.3 10.74
4 -7 -6 43.69 9.76
4 7 -5 960.2 38.91
4 -7 -5 903.58 38.13
-4 -7 4 32.49 12.29
4 7 -4 32.95 9.94
4 -7 -4 17.61 8.76
4 -7 -3 141.23 13.53
4 7 -3 167.12 14.21
-4 -7 3 157.12 16.97
4 -7 -2 153.42 13.81
4 7 -2 184.33 14.67
-4 -7 2 190.2 17.5
4 -7 -1 -2.28 9.05
4 7 -1 6.46 9.27
-4 -7 1 6.53 10.66
4 -7 0 365.66 21.16
4 7 0 399.5 21.9
-4 -7 0 378.81 23.68
4 -7 1 -3.8 8.67
4 7 1 16.16 9.38
-4 -7 -1 23.86 11.51
4 -7 2 195.34 15.67
4 7 2 184.46 15.84
-4 -7 -2 187.59 17.19
4 -7 3 398.77 22.48
4 7 3 431.35 23.52
-4 -7 -3 362.65 23.38
-4 -7 -3 348.18 18.77
-4 -7 -4 57.17 10.11
-4 -7 -4 48.49 12.1
4 -7 4 69.76 12.17
4 7 4 61.17 12.06
4 7 5 340.93 21.97
-4 -7 -5 291.69 21.04
-4 -7 -5 285.41 18.33
4 -7 5 334.8 21.47
-4 -7 -6 5.88 10.46
4 -7 6 17.96 10.87
4 7 6 11.71 10.32
-4 -7 -7 384.18 23.69
4 -7 7 434.19 25.6
4 7 7 421.23 25.42
-4 -7 -8 10.63 10.83
4 -7 8 12.96 11.46
4 7 8 8.58 11.03
-4 -7 -9 127.47 15.32
4 -7 9 212.06 19.52
4 7 9 163.75 17.96
4 -7 10 14.34 12.18
4 7 10 6.68 11.67
4 -8 -11 -14.71 12.85
4 8 -11 2.7 9.12
-4 -8 11 16.68 13.74
-4 -8 11 -6.26 12.7
4 -8 -10 29.66 13.01
4 -8 -10 22.28 9.87
-4 -8 10 51.25 14.95
-4 -8 10 27.77 12.69
4 8 -10 21.53 9.64
4 -8 -9 -1.99 11.62
4 8 -9 -4.38 8.85
4 -8 -9 8.9 8.77
-4 -8 9 11.78 12.29
-4 -8 8 308.48 23.18
4 8 -8 318.25 19.03
4 -8 -8 270.16 18.24
4 -8 -8 282.09 23.32
4 -8 -7 7.76 12.16
4 -8 -7 18.67 8.9
-4 -8 7 25.22 12.78
4 8 -7 18.72 8.97
4 8 -6 929.72 38.07
4 -8 -6 902.93 37.67
4 8 -5 19.49 8.84
4 -8 -5 -5.22 7.81
4 8 -4 182.49 14.07
4 -8 -4 134.11 13.06
-4 -8 4 154.03 17.02
-4 -8 3 19.21 11.61
4 8 -3 25.53 9.31
4 -8 -3 -9.83 9.62
4 8 -2 132.77 12.73
-4 -8 2 109.26 15.48
4 -8 -2 104.45 12.14
-4 -8 1 16.34 11.81
4 -8 -1 41.47 9.84
4 8 -1 33.48 9.47
4 -8 0 361.57 20.42
4 8 0 378.44 20.85
-4 -8 0 342.61 23.61
4 -8 1 0.58 9.18
4 8 1 10.74 8.77
-4 -8 -1 24.36 11.72
4 -8 2 127.77 13.44
4 8 2 152.57 14.65
-4 -8 -2 127.13 15.99
4 -8 3 22.84 9.86
-4 -8 -3 19.24 8.27
4 8 3 27.98 10.11
-4 -8 -3 28.75 11.91
-4 -8 -4 66.29 10.94
-4 -8 -4 47.1 12.87
4 -8 4 73.64 12.1
4 8 4 70.73 12.63
-4 -8 -5 36.68 9.99
-4 -8 -5 36.32 12.17
4 -8 5 30.39 10.59
4 8 5 21.2 10.19
4 -8 6 378.2 22.83
4 8 6 400.27 23.37
-4 -8 -6 334.67 23.11
-4 -8 -6 285.91 20.3
-4 -8 -7 21.44 10.57
-4 -8 -7 5.38 10.88
4 -8 7 8.67 10.37
4 8 7 17.35 11.07
-4 -8 -8 44.06 12.05
4 -8 8 55.2 13.06
4 8 8 64.06 13.31
4 -9 -8 -9.78 13.38
4 -9 -8 5.29 7.82
-4 -9 8 0.94 12.62
-4 -9 7 86.77 14.92
4 -9 -7 73.84 10.71
4 -9 -6 1.46 7.55
4 -9 -5 501.65 23.79
4 -9 -4 13.06 7.84
-4 -9 4 24 12.54
4 -9 -3 279.7 17.26
-4 -9 3 308.06 22.71
-4 -9 2 85.24 14.64
4 -9 -2 64.82 10.52
-4 -9 1 31.83 12.47
4 -9 -1 23.99 9.09
-4 -9 0 87.28 14.38
4 -9 0 65.95 10.52
4 -9 1 53.38 9.96
-4 -9 -1 75.65 14.4
4 -9 2 145.87 13.17
-4 -9 -2 133.96 16.65
4 -9 3 748.84 32.16
-4 -9 -3 701.65 36.34
-4 -9 -4 15.24 9.71
4 -9 4 18.66 9.49
-4 -9 -4 6.82 12.45
4 -9 5 443.77 24.11
-4 -9 -5 429.3 27.09
-4 -9 -5 419.13 24.24
-4 -9 -6 7.96 9.68
-4 -9 -6 9.26 12.06
4 -9 6 -5.61 9.94
-4 -10 2 176.83 19.11
-4 -10 1 6.78 12.26
-4 -10 0 32.63 13.74
5 0 -15 207.74 19.33
5 0 -14 -0.91 10.62
5 0 -13 905.12 42.33
5 0 -12 14.58 10.24
-5 0 11 23.41 7.38
5 0 -11 45.94 12.09
-5 0 10 1.84 5.81
5 0 -10 12.41 10.33
5 0 -9 63.17 12.2
5 0 -8 15.11 10.73
5 0 -7 102.14 13.96
5 0 -6 -3.24 9.7
5 0 -5 308.97 21
5 0 -4 -3.95 9.59
5 0 -3 223.19 18.26
5 0 -2 0.82 10.14
5 0 -1 382.18 24.27
5 0 0 -0.85 10.35
5 0 1 1089.41 47.43
-5 0 -2 3.23 4.85
5 0 2 -7.07 10.73
5 0 3 266.77 20.02
-5 0 -3 179.08 11.15
5 0 4 -1.81 10.6
5 0 5 839.83 40.14
5 0 6 3.79 10.83
5 0 7 396.02 26.45
5 0 8 15.36 11.95
5 0 9 125.54 17.85
5 0 10 -2.17 12.14
5 0 11 145.92 19.17
5 0 12 -6.93 12.94
5 1 -15 10.42 11.64
-5 -1 15 19.03 11.93
5 1 -14 73.65 14.2
-5 -1 13 12.47 9.19
5 1 -13 28.38 12.19
-5 -1 12 230.75 16.32
5 1 -12 322.24 22.03
-5 -1 11 -2.73 7.35
5 1 -11 -7.64 11.09
-5 -1 10 664.2 29.33
5 1 -10 1005.01 38.95
5 1 -9 26.34 10.98
5 1 -8 1283.64 53.53
5 1 -7 43.94 11.89
5 1 -6 154.46 15.79
5 1 -5 69.63 11.98
5 1 -4 706.3 34.19
5 1 -3 140.44 15.37
-5 1 2 400.37 15.65
5 1 -2 409.43 24.91
-5 1 1 163.64 9.6
5 1 -1 195.63 17.9
5 1 0 466.94 27.51
5 1 1 144.87 16.33
5 1 2 212.32 18.23
-5 -1 -2 145.08 7.13
-5 1 -2 181.48 10.89
-5 -1 -3 48.25 6.29
-5 1 -3 76.93 8.81
-5 -1 -3 73.08 7.12
5 1 3 100.18 14.85
-5 1 -4 812.66 33.42
5 1 4 967.34 41.98
5 1 5 2.78 10.96
5 1 6 692.47 35.8
5 1 7 33.57 12.58
5 1 8 297.6 23.43
5 1 9 33.03 12.75
5 1 10 44.56 14.09
5 1 11 7.8 12.79
-5 -2 14 1.38 9.83
-5 -2 14 -4.93 11.82
5 2 -14 7.29 10.99
5 -2 -14 2.74 10.88
-5 -2 13 95.54 13.13
5 2 -13 128.67 16.25
-5 -2 13 127.01 16.28
5 -2 -13 134.99 16.47
5 2 -12 84.13 14.18
5 -2 -12 86.84 14.17
-5 -2 12 58.18 11
-5 -2 12 100.17 15.63
-5 -2 11 102 11.87
5 2 -11 130.46 15.45
5 -2 -11 115.48 15.57
-5 -2 10 20.49 7.86
5 2 -10 9.04 10.61
5 -2 -10 8.23 10.29
5 2 -9 17.27 10.18
5 -2 -9 23.88 10.9
5 2 -8 8.27 9.87
5 -2 -8 -2.49 9.63
5 2 -7 370.6 23.55
5 -2 -7 367.17 23.63
5 -2 -6 18.65 10.78
5 2 -6 29.96 11.41
5 -2 -5 489.85 27.48
5 2 -5 502.51 27.39
-5 2 4 47.19 8.02
5 -2 -4 44.44 11.44
5 2 -4 57.89 12.24
-5 2 3 507.86 21.31
5 -2 -3 528.98 28.15
5 2 -3 504.19 27.89
-5 2 2 31.87 7.74
5 -2 -2 44.21 11.56
5 2 -2 66.38 12.3
5 -2 -1 664.81 33.97
5 2 -1 715.45 34.69
5 -2 0 13.72 10.53
5 2 0 16.33 11.16
5 -2 1 204.66 17.84
5 2 1 216.62 18.82
-5 2 -2 25.32 7.47
5 -2 2 34.59 11.83
5 2 2 39.18 12.56
-5 2 -3 50.85 8.93
5 -2 3 54.23 12.8
5 2 3 42.66 12.06
-5 -2 -4 539.04 22.26
-5 2 -4 598.75 26.52
5 -2 4 697.07 33.32
5 2 4 671.47 33.21
-5 -2 -5 15.03 7.22
5 -2 5 18.56 11.4
5 2 5 21.43 11.53
-5 -2 -6 91.17 10.68
5 -2 6 125.28 15.74
5 2 6 126.62 16
-5 -2 -7 102.48 11.71
5 -2 7 103.9 16.04
5 2 7 123.92 16.29
-5 -2 -8 31.67 10.25
5 -2 8 38.11 13.61
5 2 8 28.83 12.77
-5 -2 -9 53.15 11.75
5 -2 9 71.73 14.94
5 2 9 71.62 15.28
-5 -2 -10 9.51 10.61
5 -2 10 26.41 13.19
5 2 10 18.64 12.95
-5 -2 -11 9.05 11.44
5 -2 11 30.42 14.12
5 2 11 15.68 13.22
5 3 -14 54.78 13.26
5 -3 -14 65.64 14.43
-5 -3 14 49.1 12.7
-5 -3 14 56.54 13.67
-5 -3 13 6.53 10.26
-5 -3 13 10.12 12.02
5 3 -13 17.66 11.32
5 -3 -13 2.65 10.68
-5 -3 12 147.43 15.53
-5 -3 12 232.49 20.18
5 3 -12 218.99 18.78
5 -3 -12 182.78 18.37
-5 -3 11 85.85 12.18
-5 -3 11 109.58 15.57
5 3 -11 115.93 14.86
5 -3 -11 116.71 15
-5 -3 10 229.62 16.89
5 3 -10 277.77 20.58
5 -3 -10 306.58 21.07
-5 -3 10 234.89 20.73
5 3 -9 -6.55 9.8
5 -3 -9 2.46 9.91
-5 -3 9 1.76 11.69
5 3 -8 12.17 9.93
5 -3 -8 8.93 9.69
5 3 -7 33.36 11.6
5 -3 -7 15.87 10.35
5 3 -6 201.28 17.36
5 -3 -6 178.85 17.02
-5 3 5 190.81 14.14
5 -3 -5 213.36 17.8
5 3 -5 217.95 17.53
-5 3 4 5.17 8.63
5 -3 -4 15.93 10.53
5 3 -4 15.12 9.64
-5 3 3 24.33 8.73
5 -3 -3 28.54 10.85
5 3 -3 26.17 10.26
5 -3 -2 76.43 13.4
5 3 -2 79.75 13.2
5 -3 -1 31.92 11.34
5 3 -1 24.42 11.36
5 -3 0 24.85 11.79
5 3 0 27.49 10.97
5 -3 1 10.35 11.01
5 3 1 43.45 11.85
5 -3 2 608.66 31.61
5 3 2 610.51 31.91
-5 3 -2 562.76 26.14
5 -3 3 56.36 13.09
5 3 3 31.98 12.58
5 -3 4 543.03 30.43
5 3 4 560.37 30.92
5 -3 5 62.78 13.66
5 3 5 77.18 14.28
-5 -3 -6 100.94 10.9
5 -3 6 145.57 16.88
5 3 6 146.03 17.15
-5 -3 -7 22.65 9.14
5 -3 7 19.83 11.94
5 3 7 33.78 13.58
-5 -3 -8 63.9 11.48
5 -3 8 58.88 14.4
5 3 8 72.32 15.16
-5 -3 -9 16.61 10.61
5 -3 9 2.15 12.12
5 3 9 6.45 11.89
-5 -3 -10 132.86 14.84
5 -3 10 173.27 20.01
5 3 10 136.82 18.78
-5 -3 -10 127.29 14.29
-5 -3 -11 15.84 11.31
5 -3 11 11.41 13.11
5 3 11 1.13 12.65
-5 -4 13 59.83 12.95
-5 -4 13 74.66 14.93
5 4 -13 50.07 13.17
5 -4 -13 68.18 13.73
5 4 -12 17.09 11.03
5 -4 -12 2.56 10.57
-5 -4 12 17.95 11.01
-5 -4 12 8.8 11.94
-5 -4 11 182.47 16.92
5 4 -11 208.95 18.54
5 -4 -11 181.65 17.98
-5 -4 11 175.99 18.28
-5 -4 10 30.03 10.74
-5 -4 10 21.26 11.96
5 4 -10 7.37 10.24
5 -4 -10 9.85 10.73
5 4 -9 129.92 14.98
5 -4 -9 95.98 14.4
-5 -4 9 137.52 17.1
5 4 -8 258.4 19.03
5 -4 -8 248.18 19.27
-5 -4 8 228.02 20.76
5 4 -7 146.41 15.53
5 -4 -7 150.28 16.15
-5 -4 7 138.52 17.47
5 4 -6 99.04 13.51
5 -4 -6 104.61 14.17
5 -4 -5 316.29 21.53
5 4 -5 335.7 21.72
-5 4 4 9.56 9.56
5 -4 -4 -1.58 10.11
5 4 -4 16.63 9.79
-5 -4 4 4.42 11.46
-5 4 3 538.11 24.66
5 -4 -3 487.43 27.65
5 4 -3 564.2 28.78
-5 -4 3 513.8 30.24
5 -4 -2 88.14 13.53
5 4 -2 88.16 13.08
-5 -4 2 77.1 14.4
5 -4 -1 537.77 28.68
5 4 -1 512.5 28.37
-5 -4 1 480.7 28.68
5 -4 0 362.49 23.65
5 4 0 374.13 24.02
5 -4 1 200.92 18.41
5 4 1 181.13 17.76
-5 -4 -2 -5.62 11.42
5 -4 2 0.88 10.87
5 4 2 12.32 10.92
-5 -4 -3 99.68 14.53
5 -4 3 113.37 15.15
5 4 3 130.43 15.95
-5 -4 -4 37.43 11.7
5 -4 4 47.65 12.86
5 4 4 50.68 13.1
-5 -4 -5 115.14 14.71
5 -4 5 142.63 16.65
5 4 5 108.83 15.84
-5 -4 -6 137.55 15.2
5 -4 6 167.39 17.96
5 4 6 158.3 17.86
-5 -4 -7 342.06 22.39
5 -4 7 360.58 25.74
5 4 7 447.53 27.53
-5 -4 -8 3.4 9.78
5 -4 8 5.17 12.24
5 4 8 17.56 12.73
-5 -4 -9 191.72 16.69
5 -4 9 250.01 22.25
5 4 9 213.83 21.39
5 -4 10 26.95 14.55
5 4 10 26.78 14.55
-5 -5 12 76.2 14.66
-5 -5 12 91.57 17.13
5 5 -12 90.94 14.11
5 -5 -12 82.33 14.44
5 5 -11 4.14 10.05
5 -5 -11 -6.55 10.42
-5 -5 11 0.8 10.41
-5 -5 11 -12.29 13.01
-5 -5 10 59.91 14.84
5 5 -10 38.33 11.37
5 -5 -10 41.89 11.52
-5 -5 9 90.79 15.32
5 5 -9 85.35 13.52
5 -5 -9 70.79 12.82
5 5 -8 308.16 21.01
5 -5 -8 259.19 20.09
-5 -5 8 269.76 22.22
5 5 -7 10.24 10.19
5 -5 -7 16.41 10.18
-5 -5 7 7.31 12.04
5 5 -6 526.25 28.87
5 -5 -6 544.71 29.25
5 5 -5 58.39 11.99
5 -5 -5 64.3 12.34
5 -5 -4 861.81 39.09
5 5 -4 908.93 39.45
-5 -5 4 801.45 39.97
5 -5 -3 17.19 10.46
5 5 -3 1.57 9.47
-5 -5 3 10.71 11.8
5 -5 -2 394.36 23.95
5 5 -2 403.39 24.09
-5 -5 2 379.14 25.35
5 -5 -1 156.88 15.8
5 5 -1 160.26 16.18
-5 -5 1 124.23 15.99
5 -5 0 485.01 27.45
5 5 0 529.49 28.58
-5 -5 0 444.73 27.5
5 -5 1 10.38 11.05
5 5 1 -13.86 11.1
-5 -5 -1 9.2 11.44
5 -5 2 249.16 20.17
5 5 2 286.22 20.96
-5 -5 -2 206.19 19.19
-5 -5 -3 1.6 10.99
5 -5 3 3.6 10.49
5 5 3 -3.61 11.38
-5 -5 -4 75.43 13.38
5 -5 4 96.63 15.04
5 5 4 83.73 14.77
-5 -5 -5 -3.03 10.67
5 -5 5 -16.32 12.02
5 5 5 0.96 11.62
-5 -5 -6 146.69 15.64
5 -5 6 151.4 17.81
5 5 6 137.28 17.68
-5 -5 -7 9.36 10.52
5 -5 7 -6.01 12.03
5 5 7 9.02 11.91
-5 -5 -8 57.14 12.04
5 -5 8 64.04 14.89
5 5 8 72.03 15.02
-5 -5 -9 14.65 10.75
5 -5 9 -2.16 13.32
5 5 9 1.07 12.71
5 -6 -10 102.95 14.55
-5 -6 10 115 18.39
5 6 -10 107.63 14.37
-5 -6 9 658.89 34.49
5 6 -9 565.38 30.02
5 -6 -9 511.59 29.46
5 -6 -9 559.08 29.79
5 6 -8 9.96 10.08
5 -6 -8 12.02 10
-5 -6 8 15.98 13.48
5 6 -7 343.39 22.08
5 -6 -7 324.33 21.78
-5 -6 7 319.59 24.82
5 6 -6 55.58 12.5
5 -6 -6 66.64 12.73
5 6 -5 494.48 27.09
5 -6 -5 467.27 26.88
-5 -6 4 30.46 13.6
5 -6 -4 30.52 11.22
5 6 -4 37.14 10.67
5 -6 -3 587.44 30.99
5 6 -3 650.39 31.69
-5 -6 3 630.14 33.8
5 -6 -2 32.1 11.56
5 6 -2 37.82 10.87
-5 -6 2 57.01 14.07
5 -6 -1 349.89 22.67
5 6 -1 328.62 21.81
-5 -6 1 345.21 23.81
5 -6 0 25.92 11.03
5 6 0 25.22 11.26
-5 -6 0 36.5 12.78
5 -6 1 386.47 24.12
5 6 1 402.32 24.64
-5 -6 -1 299.45 23.34
5 -6 2 0.87 11.06
5 6 2 -7.9 11.42
-5 -6 -2 18.1 11.56
5 -6 3 326.57 22.94
5 6 3 330.96 23.55
-5 -6 -3 319.8 22.84
-5 -6 -4 13.29 11.82
5 -6 4 25.75 11.84
5 6 4 17.5 11.59
5 -6 5 393.19 26.53
5 6 5 448.68 27.67
-5 -6 -5 350.35 24.48
-5 -6 -6 19.31 11.85
5 -6 6 18.73 12.11
5 6 6 11.82 12.1
-5 -6 -7 278.35 21.81
5 -6 7 341.8 24.86
5 6 7 309.84 24.38
5 7 -8 157.1 15.85
-5 -7 8 161.28 19.56
5 -7 -8 117.92 14.62
5 7 -7 -4.43 9.56
5 -7 -7 -7.84 9.25
-5 -7 7 -1.02 13.57
5 -7 -6 127.76 14.77
5 7 -6 155.84 15.12
5 7 -5 22.11 10.29
5 -7 -5 3.69 9.92
-5 -7 4 9.1 12.83
5 7 -4 10.67 10.63
5 -7 -4 11.11 10.31
-5 -7 3 19.07 13.23
5 -7 -3 10.27 10.05
5 7 -3 18.05 10.19
5 -7 -2 460.35 25.82
5 7 -2 479.77 26.3
-5 -7 2 449.2 28.67
5 -7 -1 72.09 12.2
5 7 -1 51.49 11.71
-5 -7 1 31.31 13.64
5 -7 0 604.97 31.16
5 7 0 617.13 31.46
-5 -7 0 610.48 33.78
5 -7 1 24.85 11.48
5 7 1 -7.3 10.46
-5 -7 -1 10.38 12.81
5 -7 2 111.44 14.75
5 7 2 107.25 14.99
-5 -7 -2 90.41 15.5
5 -7 3 4.38 11.11
5 7 3 1.76 11.06
-5 -7 -3 2.7 12.23
-5 -7 -4 31.67 13.25
5 -7 4 49.14 12.86
5 7 4 40.38 12.58
-5 -7 -5 85.79 15.43
5 -7 5 74.38 14.71
5 7 5 124.55 16.56
5 8 -4 -5.12 11.2
5 -8 -4 -26.95 12.19
-5 -8 4 1.04 13.28
5 8 -3 176.79 16.25
-5 -8 3 148.82 19.31
5 -8 -3 111.87 14.91
-5 -8 2 11.17 13.54
5 -8 -2 -13.93 11.81
5 8 -2 -2.91 10.64
-5 -8 1 20.04 13.26
5 -8 -1 16.93 11.24
5 8 -1 27.82 11.38
5 -8 0 118.73 14.8
5 8 0 86.32 13.53
-5 -8 0 76.86 16.43
5 -8 1 -11.89 12.92
5 8 1 8.39 11.19
-5 -8 -1 12.62 12.83
6 0 -10 849.1 41.47
6 0 -9 4.84 12.05
6 0 -8 397.48 26.61
6 0 -7 17.83 12.78
6 0 -6 350.84 24.82
6 0 -5 1.91 11.86
6 0 -4 172.25 18.63
6 0 -3 0.96 11.96
6 0 -2 279.06 22.45
6 0 -1 -17.07 12.71
6 0 0 12.29 12.23
6 0 1 33.58 13.36
6 0 2 340.38 25.48
6 0 3 11.74 13.5
6 0 4 2121.64 83.79
6 0 5 2.25 13.31
6 0 6 1183.74 54.59
6 1 -10 41.89 13.4
6 1 -9 6.77 11.1
6 1 -8 18.9 12.56
6 1 -7 484.03 29.63
6 1 -6 -5.84 11.86
6 1 -5 623.18 33.64
6 1 -4 29.94 12.45
6 1 -3 142.75 16.88
6 1 -2 -0.98 11.79
6 1 -1 131.46 17.03
6 1 0 22.57 13.08
6 1 1 141.7 18.26
6 1 2 -1.06 12.96
6 1 3 87.69 16.16
6 1 4 23.28 13.39
6 1 5 33.83 14.07
6 1 6 19.49 14.27
6 2 -9 4.81 11.31
6 -2 -9 6.75 11.41
6 2 -8 527.58 31.48
6 -2 -8 589.56 32.58
6 2 -7 44.11 13.96
6 -2 -7 35.15 13.09
6 2 -6 403.28 26.24
6 -2 -6 356.84 25.38
6 -2 -5 9.55 12.24
6 2 -5 1.91 11.3
6 -2 -4 243.35 21.63
6 2 -4 303.39 22.59
6 2 -3 178.51 18.21
6 -2 -3 122.05 17.14
6 -2 -2 74.12 14.94
6 2 -2 84.04 15.39
6 -2 -1 13.98 11.92
6 2 -1 1 11.36
6 -2 0 -1.03 12.33
6 2 0 6.18 12.14
6 -2 1 69.07 15.48
6 2 1 71.43 15.54
6 -2 2 204.99 20.96
6 2 2 205.8 20.75
6 -2 3 -7.48 12.22
6 2 3 -1.07 12.75
6 -2 4 238.08 22.48
6 2 4 228.82 22.15
6 -2 5 -9.04 13.12
6 2 5 4.53 13.02
6 3 -8 11.62 11.86
6 -3 -8 28.12 12.44
6 3 -7 160.59 18.82
6 -3 -7 148.44 17.84
6 3 -6 -11.63 12.58
6 -3 -6 -8.73 12.07
6 -3 -5 146.48 17.87
6 3 -5 166.55 18.26
6 -3 -4 -10.59 11.95
6 3 -4 -18.3 13.41
6 -3 -3 257.98 20.88
6 3 -3 212.49 20.26
6 -3 -2 -14.55 12.59
6 3 -2 0.97 12.43
6 -3 -1 60.62 14.02
6 3 -1 35.88 13.33
6 -3 0 21.56 12.45
6 3 0 26.8 13.27
6 -3 1 372.76 26.55
6 3 1 421.17 28.03
6 -3 2 -1.07 13
6 3 2 -18.26 14.03
6 -3 3 131.1 17.99
6 3 3 169.53 19.6
6 -3 4 -8.81 12.44
6 3 4 -9.95 13.05
6 4 -7 27.44 12.89
6 -4 -7 23.51 12.76
-6 -4 7 3.19 14.08
6 4 -6 208.23 19.76
6 -4 -6 203.27 20.02
6 -4 -5 0.96 11.91
6 4 -5 -3.85 12.28
-6 -4 4 78.02 15.94
6 -4 -4 74.81 14.77
6 4 -4 86.29 14.89
6 -4 -3 16.27 12.6
6 4 -3 30.67 13.18
-6 -4 3 45.31 15.22
6 -4 -2 2.88 12.4
6 4 -2 1.93 12.58
-6 -4 2 13.23 13.33
6 -4 -1 100.36 16.22
6 4 -1 103.4 16.14
-6 -4 1 113.14 17.3
6 -4 0 293.56 23.63
6 4 0 365.72 25.32
-6 -4 0 295.6 23.88
6 -4 1 29.12 14.25
6 4 1 17.76 13.83
-6 -4 -1 30.73 13.85
6 4 2 197.54 20.75
6 -4 2 208.53 21.05
-6 -4 -2 159.05 18.78
-6 -4 -3 85.84 15.67
6 -4 3 104.4 17.17
6 4 3 101.53 17.13
6 -5 -3 304.7 23.63
6 5 -3 360.04 24.79
-6 -5 3 301.36 25.48
6 -5 -2 -5.68 12.67
6 5 -2 6.66 12.38
-6 -5 2 17.45 13.81
6 -5 -1 717.95 36.33
6 5 -1 711.55 36.38
-6 -5 1 573.41 35.34
loop_
_exptl_oxdiff_crystal_face_indexfrac_h
_exptl_oxdiff_crystal_face_indexfrac_k
_exptl_oxdiff_crystal_face_indexfrac_l
_exptl_oxdiff_crystal_face_x
_exptl_oxdiff_crystal_face_y
_exptl_oxdiff_crystal_face_z
0.0003 1.0004 -0.0001 -0.0040 0.0021 -0.0697
-2.0010 0.0005 1.0007 -0.1235 0.2411 0.0145
-2.0016 -2.0004 1.0009 -0.1156 0.2369 0.1539
0.0002 -0.0005 -0.9984 -0.0363 -0.0214 0.0014
-0.0002 0.0005 0.9984 0.0363 0.0214 -0.0014
-0.0003 -1.0004 0.0001 0.0040 -0.0021 0.0697
2.0016 2.0004 -1.0009 0.1156 -0.2369 -0.1539
1.0003 -1.0009 -0.9994 0.0476 -0.1333 0.0631
