#------------------------------------------------------------------------------
#$Date: 2022-09-22 01:28:07 +0300 (Thu, 22 Sep 2022) $
#$Revision: 278051 $
#$URL: file:///home/coder/svn-repositories/cod/cif/7/24/55/7245517.cif $
#------------------------------------------------------------------------------
#
# This file is available in the Crystallography Open Database (COD),
# http://www.crystallography.net/
#
# All data on this site have been placed in the public domain by the
# contributors.
#
data_7245517
loop_
_publ_author_name
'Dong, Xiuyan'
'duqingcuo, li'
'Li, Yuyan'
'Sakiyama, Hiroshi'
'Muddassir, Mohd.'
'Pan, Ying'
'Srivastava, Devyani'
'Kumar, Abhinav'
_publ_section_title
;
 3,8-connected Cd(II)-based metal-organic framework as an apt luminescent
 sensor for antibiotic sulfasalazine
;
_journal_name_full               CrystEngComm
_journal_paper_doi               10.1039/D2CE01079H
_journal_year                    2022
_chemical_formula_moiety         'Cd2 (H2O)1.5 (C22 H10 O8)'
_chemical_formula_sum            'C22 H13 Cd2 O9.5'
_chemical_formula_weight         654.12
_space_group_crystal_system      monoclinic
_space_group_IT_number           15
_space_group_name_Hall           '-C 2yc'
_space_group_name_H-M_alt        'C 1 2/c 1'
_atom_sites_solution_hydrogens   geom
_audit_creation_method           SHELXL-2018/3
_audit_update_record
;
2022-09-05 deposited with the CCDC.	2022-09-21 downloaded from the CCDC.
;
_cell_angle_alpha                90
_cell_angle_beta                 92.336(1)
_cell_angle_gamma                90
_cell_formula_units_Z            8
_cell_length_a                   25.4704(4)
_cell_length_b                   10.9922(1)
_cell_length_c                   14.0786(2)
_cell_measurement_reflns_used    9918
_cell_measurement_temperature    193(2)
_cell_measurement_theta_max      29.87
_cell_measurement_theta_min      1.37
_cell_volume                     3938.39(9)
_computing_structure_refinement  'SHELXL-2018/3 (Sheldrick, 2018)'
_diffrn_ambient_temperature      193(2)
_diffrn_measured_fraction_theta_full 0.980
_diffrn_measured_fraction_theta_max 0.981
_diffrn_measurement_device_type  'Bruker diffractometer'
_diffrn_radiation_type           GaK\a
_diffrn_radiation_wavelength     1.34139
_diffrn_reflns_av_R_equivalents  0.0620
_diffrn_reflns_av_unetI/netI     0.0391
_diffrn_reflns_Laue_measured_fraction_full 0.980
_diffrn_reflns_Laue_measured_fraction_max 0.981
_diffrn_reflns_limit_h_max       31
_diffrn_reflns_limit_h_min       -31
_diffrn_reflns_limit_k_max       13
_diffrn_reflns_limit_k_min       -13
_diffrn_reflns_limit_l_max       17
_diffrn_reflns_limit_l_min       -16
_diffrn_reflns_number            22427
_diffrn_reflns_point_group_measured_fraction_full 0.980
_diffrn_reflns_point_group_measured_fraction_max 0.981
_diffrn_reflns_theta_full        53.594
_diffrn_reflns_theta_max         54.999
_diffrn_reflns_theta_min         3.811
_exptl_absorpt_coefficient_mu    12.152
_exptl_absorpt_correction_T_max  0.7518
_exptl_absorpt_correction_T_min  0.4772
_exptl_absorpt_correction_type   multi-scan
_exptl_absorpt_process_details   'SADABS 2014/5'
_exptl_crystal_colour            colorless
_exptl_crystal_density_diffrn    2.206
_exptl_crystal_description       prism
_exptl_crystal_F_000             2536
_refine_diff_density_max         2.454
_refine_diff_density_min         -1.876
_refine_diff_density_rms         0.244
_refine_ls_extinction_coef       0.00033(7)
_refine_ls_extinction_expression Fc^*^=kFc[1+0.001xFc^2^\l^3^/sin(2\q)]^-1/4^
_refine_ls_extinction_method     'SHELXL-2018/3 (Sheldrick 2018)'
_refine_ls_goodness_of_fit_ref   1.107
_refine_ls_hydrogen_treatment    constr
_refine_ls_matrix_type           full
_refine_ls_number_parameters     352
_refine_ls_number_reflns         3685
_refine_ls_number_restraints     98
_refine_ls_restrained_S_all      1.115
_refine_ls_R_factor_all          0.1206
_refine_ls_R_factor_gt           0.1098
_refine_ls_shift/su_max          0.001
_refine_ls_shift/su_mean         0.001
_refine_ls_structure_factor_coef Fsqd
_refine_ls_weighting_details
'w=1/[\s^2^(Fo^2^)+(0.1051P)^2^+224.5393P] where P=(Fo^2^+2Fc^2^)/3'
_refine_ls_weighting_scheme      calc
_refine_ls_wR_factor_gt          0.2723
_refine_ls_wR_factor_ref         0.2790
_reflns_number_gt                3196
_reflns_number_total             3685
_reflns_threshold_expression     'I > 2\s(I)'
_cod_data_source_file            d2ce01079h2.cif
_cod_data_source_block           a
_cod_original_sg_symbol_H-M      'C 2/c'
_cod_database_code               7245517
_shelx_shelxl_version_number     2018/3
_shelx_res_file
;
TITL  C2/c
    a.res
    created by SHELXL-2018/3 at 10:03:57 on 27-Aug-2022
rem  'Cd2 (H2O)1.5 (C22 H10 O8)'
CELL  1.34139 25.4704 10.9922 14.0786 90.000 92.336 90.000
ZERR  8        0.0004  0.0001  0.0002  0.000  0.001  0.000
LATT  7
SYMM  X,-Y,1/2+Z
SFAC  C H O Cd
UNIT  176 104 76 16
ACTA
TEMP -80
OMIT -3 110
L.S.  100
FMAP  2
PLAN -1
SADI  0.02 C15 O5 C15 O6 C15 O5' C15 O6' C22 O7 C22 O8 C22 O7' C22 O8'
SADI  0.02 O5 O6 O5' O6' O7 O8 O7' O8'
FLAT  0.05 C12 C15 O5 O6
FLAT  0.05 C12 C15 O5' O6'
FLAT  0.05 C19 C22 O7 O8
FLAT  0.05 C19 C22 O7' O8'
EADP  O5 O5'
EADP  O6 O6'
EADP  O7 O7'
EADP  O8 O8'
ISOR  0.01 C22
ISOR  0.01 O5 O6 O7 O8
ISOR  0.01 O1w O2w O3w
ISOR  0.05 Cd2 Cd2'
OMIT  15   7   0
OMIT  19   9   0
OMIT -23   3   1
OMIT   7   3   1
OMIT   9   3   1
OMIT  19   3   1
OMIT -16   4   1
OMIT -23   5   1
OMIT -13   5   1
OMIT -20   6   1
OMIT   8   6   1
OMIT  22   6   1
OMIT  14   8   1
OMIT   0   0   2
OMIT   4   2   2
OMIT   6   2   2
OMIT   8   2   2
OMIT  10   2   2
OMIT  12   2   2
OMIT  14   2   2
OMIT   1   3   2
OMIT   4   4   2
OMIT  -9   9   2
OMIT   7   9   2
OMIT  13   1   3
OMIT -25   3   3
OMIT -23   3   3
OMIT  11   3   3
OMIT  13   3   3
OMIT  23   3   3
OMIT  -2   4   3
OMIT  14   4   3
OMIT  20   6   3
OMIT  15   7   3
OMIT -21   1   4
OMIT -17   1   4
OMIT  15   1   4
OMIT  25   1   4
OMIT -22   2   4
OMIT  16   2   4
OMIT  20   2   4
OMIT  22   2   4
OMIT  15   3   4
OMIT -25   3   5
OMIT   3   3   5
OMIT   5   3   5
OMIT   7   3   5
OMIT   9   3   5
OMIT  11   3   5
OMIT   4   4   5
OMIT -21   5   5
OMIT   1   5   5
OMIT   8   6   5
OMIT  10   6   5
OMIT  -7   1   6
OMIT -10   2   6
OMIT   8   2   6
OMIT  12   2   6
OMIT   5   5   6
OMIT  -7   3   7
OMIT  -1   3   7
OMIT   3   3   7
OMIT  23   3   7
OMIT  -6   6   7
OMIT  -2   6   7
OMIT   5   3   9
OMIT   7   3   9
OMIT  13   3   9
OMIT  -1   5   9
rem WGHT    0.157600  159.132599
WGHT    0.105100  224.539307
EXTI    0.000334
FVAR       0.17595
PART  -1
CD1   4    0.506675    0.512087    0.273532    10.50000    0.02877    0.03429 =
         0.11177    0.01354    0.01889    0.00459
O1W   3    0.532427    0.475632    0.415607    10.50000    0.09033    0.04236 =
         0.11194    0.01994    0.03634    0.01424
O2W   3    0.478575    0.553545    0.118309    10.50000    0.01666    0.08580 =
         0.06266   -0.02283   -0.02233    0.00230
O3W   3    0.508110    0.307631    0.294357    10.50000    0.11603    0.07900 =
         0.11128   -0.00485    0.02905    0.01248
PART   0
CD2   4    0.500000    0.849486    0.250000    10.25000    0.01774    0.01068 =
         0.04631    0.00000    0.00433    0.00000
CD2'  4    0.506191    0.869345    0.268237    10.25000    0.04079    0.02753 =
         0.04055   -0.00273    0.00942   -0.00783
PART   1
CD3   4    0.451494    1.133505    0.511110    10.50000    0.03657    0.04387 =
         0.13025   -0.04689   -0.03104    0.02372
PART   2
CD3'  4    0.461140    1.149727    0.465994    10.50000    0.05174    0.10299 =
         0.11730   -0.07359   -0.03488    0.05259
PART   0
O1    3    0.422316    0.547156    0.325481    11.00000    0.06996    0.04039 =
         0.14355   -0.00306    0.05700    0.00626
O2    3    0.443636    0.692210    0.229657    11.00000    0.05330    0.04459 =
         0.11666   -0.02470    0.04211   -0.01776
O3    3    0.478257    0.809221    0.404216    11.00000    0.03336    0.07369 =
         0.07099   -0.00358    0.00495   -0.00394
O4    3    0.443421    0.939263    0.503536    11.00000    0.03078    0.07467 =
         0.08150   -0.01989   -0.01082    0.00289
PART  1
O5    3    0.129989    1.313788    0.492780    10.50000    0.05362    0.04340 =
         0.04353   -0.01000   -0.01172    0.01798
O6    3    0.075633    1.156737    0.483240    10.50000    0.05944    0.05851 =
         0.06658   -0.01061    0.00638    0.03099
PART   2
O5'   3    0.130625    1.311628    0.461995    10.50000    0.05362    0.04340 =
         0.04353   -0.01000   -0.01172    0.01798
O6'   3    0.079116    1.165133    0.514363    10.50000    0.05944    0.05851 =
         0.06658   -0.01061    0.00638    0.03099
PART   1
O7    3    0.050825    0.634212    0.176692    10.50000    0.05123    0.09919 =
         0.08372   -0.03208   -0.01072   -0.01006
O8    3    0.065170    0.466625    0.263503    10.50000    0.04357    0.07140 =
         0.08224   -0.05954   -0.01859    0.00155
PART   2
O7'   3    0.047319    0.586603    0.161541    10.50000    0.05123    0.09919 =
         0.08372   -0.03208   -0.01072   -0.01006
O8'   3    0.066948    0.482743    0.291856    10.50000    0.04357    0.07140 =
         0.08224   -0.05954   -0.01859    0.00155
PART   0
C1    1    0.417382    0.651315    0.299636    11.00000    0.02660    0.03877 =
         0.08170   -0.01208    0.01622   -0.01100
C2    1    0.375675    0.729861    0.341327    11.00000    0.01442    0.03505 =
         0.05712   -0.00103    0.00146   -0.00158
C3    1    0.324648    0.700978    0.311629    11.00000    0.01806    0.03048 =
         0.03480   -0.00601   -0.00251    0.00056
AFIX  43
H3    2    0.318874    0.632170    0.271730    11.00000   -1.20000
AFIX   0
C4    1    0.281001    0.769903    0.338427    11.00000    0.01768    0.03013 =
         0.03483    0.00272    0.00086   -0.00299
C5    1    0.289137    0.873501    0.395031    11.00000    0.03024    0.02248 =
         0.03309    0.00400    0.00330    0.00246
C6    1    0.341320    0.896553    0.428229    11.00000    0.02310    0.02624 =
         0.04598   -0.00326    0.00495   -0.00845
AFIX  43
H6    2    0.347419    0.963247    0.470153    11.00000   -1.20000
AFIX   0
C7    1    0.383816    0.827845    0.403264    11.00000    0.02593    0.02974 =
         0.05415   -0.00657    0.00025   -0.00147
C8    1    0.436704    0.854642    0.442531    11.00000    0.01116    0.06445 =
         0.07977   -0.03489    0.00017   -0.01120
C9    1    0.246762    0.954985    0.421938    11.00000    0.01943    0.03250 =
         0.03274   -0.00484   -0.00350    0.00410
C10   1    0.252259    1.079906    0.409139    11.00000    0.03560    0.03048 =
         0.03372    0.00264   -0.00466   -0.00218
AFIX  43
H10   2    0.283921    1.111531    0.385629    11.00000   -1.20000
AFIX   0
C11   1    0.211897    1.158175    0.430455    11.00000    0.05616    0.02483 =
         0.04698   -0.01026   -0.01477    0.01029
AFIX  43
H11   2    0.216199    1.243287    0.422010    11.00000   -1.20000
AFIX   0
C12   1    0.165952    1.114383    0.463497    11.00000    0.04612    0.03659 =
         0.04079   -0.00412   -0.01161    0.02247
C13   1    0.159432    0.993085    0.478516    11.00000    0.03231    0.05695 =
         0.03960    0.01020    0.00323    0.02335
AFIX  43
H13   2    0.127696    0.963849    0.503403    11.00000   -1.20000
AFIX   0
C14   1    0.199226    0.911869    0.457439    11.00000    0.01853    0.03174 =
         0.04069    0.00050   -0.00151    0.00861
AFIX  43
H14   2    0.194359    0.827127    0.466990    11.00000   -1.20000
AFIX   0
C15   1    0.122021    1.200824    0.481090    11.00000    0.05527    0.04739 =
         0.06359   -0.01321   -0.01348    0.02747
C16   1    0.228424    0.722807    0.307413    11.00000    0.01112    0.04797 =
         0.04054   -0.00813   -0.00592    0.00629
C17   1    0.191231    0.791164    0.254978    11.00000    0.02015    0.04828 =
         0.05861   -0.01257   -0.01119    0.01467
AFIX  43
H17   2    0.199526    0.871907    0.236769    11.00000   -1.20000
AFIX   0
C18   1    0.142708    0.743429    0.229225    11.00000    0.03228    0.08023 =
         0.06353   -0.03130   -0.01020    0.02559
AFIX  43
H18   2    0.117785    0.790359    0.193023    11.00000   -1.20000
AFIX   0
C19   1    0.130631    0.624634    0.257192    11.00000    0.01662    0.09743 =
         0.07785   -0.05377   -0.00542    0.00710
C20   1    0.167412    0.555614    0.307288    11.00000    0.03691    0.06726 =
         0.05559   -0.02329    0.00784   -0.01601
AFIX  43
H20   2    0.159307    0.474772    0.325522    11.00000   -1.20000
AFIX   0
C21   1    0.215363    0.603822    0.330483    11.00000    0.01909    0.04339 =
         0.05785   -0.01063    0.00202    0.00276
AFIX  43
H21   2    0.240784    0.554698    0.363513    11.00000   -1.20000
AFIX   0
C22   1    0.078529    0.566601    0.232048    11.00000    0.05969    0.08424 =
         0.08014   -0.02517    0.01066    0.00772

HKLF  4




REM   C2/c
REM wR2 = 0.2790, GooF = S = 1.107, Restrained GooF = 1.115 for all data
REM R1 = 0.1098 for 3196 Fo > 4sig(Fo) and 0.1206 for all 3685 data
REM 352 parameters refined using 98 restraints

END

WGHT      0.0918    250.4119

REM Highest difference peak  2.454,  deepest hole -1.876,  1-sigma level  0.244
Q1    1   0.4723  1.2151  0.4169  11.00000  0.05    2.45
;
_shelx_res_checksum              99408
_shelx_hkl_file
;
   4   0   0 8036.02 575.044   1
  -4   0   0 8163.42 575.289   1
  -6   0   0 1249.71 100.081   1
  -6   0   0 1319.90 92.5431   3
  -6   0   0 1254.40 92.3604   5
   6   0   0 1530.00 101.835   1
   6   0   0 1224.48 92.6844   5
  -8   0   0 61.3600 5.10545   4
   8   0   0 90.6312 17.9605   1
   8   0   0 58.0117 5.83465   2
  -8   0   0 57.4895 5.07529   3
  -8   0   0 65.7713 4.97740   5
   8   0   0 66.6643 5.74377   5
  -8   0   0 59.1151 14.5099   1
  10   0   0 668.336 47.4959   2
 -10   0   0 652.008 58.6804   1
 -10   0   0 663.252 46.9582   3
 -10   0   0 684.652 46.7837   5
  10   0   0 618.374 47.2947   5
  12   0   0 92.8249 8.87232   2
 -12   0   0 108.306 23.9278   1
 -12   0   0 99.7461 8.07969   3
 -12   0   0 101.498 7.84679   5
  12   0   0 78.4140 21.7174   1
  12   0   0 111.303 8.93784   5
  14   0   0 749.597 56.4818   2
 -14   0   0 841.615 55.9703   3
 -14   0   0 861.288 55.6421   5
  14   0   0 741.223 56.3842   5
 -14   0   0 706.481 71.6554   1
  14   0   0 734.733 74.1696   1
 -16   0   0 998.594 70.4165   3
 -16   0   0 967.783 69.9412   5
  16   0   0 1001.49 71.1104   2
  16   0   0 973.986 70.9781   5
  18   0   0 1177.00 87.8676   5
  18   0   0 1253.34 88.0734   2
 -18   0   0 1263.28 87.3489   3
 -18   0   0 1201.24 86.6740   5
  20   0   0 572.337 41.8443   2
 -20   0   0 556.585 40.9328   3
  20   0   0 553.943 41.8065   5
 -22   0   0 452.197 33.0027   3
  22   0   0 451.676 33.9569   2
  22   0   0 430.199 34.0344   5
 -24   0   0 1101.60 76.8969   3
  24   0   0 1110.14 77.7774   2
  24   0   0 991.233 77.7607   5
  26   0   0 123.437 12.1386   2
 -26   0   0 100.254 9.99576   3
 -28   0   0 26.7422 4.62261   3
  28   0   0 25.2307 7.17732   2
 -30   0   0 0.65381 3.94877   3
  30   0   0 5.24858 6.05514   2
  32   0   0 11.7788 7.23373   2
 -32   0   0 14.7316 5.72131   3
   1  -1   0 1160.96 90.6660   5
  -1  -1   0 1375.67 91.7182   1
  -1  -1   0 1261.35 90.4527   5
   1   1   0 1216.69 90.4257   5
  -1   1   0 1332.49 94.3928   1
   1   1   0 1375.86 91.8647   1
   3  -1   0 189.028 18.7154   1
  -3   1   0 156.517 17.7356   1
   3   1   0 181.141 13.1748   1
   3   1   0 157.513 11.4664   5
   3   1   0 160.889 13.1022   1
  -3   1   0 140.842 11.5836   5
  -5  -1   0 261.211 18.7145   5
   5  -1   0 249.335 19.4655   5
   5  -1   0 255.198 28.1364   1
  -5   1   0 266.129 28.1329   1
   5   1   0 293.426 23.6964   1
  -5   1   0 279.536 19.0556   5
   5   1   0 251.667 18.9727   5
  -7  -1   0 853.935 60.3557   5
  -7  -1   0 830.005 60.6392   3
  -7  -1   0 887.534 66.5112   1
   7  -1   0 802.554 61.1533   2
   7  -1   0 875.227 61.1565   5
   7   1   0 847.941 60.7220   5
  -7   1   0 766.662 60.6163   2
  -7   1   0 879.437 60.6627   5
   7   1   0 988.838 68.2651   1
   9  -1   0 1727.60 127.655   1
  -9  -1   0 1514.63 119.848   1
   9  -1   0 1496.35 112.697   5
  -9  -1   0 1602.45 112.100   4
  -9  -1   0 1462.77 112.217   3
  -9  -1   0 1619.01 111.914   5
   9  -1   0 1576.00 112.856   2
   9   1   0 1405.05 112.321   5
  -9   1   0 1390.50 112.149   2
  -9   1   0 1737.29 112.255   5
  -9   1   0 1757.28 127.971   1
   9   1   0 1695.81 112.553   2
  -9   1   0 1549.26 112.217   3
   9   1   0 1789.52 122.161   1
 -11  -1   0 3092.87 230.701   5
  11  -1   0 3725.55 249.941   1
 -11  -1   0 2925.64 240.250   1
  11  -1   0 3154.03 231.754   2
 -11  -1   0 3407.12 231.002   4
 -11  -1   0 3440.90 231.203   3
  11  -1   0 3396.14 231.736   5
  11   1   0 3422.29 231.421   5
 -11   1   0 3107.56 231.036   2
  11   1   0 3071.29 231.383   2
 -11   1   0 3259.35 247.211   1
 -11   1   0 3283.86 231.121   3
  11   1   0 3398.54 242.294   1
 -11   1   0 3248.81 231.037   5
 -13  -1   0 480.219 33.9719   5
 -13  -1   0 441.081 47.6016   1
 -13  -1   0 503.821 34.6221   3
  13  -1   0 482.922 35.3596   2
 -13  -1   0 482.782 34.3660   4
  13  -1   0 514.620 56.5963   1
 -13   1   0 486.134 34.5368   3
  13   1   0 497.757 35.0873   2
 -13   1   0 509.637 34.4358   5
  13   1   0 388.609 48.6047   1
 -13   1   0 464.905 52.7304   1
 -13   1   0 416.889 34.3669   2
  13   1   0 500.375 34.9728   5
  15  -1   0 90.9842 8.07840   2
 -15  -1   0 68.5413 5.65056   5
  15  -1   0 84.4977 8.12158   5
 -15  -1   0 76.1635 6.64449   3
 -15  -1   0 67.9069 5.92038   5
  15  -1   0 78.6378 30.0245   1
 -15   1   0 67.6066 6.80506   2
 -15   1   0 75.9576 6.60874   3
  15   1   0 70.5195 7.61621   2
 -15   1   0 83.9682 6.53311   5
  15   1   0 72.5512 7.53320   5
 -17  -1   0 197.722 14.0743   3
  17  -1   0 195.706 15.2695   2
  17  -1   0 165.634 14.9238   5
  17   1   0 191.217 45.3249   1
 -17   1   0 172.628 13.6187   5
  17   1   0 198.631 14.8045   5
 -17   1   0 176.551 13.8819   3
  17   1   0 169.954 14.7076   2
 -17   1   0 150.196 14.0384   2
 -19  -1   0 328.056 22.5538   3
  19  -1   0 300.557 23.5725   5
  19  -1   0 266.930 23.3389   2
 -19   1   0 291.637 21.9812   5
  19   1   0 298.080 23.1675   5
 -19   1   0 296.495 22.4013   3
  21  -1   0 89.4147 9.60596   2
  21  -1   0 71.8412 9.60237   5
 -21  -1   0 86.0403 7.97681   3
 -21   1   0 78.0651 7.71971   3
  21   1   0 76.5097 9.83007   5
 -21   1   0 74.5262 7.29501   5
  21   1   0 90.2417 9.25432   2
  23  -1   0 193.127 18.2813   2
 -23  -1   0 237.500 17.3120   3
  23  -1   0 182.615 18.6447   5
 -23   1   0 210.312 17.0968   3
  23   1   0 214.359 19.2516   5
  23   1   0 252.554 18.5751   2
  25  -1   0 34.8846 7.05054   2
 -25  -1   0 41.6596 5.89447   3
  25  -1   0 17.1699 7.52901   5
 -25   1   0 36.7266 5.84531   3
  25   1   0 49.6932 7.55330   2
  27  -1   0 1.76538 5.33617   2
  27  -1   0 2.56638 9.35814   5
 -27  -1   0 4.67777 3.04407   3
 -27   1   0 0.12681 3.44141   3
  27   1   0 -1.4621 5.49005   2
 -29  -1   0 5.12245 3.75026   3
  29  -1   0 3.08155 5.94780   2
  29   1   0 3.51536 5.94165   2
 -29   1   0 -5.5088 3.67073   3
 -31  -1   0 5.31949 4.81058   3
  31  -1   0 5.67553 6.21668   2
  31   1   0 2.80387 6.88114   2
 -31   1   0 -0.4966 4.25127   3
   0  -2   0 42.3883 3.48814   5
   0  -2   0 41.5456 7.32285   1
   0   2   0 35.9889 3.01128   5
   0   2   0 46.7076 8.78794   1
   2  -2   0 499.347 38.0955   5
  -2  -2   0 577.214 40.1199   1
   2  -2   0 544.300 44.8180   1
   2   2   0 571.080 40.8417   1
  -2   2   0 530.891 45.5845   1
   2   2   0 530.518 37.5812   5
  -2   2   0 488.956 37.7349   5
   4  -2   0 992.621 73.1338   1
   4  -2   0 830.450 61.7865   5
  -4  -2   0 926.128 63.0300   1
   4  -2   0 783.673 61.7772   2
  -4  -2   0 877.128 61.2619   3
   4   2   0 860.095 61.0555   5
   4   2   0 988.925 63.5464   1
  -4   2   0 913.163 72.3460   1
  -4   2   0 745.837 61.2854   2
  -4   2   0 809.625 61.3253   5
   6  -2   0 45.3626 5.51806   2
   6  -2   0 66.0883 17.6719   1
  -6  -2   0 56.9078 4.33690   3
   6  -2   0 49.8537 5.48602   5
  -6   2   0 50.2877 4.52958   5
   6   2   0 66.5243 8.78211   1
   6   2   0 53.0223 4.15847   5
  -6   2   0 48.3204 4.49666   2
  -6   2   0 85.8122 23.3265   1
   6   2   0 69.2780 8.84885   1
   8  -2   0 18.8320 3.69515   2
   8  -2   0 17.1174 3.32069   5
  -8  -2   0 12.7647 2.09860   3
   8  -2   0 13.3644 13.0966   1
   8   2   0 21.3040 8.02820   1
   8   2   0 18.6795 8.21214   1
  -8   2   0 18.2081 2.52376   2
   8   2   0 21.4271 2.40119   5
  -8   2   0 17.4379 11.5614   1
  10  -2   0 23.5841 18.7260   1
  10  -2   0 14.7732 3.47558   2
  10  -2   0 13.0777 3.09039   5
 -10  -2   0 14.8096 2.32295   4
 -10  -2   0 15.0750 2.45299   3
  10   2   0 25.8801 11.3879   1
 -10   2   0 22.6212 2.83695   5
  10   2   0 20.6103 2.98374   5
 -10   2   0 5.32612 12.6892   1
  10   2   0 22.3718 3.54062   2
  10   2   0 18.0394 10.6678   1
 -12  -2   0 2526.26 191.758   3
  12  -2   0 2660.13 192.610   2
 -12  -2   0 2507.83 191.463   4
  12  -2   0 2929.24 192.637   5
  12  -2   0 2949.47 214.645   1
  12   2   0 2546.12 191.786   5
  12   2   0 2641.62 201.375   1
 -12   2   0 2700.02 191.770   5
 -12   2   0 3182.50 222.374   1
 -12   2   0 2869.47 191.816   3
 -12   2   0 2594.69 191.757   2
  12   2   0 2757.62 201.058   1
  12   2   0 2614.21 191.887   2
  14  -2   0 298.832 51.9484   1
  14  -2   0 343.837 25.5214   2
  14  -2   0 326.397 25.3353   5
 -14  -2   0 345.545 24.1746   4
 -14  -2   0 338.220 24.5075   3
 -14   2   0 306.859 49.1538   1
  14   2   0 325.944 42.5405   1
 -14   2   0 350.007 24.4647   3
 -14   2   0 346.040 24.4252   5
 -14   2   0 336.440 24.4827   2
  14   2   0 343.156 24.8232   2
  14   2   0 289.718 24.4949   5
  14   2   0 293.669 39.7582   1
 -16  -2   0 273.631 19.3838   4
 -16  -2   0 260.621 19.7666   3
  16  -2   0 249.911 20.8421   2
  16  -2   0 281.802 20.8901   5
 -16   2   0 244.857 19.7495   2
  16   2   0 244.232 19.9397   5
 -16   2   0 250.970 19.5967   3
  16   2   0 294.694 20.3443   2
 -16   2   0 258.148 19.5861   5
  16   2   0 243.320 47.3914   1
  18  -2   0 171.787 15.2316   2
 -18  -2   0 196.371 14.1749   3
  18  -2   0 170.754 15.2168   5
  18   2   0 178.001 14.6494   5
 -18   2   0 153.164 14.1961   2
 -18   2   0 150.016 13.7212   3
 -18   2   0 184.332 13.8992   5
  18   2   0 207.569 14.9179   2
 -20  -2   0 488.161 34.0576   3
  20  -2   0 410.012 34.8938   5
 -20   2   0 457.170 33.8026   3
  20   2   0 439.925 34.3955   5
 -20   2   0 450.941 33.6105   5
  20   2   0 504.499 34.5434   2
  22  -2   0 114.855 12.6426   5
  22  -2   0 151.533 12.7449   2
 -22  -2   0 117.838 10.7858   3
  22   2   0 102.454 11.6353   2
 -22   2   0 118.745 10.5119   5
 -22   2   0 130.129 10.8707   3
  24  -2   0 31.1065 7.02765   5
  24  -2   0 21.2859 5.82640   2
 -24   2   0 26.0908 4.39418   3
 -24   2   0 21.2140 4.62994   5
 -26  -2   0 21.2790 4.35925   3
  26  -2   0 30.9005 6.93486   2
  26  -2   0 42.3743 8.98504   5
  26   2   0 16.8325 5.84501   2
 -26   2   0 11.1809 3.71724   3
  28  -2   0 6.04335 6.18681   2
 -28  -2   0 0.16065 3.81333   3
  28   2   0 5.39391 5.76552   2
 -28   2   0 3.97817 2.79918   3
 -30  -2   0 4.55615 4.21351   3
  30  -2   0 2.74927 5.94890   2
  30   2   0 4.37499 7.30968   2
 -30   2   0 0.14538 3.56655   3
 -32  -2   0 3.40166 5.05277   3
  32  -2   0 11.0294 6.65217   2
  -1  -3   0 9073.30 662.766   1
   1   3   0 9628.56 665.684   1
  -1   3   0 9380.86 668.157   1
  -3  -3   0 7671.46 515.059   1
   3  -3   0 6854.88 512.052   2
   3  -3   0 7335.09 522.207   1
  -3   3   0 6931.66 523.733   1
   3   3   0 7568.97 516.721   1
  -5  -3   0 3786.25 253.477   1
   5  -3   0 3560.11 251.897   5
   5  -3   0 3513.51 251.918   2
  -5  -3   0 3385.38 251.116   4
  -5  -3   0 3406.02 251.201   3
   5   3   0 3367.63 250.954   5
  -5   3   0 3341.13 251.287   2
  -5   3   0 3777.87 267.309   1
   5   3   0 4012.75 254.713   1
  -7  -3   0 2896.73 208.652   4
   7  -3   0 2953.11 209.591   5
   7  -3   0 3090.95 227.248   1
  -7  -3   0 2758.94 208.788   3
   7  -3   0 2984.30 209.674   2
  -7   3   0 2928.54 208.932   2
  -7   3   0 3087.51 209.014   5
   7   3   0 3023.32 208.515   5
   9  -3   0 1157.61 97.6417   1
  -9  -3   0 1127.20 75.2312   3
   9  -3   0 1072.93 76.1424   2
  -9  -3   0 1053.22 74.9327   4
   9  -3   0 1047.21 75.9900   5
   9   3   0 1181.11 78.8912   1
  -9   3   0 1050.30 75.2604   2
  -9   3   0 920.224 75.2098   5
   9   3   0 1006.63 74.8454   5
   9   3   0 1026.61 74.9134   2
  11  -3   0 428.228 63.3638   1
 -11  -3   0 383.520 25.1096   3
  11  -3   0 351.876 26.1309   2
  11  -3   0 326.557 25.8646   5
 -11  -3   0 353.298 24.6766   4
  11   3   0 311.764 24.8100   2
 -11   3   0 324.387 25.0326   2
  11   3   0 330.823 24.7214   5
 -11   3   0 333.680 25.0617   5
 -11   3   0 297.921 47.1790   1
  11   3   0 371.470 31.5931   1
  13  -3   0 14.7510 4.02284   2
  13  -3   0 13.0921 3.79524   5
 -13  -3   0 17.4108 2.98882   3
  13  -3   0 28.9949 34.6712   1
 -13  -3   0 18.4884 2.72465   4
  13   3   0 16.0621 3.24943   2
 -13   3   0 -16.752 23.0719   1
  13   3   0 14.8717 2.89479   5
 -13   3   0 14.3004 2.57602   5
  13   3   0 10.0250 14.4015   1
 -13   3   0 14.1411 2.88421   2
 -13   3   0 8.89039 2.23797   3
  13   3   0 4.31592 12.8925   1
  15  -3   0 38.8944 6.55346   2
  15  -3   0 15.8477 31.7707   1
  15  -3   0 44.9724 6.55320   5
 -15  -3   0 44.6456 4.82682   3
 -15  -3   0 40.5899 4.43527   4
 -15   3   0 43.4921 4.95818   5
  15   3   0 22.7279 19.8798   1
 -15   3   0 43.5398 4.71889   3
 -15   3   0 45.0954 5.35405   2
  15   3   0 41.8859 5.61258   5
  15   3   0 43.9098 5.63711   2
 -17  -3   0 179.221 15.5202   3
  17  -3   0 230.972 17.3144   2
  17  -3   0 206.085 16.9533   5
 -17  -3   0 183.189 15.0624   4
 -17   3   0 217.136 15.5555   3
  17   3   0 174.123 15.7927   5
  17   3   0 193.612 15.8480   2
 -17   3   0 199.010 15.8189   2
 -17   3   0 216.527 15.6342   5
  19  -3   0 846.529 55.0706   2
  19  -3   0 674.248 54.4123   5
 -19  -3   0 710.877 53.5736   3
  19   3   0 665.858 53.4697   2
 -19   3   0 726.570 53.5785   2
 -19   3   0 773.145 53.4960   5
 -19   3   0 779.513 53.4932   3
  21  -3   0 759.463 56.3091   5
  21  -3   0 828.034 56.6053   2
 -21  -3   0 757.638 55.2476   3
 -21   3   0 753.193 54.9980   3
 -21   3   0 776.259 55.0215   5
  21   3   0 685.062 55.0509   2
  23  -3   0 562.878 40.8225   2
  23  -3   0 526.051 40.7086   5
 -23  -3   0 534.618 39.5846   3
 -23   3   0 547.525 39.2032   5
  23   3   0 477.145 39.4048   2
 -23   3   0 551.477 39.3471   3
 -25  -3   0 314.610 23.5590   3
  25  -3   0 294.459 25.1784   5
  25  -3   0 302.382 24.8394   2
  25   3   0 287.606 23.6648   2
 -25   3   0 350.807 23.4174   3
 -25   3   0 256.559 23.0587   5
 -27  -3   0 153.856 13.2387   3
  27  -3   0 163.794 14.5986   2
  27  -3   0 135.972 16.6518   5
  27   3   0 123.422 14.0505   2
 -27   3   0 147.299 12.8333   3
 -29  -3   0 44.3339 6.57506   3
  29  -3   0 51.8489 8.31858   2
  29   3   0 32.2507 8.30448   2
 -29   3   0 32.4059 5.31945   3
  31  -3   0 21.7616 7.00617   2
 -31  -3   0 13.7017 5.52325   3
   0  -4   0 1969.20 127.276   3
   0  -4   0 1784.21 127.233   5
   0  -4   0 1808.22 127.235   4
   0  -4   0 1778.29 134.675   1
   0   4   0 1701.11 127.101   2
   0   4   0 1763.13 127.122   5
   0   4   0 1812.95 139.764   1
  -2  -4   0 664.977 47.8727   3
   2  -4   0 703.494 48.2836   5
  -2  -4   0 655.570 47.8391   4
   2  -4   0 726.438 48.3507   2
  -2  -4   0 680.073 53.8179   1
  -2  -4   0 674.225 47.5499   5
  -2   4   0 691.109 63.5585   1
  -2   4   0 694.632 47.9335   5
   2   4   0 619.526 47.6840   5
   2   4   0 701.660 58.2748   1
   2   4   0 633.092 47.7112   2
  -2   4   0 661.586 47.8871   2
   4  -4   0 221.778 16.1871   5
   4  -4   0 221.712 31.6599   1
  -4  -4   0 209.080 15.3159   4
   4  -4   0 220.500 16.2599   2
  -4  -4   0 231.278 20.5173   1
  -4  -4   0 210.055 15.3901   3
   4   4   0 209.592 23.8730   1
   4   4   0 183.049 15.1001   5
   4   4   0 191.862 15.1567   2
  -4   4   0 215.768 15.5264   2
  -4   4   0 226.787 15.5948   5
  -4   4   0 205.226 33.3240   1
   6  -4   0 151.872 31.6306   1
  -6  -4   0 129.301 9.25099   3
  -6  -4   0 116.981 9.06976   4
   6  -4   0 123.380 10.3422   5
   6  -4   0 126.408 10.4497   2
   6   4   0 118.539 8.86417   5
   6   4   0 118.225 8.89938   2
   6   4   0 134.687 15.5917   1
  -6   4   0 139.751 31.0722   1
  -6   4   0 112.556 9.43247   5
  -6   4   0 115.915 9.40090   2
   8  -4   0 1295.11 93.8165   2
  -8  -4   0 1361.50 92.8891   3
  -8  -4   0 1285.21 92.6310   4
   8  -4   0 1367.18 93.8310   5
   8  -4   0 1411.50 117.267   1
   8   4   0 1264.82 92.4305   5
  -8   4   0 1161.77 113.855   1
  -8   4   0 1408.47 93.1344   5
   8   4   0 1222.69 92.4266   2
  -8   4   0 1318.18 93.0171   2
  10  -4   0 527.631 38.4236   2
  10  -4   0 562.190 38.4504   5
  10  -4   0 605.117 69.5532   1
 -10  -4   0 509.603 37.2700   3
 -10  -4   0 481.672 36.9162   4
 -10   4   0 561.559 37.5549   5
 -10   4   0 466.858 62.4891   1
  10   4   0 451.611 36.7363   5
 -10   4   0 536.029 37.4375   2
  10   4   0 507.748 36.8230   2
  12  -4   0 944.049 94.8677   1
 -12  -4   0 708.269 55.9016   4
  12  -4   0 818.202 57.5758   2
 -12  -4   0 765.426 56.3916   3
  12  -4   0 879.936 57.6206   5
 -12   4   0 706.608 84.4618   1
  12   4   0 772.861 55.9462   2
  12   4   0 726.875 55.8629   5
 -12   4   0 833.752 56.5902   5
 -12   4   0 778.356 56.4795   2
 -14  -4   0 70.2605 7.30555   3
  14  -4   0 75.8696 45.1383   1
 -14  -4   0 71.0121 6.89734   4
  14  -4   0 91.8200 9.32434   2
  14   4   0 79.7762 7.34442   2
 -14   4   0 92.9958 7.86543   2
 -14   4   0 93.1890 7.62937   5
 -14   4   0 98.6965 73.5472   1
 -16  -4   0 25.0164 3.96443   4
  16  -4   0 29.2726 5.48685   2
  16  -4   0 23.7913 5.14494   5
 -16  -4   0 25.8887 4.21067   3
 -16   4   0 32.4802 4.32833   3
  16   4   0 22.7282 4.15626   2
 -16   4   0 34.1082 5.14818   2
 -16   4   0 27.8028 4.67425   5
  18  -4   0 150.155 14.8668   5
  18  -4   0 160.855 15.0338   2
 -18  -4   0 173.656 13.0046   4
 -18  -4   0 178.089 13.7354   3
 -18   4   0 156.953 13.2881   3
 -18   4   0 151.015 13.8309   2
  18   4   0 166.446 13.6286   2
 -18   4   0 173.258 13.6549   5
 -20  -4   0 478.291 33.5912   3
  20  -4   0 417.468 34.4613   2
  20  -4   0 428.165 34.5244   5
 -20   4   0 408.735 33.4676   2
 -20   4   0 452.388 33.3187   5
 -20   4   0 458.593 33.1586   3
  20   4   0 478.162 33.2558   2
  22  -4   0 124.385 14.9051   5
  22  -4   0 158.685 15.2109   2
 -22  -4   0 180.484 14.1597   3
  22   4   0 175.107 14.2731   2
 -22   4   0 164.834 13.8770   5
 -22   4   0 160.141 13.5472   3
 -24  -4   0 282.991 21.2094   3
  24  -4   0 263.300 22.3033   2
 -24   4   0 239.491 20.7212   5
 -24   4   0 249.350 20.5957   3
  24   4   0 287.331 21.2726   2
  26  -4   0 7.52908 5.71933   2
 -26  -4   0 11.8704 4.56393   3
  26  -4   0 7.74272 7.66113   5
  26   4   0 26.2022 6.77927   2
 -26   4   0 4.51376 6.62751   5
 -26   4   0 8.58092 4.20502   3
 -28  -4   0 6.99218 4.50239   3
  28  -4   0 9.64388 6.36047   2
 -28   4   0 11.4357 4.48821   3
 -30  -4   0 11.5887 5.50213   3
  30  -4   0 8.99589 6.67142   2
 -30   4   0 1.42268 4.91041   3
  -1  -5   0 2766.55 206.895   1
  -1  -5   0 3025.80 198.284   3
   1  -5   0 2692.73 208.857   1
  -1  -5   0 2813.74 197.947   5
   1  -5   0 2860.79 198.304   4
  -1  -5   0 2918.82 198.247   4
   1  -5   0 2964.45 198.361   5
  -1  -5   0 2676.59 197.877   5
   1   5   0 2671.20 198.086   2
  -1   5   0 2930.44 198.262   5
   1   5   0 2707.47 198.109   5
  -1   5   0 2688.67 198.176   2
   1   5   0 2846.25 213.816   1
  -1   5   0 2769.84 216.539   1
  -3  -5   0 548.770 47.5310   1
   3  -5   0 543.744 40.1084   2
   3  -5   0 606.434 40.2327   5
  -3  -5   0 556.109 39.6681   3
  -3  -5   0 570.481 39.6285   4
   3  -5   0 542.749 56.4824   1
   3   5   0 604.928 53.8178   1
   3   5   0 496.412 39.4400   2
  -3   5   0 596.417 39.8411   5
   3   5   0 517.165 39.4460   5
  -3   5   0 541.709 39.7155   2
  -3   5   0 534.840 62.4135   1
   5  -5   0 600.601 43.3612   2
  -5  -5   0 589.987 42.5871   3
   5  -5   0 633.255 43.4314   5
  -5  -5   0 561.658 42.4454   4
   5  -5   0 685.824 65.2204   1
  -5  -5   0 574.506 47.3920   1
   5   5   0 521.808 42.2873   2
  -5   5   0 641.151 42.8712   5
   5   5   0 648.198 52.5152   1
  -5   5   0 648.890 42.8153   2
  -5   5   0 603.742 69.2899   1
   5   5   0 516.257 42.2600   5
   7  -5   0 86.5483 8.13225   2
   7  -5   0 86.4646 7.97386   5
  -7  -5   0 75.6917 6.16017   4
   7  -5   0 100.105 34.4825   1
  -7  -5   0 79.2683 6.43043   3
  -7   5   0 71.4945 30.7158   1
   7   5   0 63.7033 6.01505   2
  -9  -5   0 29.8948 3.18914   4
   9  -5   0 23.7448 4.65462   2
   9  -5   0 28.3064 5.10194   5
  -9  -5   0 28.3984 3.45311   3
   9  -5   0 59.2554 41.2598   1
  -9   5   0 23.8685 28.1313   1
   9   5   0 27.2091 3.32343   5
  -9   5   0 28.4785 3.95376   2
  -9   5   0 24.7125 3.96601   5
   9   5   0 22.7089 3.16307   2
 -11  -5   0 80.3344 7.08608   4
  11  -5   0 98.4884 9.30591   5
 -11  -5   0 81.8428 7.57487   3
  11  -5   0 35.9589 59.5135   1
  11  -5   0 90.0168 9.65670   2
 -11   5   0 48.4481 46.0954   1
  11   5   0 77.8785 7.04890   2
 -11   5   0 95.4828 7.97351   5
 -11   5   0 94.5301 7.91585   2
 -13  -5   0 184.950 14.0853   4
  13  -5   0 178.555 16.1616   2
 -13  -5   0 179.339 14.6355   3
  13  -5   0 185.851 73.4369   1
  13  -5   0 198.770 16.1318   5
 -13   5   0 206.944 14.9802   5
 -13   5   0 180.728 14.7778   2
  13   5   0 173.875 14.0038   2
  15  -5   0 332.424 26.4208   2
  15  -5   0 346.482 26.3787   5
 -15  -5   0 321.713 24.3768   4
 -15  -5   0 326.049 25.1101   3
 -15   5   0 333.128 25.1285   5
 -15   5   0 353.619 25.2959   2
  15   5   0 314.563 24.4028   2
  17  -5   0 567.998 43.6371   5
 -17  -5   0 549.288 41.6718   4
  17  -5   0 545.065 43.6318   2
 -17  -5   0 562.780 42.5951   3
 -17   5   0 651.699 42.7802   5
  17   5   0 548.002 41.8363   2
 -17   5   0 619.747 42.7854   2
 -17   5   0 584.176 42.3062   3
  19  -5   0 732.143 55.2712   5
  19  -5   0 724.532 55.2791   2
 -19  -5   0 820.154 54.4565   3
 -19   5   0 713.235 53.7509   3
 -19   5   0 726.689 54.2128   2
  19   5   0 739.386 53.4760   2
 -19   5   0 735.101 54.0758   5
  21  -5   0 329.510 29.3480   5
 -21  -5   0 395.327 28.7301   3
  21  -5   0 365.944 29.6588   2
 -21   5   0 330.350 28.6668   2
 -21   5   0 399.605 28.5820   5
  21   5   0 382.631 27.9998   2
 -21   5   0 392.343 28.1412   3
 -23  -5   0 310.160 23.1484   3
  23  -5   0 311.762 24.3895   2
  23  -5   0 234.519 23.9818   5
 -23   5   0 297.145 22.4405   3
 -23   5   0 291.805 22.9481   5
 -25  -5   0 80.9218 9.11895   3
  25  -5   0 70.3416 11.9216   5
  25  -5   0 80.0154 10.7252   2
 -25   5   0 62.6022 9.73294   5
 -25   5   0 71.1358 8.46842   3
 -27  -5   0 10.8808 4.87066   3
  27  -5   0 8.45668 6.32785   2
 -27   5   0 12.0526 5.26694   3
  29  -5   0 8.51367 6.79563   2
 -29  -5   0 26.2884 5.74189   3
 -29   5   0 14.7657 7.07846   3
   0  -6   0 2248.75 152.166   4
   0  -6   0 2175.92 151.796   5
   0   6   0 2131.38 174.961   1
   0   6   0 2087.24 152.075   5
   0   6   0 2109.52 152.039   2
   2  -6   0 3831.86 254.505   5
  -2  -6   0 3534.10 254.277   4
  -2  -6   0 3585.24 264.468   1
   2  -6   0 3286.26 268.820   1
   2  -6   0 3850.76 254.526   4
  -2  -6   0 3866.82 254.409   3
   2  -6   0 3362.67 254.248   2
   2   6   0 3397.50 254.209   5
  -2   6   0 3622.50 254.379   2
  -2   6   0 3688.14 254.464   5
   2   6   0 3640.40 272.021   1
  -2   6   0 3499.37 279.786   1
   2   6   0 3669.48 254.255   2
   4  -6   0 821.393 54.7569   5
   4  -6   0 744.682 54.5445   2
  -4  -6   0 782.091 63.5170   1
  -4  -6   0 804.064 54.0898   4
   4  -6   0 698.004 76.2533   1
  -4  -6   0 756.475 54.1451   3
  -4   6   0 755.922 54.2890   2
   4   6   0 705.737 53.9105   2
   4   6   0 765.536 69.8482   1
   4   6   0 703.009 53.9295   5
  -4   6   0 790.273 54.4056   5
  -4   6   0 729.041 86.7144   1
  -6  -6   0 825.257 53.3745   4
  -6  -6   0 665.803 57.3618   1
   6  -6   0 711.320 82.6222   1
  -6  -6   0 746.026 53.4609   3
   6  -6   0 824.346 54.4385   5
   6  -6   0 753.503 54.2290   2
   6   6   0 739.284 53.1599   2
  -6   6   0 735.248 53.6564   2
   6   6   0 710.462 53.1355   5
  -6   6   0 704.662 90.5076   1
   8  -6   0 290.410 23.3503   2
  -8  -6   0 324.802 21.9411   4
   8  -6   0 307.238 23.3567   5
  -8  -6   0 303.537 22.1585   3
  -8   6   0 248.093 61.1475   1
  -8   6   0 312.861 22.5800   5
   8   6   0 273.556 21.7387   5
  -8   6   0 295.854 22.4073   2
   8   6   0 289.977 21.7383   2
 -10  -6   0 336.473 24.4500   4
  10  -6   0 342.880 26.2027   5
  10  -6   0 399.368 86.9031   1
  10  -6   0 332.900 26.2348   2
 -10  -6   0 323.646 24.8459   3
 -10   6   0 354.036 25.1643   2
  10   6   0 316.458 24.3101   2
 -10   6   0 336.216 25.2141   5
 -10   6   0 308.165 81.7777   1
 -12  -6   0 82.0053 7.56929   3
 -12  -6   0 71.4526 6.87341   4
  12  -6   0 81.1057 9.55168   2
  12  -6   0 80.2676 9.35365   5
 -12   6   0 81.1996 7.91446   5
 -12   6   0 81.6380 7.77288   2
  12   6   0 72.7124 7.06485   2
 -14  -6   0 41.1464 5.57389   4
  14  -6   0 62.3526 8.36540   5
 -14  -6   0 55.7011 6.53495   3
  14  -6   0 63.2310 8.77878   2
 -14   6   0 55.0204 6.74898   5
  14   6   0 56.9299 6.23914   2
 -14   6   0 47.3683 6.37237   2
 -16  -6   0 105.612 10.5649   3
  16  -6   0 139.901 12.6151   5
 -16  -6   0 99.2697 9.66278   4
  16  -6   0 126.707 12.7311   2
 -16   6   0 110.376 10.1073   3
  16   6   0 86.6777 10.0079   2
 -16   6   0 122.298 10.8619   2
 -16   6   0 127.406 10.8051   5
 -18  -6   0 173.500 16.1268   3
  18  -6   0 206.021 17.6938   5
  18  -6   0 219.662 18.0050   2
 -18   6   0 193.995 16.2490   5
 -18   6   0 175.038 16.2801   2
 -18   6   0 186.737 15.6492   3
  20  -6   0 217.106 18.4614   5
  20  -6   0 229.632 18.6312   2
 -20  -6   0 183.740 16.8967   3
 -20   6   0 194.364 16.9023   5
 -20   6   0 196.251 17.3282   2
 -20   6   0 182.938 16.2250   3
  22  -6   0 311.587 25.3167   5
 -22  -6   0 274.954 23.7491   3
  22  -6   0 328.391 25.2858   2
 -22   6   0 312.610 24.5522   2
 -22   6   0 269.749 23.6375   5
 -22   6   0 303.542 23.2869   3
 -24  -6   0 272.730 22.5739   3
  24  -6   0 301.229 24.0270   2
  24  -6   0 290.570 24.1557   5
 -24   6   0 281.250 21.9398   3
 -24   6   0 259.164 22.6350   5
  26  -6   0 256.631 20.5322   2
 -26  -6   0 220.493 19.2587   3
 -26   6   0 223.858 18.8734   3
 -28  -6   0 135.901 12.3696   3
  28  -6   0 105.305 13.0741   4
  28  -6   0 138.071 13.8798   2
   1  -7   0 723.060 50.4905   5
  -1  -7   0 631.284 70.0012   1
   1  -7   0 646.517 74.2910   1
  -1  -7   0 776.195 50.9558   4
   1  -7   0 739.304 51.0089   4
   1   7   0 707.833 86.5397   1
  -1   7   0 693.488 50.9234   2
  -1   7   0 696.240 51.0394   5
  -1   7   0 680.318 92.0045   1
   1   7   0 724.377 50.8946   2
   1   7   0 684.101 50.9214   5
   3  -7   0 326.551 25.0781   2
   3  -7   0 346.221 24.3106   4
  -3  -7   0 271.950 42.4893   1
   3  -7   0 342.378 24.1836   5
  -3  -7   0 315.284 24.0450   3
  -3  -7   0 339.731 23.9894   4
  -3   7   0 335.938 24.2600   2
   3   7   0 277.052 57.5028   1
  -3   7   0 338.233 69.5994   1
  -3   7   0 319.854 24.3286   5
   3   7   0 302.249 24.0366   5
   3   7   0 328.042 24.0239   2
  -5  -7   0 -0.2591 17.4475   1
   5  -7   0 43.9785 5.32346   5
   5  -7   0 -12.737 42.8564   1
   5  -7   0 36.3050 4.56755   4
  -5  -7   0 34.8131 4.29877   3
   5  -7   0 41.7908 5.91982   2
  -5  -7   0 37.9362 4.10717   4
   5   7   0 33.3463 24.2464   1
   5   7   0 30.8850 4.85808   5
   5   7   0 34.1079 4.47538   2
  -5   7   0 20.3819 58.1894   1
  -5   7   0 36.2757 4.78860   2
   7  -7   0 7.83778 3.67852   5
  -7  -7   0 16.5701 2.74637   4
  -7  -7   0 18.2389 3.19651   3
  -7   7   0 13.3743 3.16622   2
  -7   7   0 11.7772 3.37743   5
   7   7   0 20.4123 3.29907   2
   9  -7   0 169.519 15.5351   2
   9  -7   0 182.973 15.4577   5
  -9  -7   0 182.016 13.7121   4
  -9  -7   0 173.590 14.1142   3
  -9   7   0 175.782 14.3891   2
  -9   7   0 182.956 14.7118   5
   9   7   0 177.159 13.7964   2
  11  -7   0 231.591 19.5196   2
 -11  -7   0 243.234 17.4230   4
  11  -7   0 228.434 19.2952   5
 -11  -7   0 223.309 17.9127   3
  11   7   0 206.775 17.3316   2
 -11   7   0 243.611 18.4289   5
 -11   7   0 230.326 18.2048   2
  13  -7   0 525.766 37.2753   5
  13  -7   0 495.226 37.1973   2
 -13  -7   0 443.777 34.9330   4
 -13  -7   0 472.158 35.7449   3
 -13   7   0 519.647 36.0654   2
  13   7   0 404.008 34.7673   2
 -13   7   0 525.870 36.1840   5
 -15  -7   0 82.5067 8.09036   4
  15  -7   0 64.2704 10.6166   2
 -15  -7   0 84.4145 8.91341   3
  15  -7   0 75.2851 10.6158   5
 -15   7   0 82.1850 8.88425   2
 -15   7   0 82.3976 8.93501   5
  17  -7   0 46.7915 8.50835   5
 -17  -7   0 61.8067 7.97801   3
  17  -7   0 52.9810 9.09713   2
 -17   7   0 54.9099 7.98694   2
 -17   7   0 58.3124 8.01683   5
 -17   7   0 47.3416 6.98147   3
  19  -7   0 87.5239 11.7097   5
 -19  -7   0 98.9901 10.6566   3
  19  -7   0 86.8625 12.3053   2
 -19   7   0 92.3073 9.60548   3
 -19   7   0 95.4565 10.4896   5
 -19   7   0 101.683 10.8760   2
 -21  -7   0 238.278 18.9466   3
  21  -7   0 230.488 19.9922   2
  21  -7   0 207.837 19.7231   5
 -21   7   0 205.034 17.7498   3
 -21   7   0 210.257 18.5922   5
 -21   7   0 228.940 19.1989   2
  23  -7   0 110.831 12.3746   2
  23  -7   0 79.5440 12.5477   5
 -23  -7   0 109.134 10.8975   3
 -23   7   0 76.6404 13.1086   2
 -23   7   0 98.1772 10.4625   3
 -23   7   0 85.9182 10.9423   5
  25  -7   0 80.1929 10.7127   2
 -25  -7   0 53.9455 8.16828   3
 -25   7   0 44.5492 7.94868   3
  27  -7   0 -0.1106 6.74828   2
  27  -7   0 11.9562 6.14492   4
 -27  -7   0 13.9958 5.87797   3
   0  -8   0 745.719 51.5190   4
   0   8   0 740.516 51.6625   2
   0   8   0 652.597 51.6463   5
   2  -8   0 672.178 44.2656   4
  -2  -8   0 628.778 43.9813   4
   2  -8   0 605.380 43.3935   5
   2   8   0 522.729 44.0786   5
  -2   8   0 586.205 44.3860   5
   2   8   0 590.697 44.0223   2
  -2   8   0 642.677 44.3164   2
   4  -8   0 601.450 39.7516   4
   4  -8   0 558.626 39.2798   5
  -4  -8   0 574.747 39.2522   4
  -4  -8   0 496.147 39.2575   3
   4   8   0 497.315 39.2245   2
  -4   8   0 598.451 39.8426   2
   4   8   0 455.276 39.3580   5
   6  -8   0 415.132 29.8569   4
   6  -8   0 424.467 29.9306   5
  -6  -8   0 415.419 29.2571   4
  -6  -8   0 359.698 29.3142   3
  -6   8   0 425.044 29.9572   2
   6   8   0 345.494 29.2104   2
  -6   8   0 398.771 30.1538   5
   8  -8   0 43.8557 5.93843   4
   8  -8   0 43.2650 7.01466   5
  -8  -8   0 34.5085 4.88659   4
  -8  -8   0 37.8495 5.38615   3
   8  -8   0 33.2053 7.14833   2
   8   8   0 35.2187 5.32689   2
  -8   8   0 42.5177 6.67805   5
  -8   8   0 41.9056 5.99852   2
 -10  -8   0 37.1691 5.10467   4
 -10  -8   0 36.3058 5.62473   3
  10  -8   0 40.7553 6.91272   5
  10  -8   0 34.7716 7.42483   2
 -10   8   0 42.7684 6.20836   2
 -10   8   0 41.6811 6.96195   5
  10   8   0 31.4260 5.39149   2
 -12  -8   0 15.5427 4.03522   3
  12  -8   0 11.1491 5.20160   5
  12  -8   0 13.8579 6.78386   2
 -12  -8   0 11.8973 3.42901   4
 -12   8   0 10.2886 3.88491   2
 -12   8   0 6.71892 4.02640   5
 -14  -8   0 241.258 21.1076   3
  14  -8   0 280.873 23.3080   2
 -14  -8   0 249.741 20.3081   4
  14  -8   0 280.818 22.6746   5
 -14   8   0 278.082 21.5132   2
 -14   8   0 263.131 21.5112   5
  16  -8   0 90.2517 13.1477   2
  16  -8   0 85.2074 11.7237   5
 -16  -8   0 96.5223 10.6256   3
 -16   8   0 90.2246 10.5496   5
 -16   8   0 97.4983 10.4802   2
 -18  -8   0 557.860 41.1730   3
  18  -8   0 550.648 42.2743   2
  18  -8   0 511.947 41.8394   5
 -18   8   0 547.797 41.0337   5
 -18   8   0 528.299 40.2541   3
 -18   8   0 569.594 41.2164   2
  20  -8   0 404.657 33.9261   5
  20  -8   0 412.285 33.8852   2
 -20  -8   0 417.442 32.9542   3
 -20   8   0 455.246 33.1266   2
 -20   8   0 433.971 32.8553   5
 -20   8   0 424.498 32.1949   3
  22  -8   0 297.647 24.6995   2
  22  -8   0 277.301 23.5947   4
 -22  -8   0 328.562 23.9661   3
  22  -8   0 277.198 24.9132   5
 -22   8   0 281.622 23.0129   3
 -22   8   0 267.273 23.8116   5
 -22   8   0 312.403 24.4713   2
 -24  -8   0 121.495 12.2372   3
  24  -8   0 110.430 13.8915   2
  24  -8   0 114.562 11.8607   4
 -24   8   0 91.4239 20.6267   2
  26  -8   0 19.9937 8.25823   2
 -26  -8   0 19.8128 5.52571   3
  26  -8   0 11.4195 6.31454   4
   1  -9   0 155.026 12.3211   4
  -1  -9   0 144.589 12.1443   4
   1   9   0 137.744 12.6497   2
  -1   9   0 145.160 12.8462   2
  -3  -9   0 116.081 9.78418   4
   3  -9   0 114.181 10.1169   4
   3   9   0 102.491 10.4913   2
  -3   9   0 117.063 10.6293   2
  -3   9   0 101.473 11.9927   5
  -5  -9   0 144.242 11.8010   4
   5  -9   0 126.967 11.7085   5
   5  -9   0 156.446 12.3876   4
  -5   9   0 132.280 13.5577   5
   5   9   0 135.522 12.4037   2
  -5   9   0 143.680 12.6170   2
  -7  -9   0 776.973 53.3413   4
   7  -9   0 784.428 54.0931   4
   7  -9   0 705.345 53.5704   5
  -7  -9   0 682.727 53.5392   3
  -7   9   0 715.733 54.4050   5
   7   9   0 740.758 53.4236   2
  -7   9   0 752.572 54.1607   2
   9  -9   0 47.3220 7.11874   4
   9  -9   0 45.8475 6.77233   5
  -9  -9   0 38.4526 5.65425   4
  -9  -9   0 40.5006 5.82821   3
  -9   9   0 30.3903 6.33114   5
  -9   9   0 36.5888 6.24043   2
   9   9   0 39.6747 6.19607   2
 -11  -9   0 146.386 13.2395   3
 -11  -9   0 136.160 12.5231   4
  11  -9   0 160.849 14.6638   5
  11  -9   0 151.580 13.8154   4
 -11   9   0 141.024 14.3335   5
 -11   9   0 162.592 13.8292   2
  13  -9   0 13.4065 6.19427   5
 -13  -9   0 38.1817 6.82590   3
  13  -9   0 21.8951 8.98138   2
  13  -9   0 22.5095 5.72009   4
 -13   9   0 17.1275 5.22537   2
 -13   9   0 16.4543 5.56946   5
 -15  -9   0 32.1885 6.25975   3
  15  -9   0 20.4658 5.47482   4
  15  -9   0 21.1313 9.61880   2
  15  -9   0 22.3653 6.99305   5
 -15   9   0 22.1261 6.21530   5
 -15   9   0 27.5288 6.51105   2
  17  -9   0 58.7768 9.12650   4
 -17  -9   0 63.6214 9.10309   3
  17  -9   0 60.0023 11.1336   2
  17  -9   0 52.0123 9.23414   5
 -17   9   0 64.0229 9.31613   2
 -17   9   0 47.8689 7.97071   5
 -17   9   0 43.5906 7.37921   3
 -19  -9   0 89.3886 10.8925   3
  19  -9   0 86.0410 10.6525   4
  19  -9   0 95.5961 14.8848   2
 -19   9   0 77.5675 10.9622   5
 -19   9   0 58.2342 9.50585   3
 -19   9   0 91.0942 10.9133   2
 -21  -9   0 91.8319 10.9914   3
  21  -9   0 62.6013 11.8883   2
  21  -9   0 93.0847 10.8532   4
 -21   9   0 73.0631 11.8599   2
 -23  -9   0 88.1642 10.4733   3
  23  -9   0 77.6336 9.88645   4
  23  -9   0 74.5459 12.6045   2
 -23   9   0 55.0546 11.2499   2
 -25  -9   0 146.160 14.0343   3
   0 -10   0 102.888 9.41408   4
   0  10   0 87.7652 14.7711   5
   0  10   0 90.0746 10.4203   2
  -2 -10   0 153.721 13.0516   4
   2 -10   0 156.185 13.2947   4
   2  10   0 162.764 14.2537   2
  -2  10   0 135.217 16.8696   5
  -2  10   0 159.716 14.2715   2
  -4 -10   0 84.6906 8.73880   4
   4 -10   0 102.625 9.40806   4
  -4  10   0 81.3188 13.3289   5
  -4  10   0 90.4434 10.3164   2
   4  10   0 83.2781 10.3169   2
  -6 -10   0 75.2477 7.67947   4
   6 -10   0 61.1694 7.71286   4
  -6  10   0 63.4214 8.84487   2
  -6  10   0 60.4111 9.92683   5
   6  10   0 68.3648 9.52195   2
   8 -10   0 7.03509 5.07662   5
   8 -10   0 13.5677 4.44151   4
  -8 -10   0 7.58956 3.95240   4
  -8  10   0 3.06846 6.38768   5
   8  10   0 14.2549 5.96838   2
  -8  10   0 11.9246 5.36990   2
  10 -10   0 30.3076 6.92563   5
 -10 -10   0 32.0009 5.97246   3
 -10 -10   0 40.9570 6.61810   4
  10 -10   0 27.6400 5.77124   4
 -10  10   0 38.7465 7.77178   5
 -10  10   0 52.2935 7.75342   2
  12 -10   0 19.2133 6.28474   4
  12 -10   0 22.8094 7.17077   5
 -12 -10   0 15.4284 5.65757   3
 -12 -10   0 14.3821 5.50736   4
 -12  10   0 16.7925 6.58173   5
 -12  10   0 18.5582 6.06251   2
 -14 -10   0 11.2998 5.98736   3
  14 -10   0 5.71476 7.12199   5
  14 -10   0 6.95957 5.06489   4
 -14  10   0 1.81378 6.20551   5
 -14  10   0 8.75544 5.53814   2
  16 -10   0 -1.8604 8.03304   5
  16 -10   0 4.94115 5.56141   4
 -16 -10   0 9.52593 5.68752   3
 -16  10   0 2.52145 6.52729   3
 -16  10   0 2.09319 6.70455   5
 -16  10   0 8.98401 5.73399   2
  18 -10   0 16.5944 6.24021   4
 -18 -10   0 3.93483 5.97108   3
 -18  10   0 0.62852 5.70521   2
  20 -10   0 19.5395 6.13715   4
 -20 -10   0 15.0938 6.69603   3
 -20  10   0 21.2432 7.33501   2
  22 -10   0 57.9324 8.89991   4
 -22 -10   0 47.1252 8.76617   3
   1 -11   0 567.938 42.4869   4
  -1 -11   0 557.664 42.4229   4
  -1  11   0 603.719 43.6008   2
   1  11   0 570.685 43.3805   2
  -3 -11   0 439.614 34.0606   4
   3 -11   0 494.033 34.5012   4
   3  11   0 443.784 34.9920   2
  -3  11   0 389.322 37.5358   5
  -3  11   0 497.247 35.5234   2
   5 -11   0 466.626 33.6717   4
  -5 -11   0 407.284 33.0262   4
  -5  11   0 486.800 34.7841   2
   5  11   0 439.042 34.0892   2
  -5  11   0 413.824 36.3735   5
   7 -11   0 58.1732 8.16593   4
  -7 -11   0 50.8558 7.94861   4
  -7  11   0 67.6105 9.91004   2
  -7  11   0 51.4038 11.1761   5
   7  11   0 64.8759 9.46793   2
   9 -11   0 30.4584 6.31783   4
  -9 -11   0 14.3538 5.33156   4
  -9  11   0 21.1971 9.38301   5
  -9  11   0 23.4993 6.66351   2
  11 -11   0 4.74039 4.21076   4
 -11 -11   0 12.4687 6.62825   4
 -11  11   0 6.90604 5.85728   2
 -11  11   0 4.52727 7.81986   5
  13 -11   0 23.3741 5.68081   4
 -13  11   0 24.2394 9.49018   5
 -13  11   0 39.0589 7.61217   2
 -15 -11   0 31.4691 7.57450   3
  15 -11   0 51.7921 8.13005   4
 -15  11   0 49.3872 8.27014   2
  17 -11   0 105.532 11.6292   4
 -17 -11   0 79.4500 11.6473   3
 -17  11   0 106.454 12.1268   2
 -19 -11   0 274.353 23.6697   3
  19 -11   0 294.579 23.6076   4
 -19  11   0 304.231 24.1974   2
   0 -12   0 28.5196 5.79051   4
   0  12   0 26.1189 8.17386   2
  -2 -12   0 6.94277 4.81531   4
   2 -12   0 11.2431 4.88605   4
   2  12   0 18.1461 7.59374   2
  -2  12   0 6.61534 6.91867   2
   4 -12   0 3.38842 4.48228   4
  -4 -12   0 3.86215 4.73444   4
  -4  12   0 0.51442 6.58969   2
   4  12   0 15.3794 7.98888   2
  -6 -12   0 19.0117 5.70737   4
   6 -12   0 12.7231 5.19846   4
   6  12   0 16.4685 8.81646   2
  -6  12   0 15.3049 7.07192   2
   8 -12   0 82.7025 9.80301   4
  -8 -12   0 80.4824 10.9584   4
  -8  12   0 94.3660 11.8434   2
  10 -12   0 63.7855 9.46470   4
 -10  12   0 73.7136 10.6403   2
  12 -12   0 42.6191 7.55344   4
 -12  12   0 34.7913 8.29666   2
  14 -12   0 26.7722 6.59810   4
 -14  12   0 21.2399 7.94533   2
  16 -12   0 17.2312 6.43409   4
 -16  12   0 3.38903 6.87909   2
  -1 -13   0 4.27401 5.01409   4
   1 -13   0 1.11721 4.78491   4
  -1  13   0 10.3944 8.76556   2
   1  13   0 4.91559 9.27171   2
   3 -13   0 6.55730 5.08363   4
  -3 -13   0 15.8165 6.04365   4
   3  13   0 17.5734 10.7348   2
  -3  13   0 15.7957 8.39839   2
  -5 -13   0 5.63451 6.39109   4
   5 -13   0 5.97955 4.78938   4
  -5  13   0 19.8805 8.51239   2
   7 -13   0 -3.6982 4.71815   4
  -7  13   0 -2.6217 7.95284   2
   9 -13   0 7.95426 5.26505   4
  -9  13   0 3.21025 7.77767   2
  11 -13   0 0.29841 5.06678   4
 -11  13   0 -1.9212 8.28279   2
  13 -13   0 2.40389 7.12286   4
 -13  13   0 5.56587 8.18107   2
  32   0  -1 113.529 12.6559   2
 -30   0   1 80.6732 9.66239   3
  30   0  -1 109.411 11.1359   2
  28   0  -1 195.341 16.4990   2
 -28   0   1 171.092 15.1334   3
 -26   0   1 238.518 20.2308   3
  26   0  -1 283.843 21.8031   2
  24   0  -1 245.913 19.1429   2
 -24   0   1 223.639 17.6287   3
  24   0  -1 196.433 19.4600   5
  22   0  -1 99.5403 11.4840   5
  22   0  -1 114.409 11.3651   2
 -22   0   1 109.564 9.69200   3
  20   0  -1 34.3649 6.12469   5
  20   0  -1 46.1049 6.91321   2
 -20   0   1 39.5726 4.97606   3
 -20   0   1 44.2261 4.62329   5
 -18   0   1 81.0976 7.58003   3
  18   0  -1 89.2836 9.07030   5
 -18   0   1 87.0239 7.25397   5
  18   0  -1 83.4973 9.00347   2
  16   0  -1 98.4494 9.28211   2
  16   0  -1 95.8448 9.00181   5
 -16   0   1 90.8965 7.86695   3
 -16   0   1 88.7991 7.59110   5
 -14   0   1 54.6945 22.3532   1
 -14   0   1 80.5236 8.23686   2
 -14   0   1 103.274 8.14245   3
  14   0  -1 113.532 9.19137   5
  14   0  -1 102.087 9.15989   2
  14   0  -1 99.2012 28.3379   1
 -14   0   1 100.944 7.87861   5
  12   0  -1 44.8437 17.5712   1
 -12   0   1 49.5151 4.65557   3
 -12   0   1 39.5194 4.81325   2
 -12   0   1 53.9349 4.60430   5
  12   0  -1 56.8089 5.83307   5
  12   0  -1 59.1285 6.03740   2
 -12   0   1 33.8470 16.9699   1
 -10   0   1 63.5350 16.8386   1
  10   0  -1 92.2397 7.28672   5
  10   0  -1 90.2438 7.45607   2
 -10   0   1 80.9256 6.39361   5
 -10   0   1 74.5754 6.37006   3
  10   0  -1 97.6731 21.2614   1
 -10   0   1 66.3082 6.56592   2
  -8   0   1 78.9485 17.2809   1
   8   0  -1 67.8294 6.13642   5
  -8   0   1 64.3005 5.52364   3
   8   0  -1 73.8129 16.1795   1
   8   0  -1 72.3335 6.33256   2
  -8   0   1 72.3352 5.57438   5
   6   0  -1 62.5085 5.29816   5
  -6   0   1 59.8572 4.83549   5
   6   0  -1 73.1791 12.6482   1
   6   0  -1 53.7265 5.35503   2
  -6   0   1 70.6968 12.3515   1
   4   0  -1 43.6041 8.48870   1
   4   0  -1 29.8191 2.86262   5
  -4   0   1 50.5942 11.4000   1
  -4   0   1 31.4974 2.72746   5
   2   0  -1 14.0007 3.66530   1
   2   0  -1 10.8710 3.44320   1
  -2   0   1 8.98012 0.99253   5
   2   0  -1 9.09903 0.97018   5
   0   0  -1 9.22741 0.76793   5
   0   0  -1 7.99986 2.33937   1
   0   0   1 8.94408 0.82144   5
   0   0   1 6.14568 1.90957   1
  -2   0  -1 18.2055 1.61861   5
  -2   0  -1 20.4132 1.51510   5
   2   0   1 21.9348 4.11505   1
  -2   0  -1 20.9157 3.68463   1
   2   0   1 17.9319 1.63271   5
   4   0   1 35.7238 3.25636   5
  -4   0  -1 36.6148 7.14013   1
   4   0   1 39.2224 7.60640   1
  -6   0  -1 26.3178 2.87979   3
  -6   0  -1 38.7072 10.1485   1
   6   0   1 23.6698 3.38454   5
  -6   0  -1 32.9005 2.94005   4
  -6   0  -1 33.2701 2.71180   5
   6   0   1 32.3323 9.82125   1
  -8   0  -1 32.6795 2.84760   5
  -8   0  -1 39.1439 3.28415   4
  -8   0  -1 32.5601 11.0279   1
   8   0   1 40.7504 12.1835   1
  -8   0  -1 27.2340 3.03429   3
   8   0   1 28.5739 4.07322   2
   8   0   1 26.0877 3.71637   5
  10   0   1 104.257 20.8687   1
 -10   0  -1 97.0684 6.92422   4
  10   0   1 80.8677 7.58068   2
 -10   0  -1 63.9555 15.7730   1
 -10   0  -1 79.6212 6.74057   3
  10   0   1 76.0365 7.44750   5
 -10   0  -1 83.9194 6.46753   5
  12   0   1 242.861 18.4380   5
 -12   0  -1 237.656 17.5036   5
 -12   0  -1 254.695 17.8971   4
 -12   0  -1 227.148 17.8186   3
  12   0   1 225.454 34.1175   1
  12   0   1 246.479 18.5951   2
 -14   0  -1 386.208 33.4527   3
  14   0   1 476.874 53.3190   1
 -14   0  -1 448.880 33.1089   5
  14   0   1 513.818 34.2513   5
  14   0   1 502.303 34.3672   2
  16   0   1 401.845 32.1199   5
 -16   0  -1 460.005 31.6547   3
 -16   0  -1 397.578 30.8911   5
  16   0   1 472.034 32.4239   2
  18   0   1 404.651 29.4151   2
  18   0   1 352.827 29.1876   5
 -18   0  -1 395.285 28.5329   3
  20   0   1 194.371 17.6052   5
 -20   0  -1 197.135 16.1552   3
  20   0   1 223.122 17.4177   2
 -22   0  -1 201.948 15.5817   3
  22   0   1 215.118 17.0607   2
  22   0   1 155.281 17.1466   5
 -24   0  -1 96.9301 9.58539   3
  24   0   1 85.7475 13.2865   5
  24   0   1 109.058 11.4586   2
  26   0   1 9.39805 6.27420   2
 -26   0  -1 3.96769 3.56643   3
  28   0   1 14.6452 7.06298   2
 -28   0  -1 18.8380 5.30770   3
  30   0   1 15.8937 7.09771   2
 -30   0  -1 12.3798 4.63135   3
 -32   0  -1 10.9932 5.44721   3
  31  -1  -1 36.1643 6.83686   2
 -31  -1   1 32.1403 5.44529   3
  31   1  -1 17.2366 7.03476   2
 -31   1   1 27.6048 5.98633   3
 -29  -1   1 55.6153 7.77266   3
  29  -1  -1 67.5802 9.34641   2
  29   1  -1 65.1702 9.26382   2
 -29   1   1 56.3691 7.46091   3
  27  -1  -1 42.3713 9.94949   5
 -27  -1   1 61.4073 7.53366   3
  27  -1  -1 63.6956 9.37361   2
  27   1  -1 70.9667 9.07267   2
 -27   1   1 58.8484 7.00620   3
 -25  -1   1 125.688 10.5553   3
  25  -1  -1 82.7051 13.2895   5
  25  -1  -1 110.935 12.0441   2
  25   1  -1 123.509 11.8884   2
 -25   1   1 113.565 10.4204   3
  23  -1  -1 89.6937 10.2654   2
  23  -1  -1 77.7627 10.4603   5
 -23  -1   1 93.1480 8.39877   3
  23   1  -1 94.4653 9.98038   2
 -23   1   1 75.7414 7.98107   5
 -23   1   1 92.9496 8.34618   3
  23   1  -1 74.1132 10.9340   5
  21  -1  -1 205.958 16.6829   2
 -21  -1   1 175.735 15.1145   3
  21  -1  -1 221.781 16.8080   5
 -21   1   1 199.493 15.1629   3
 -21   1   1 194.565 14.9139   5
  21   1  -1 187.565 16.2324   2
  21   1  -1 150.925 16.2074   5
  19  -1  -1 37.8316 5.96314   2
 -19  -1   1 17.0928 3.35031   3
  19  -1  -1 23.1700 4.84059   5
 -19   1   1 25.8916 3.91949   5
 -19   1   1 30.9609 4.07606   3
  19   1  -1 19.8530 4.62884   5
  19   1  -1 23.0823 4.79541   2
  17  -1  -1 62.8043 7.19012   2
  17  -1  -1 50.3847 6.96168   5
 -17  -1   1 52.6209 5.55068   3
 -17  -1   1 50.9445 4.68420   5
 -17   1   1 46.8521 6.30475   2
 -17   1   1 57.7343 5.41966   5
  17   1  -1 31.8384 40.7177   1
  17   1  -1 62.9667 6.84605   5
 -17   1   1 51.7451 5.45328   3
  17   1  -1 67.4206 7.04563   2
 -15  -1   1 39.3877 4.30415   3
  15  -1  -1 45.7499 6.00227   5
  15  -1  -1 56.4254 6.27425   2
 -15  -1   1 35.8534 3.78180   5
  15  -1  -1 13.3835 24.6844   1
  15   1  -1 37.5415 5.57977   2
 -15   1   1 37.9190 4.25333   3
 -15   1   1 35.8734 4.66191   2
  15   1  -1 41.9430 5.44974   5
 -15   1   1 27.5647 36.4468   1
 -15   1   1 46.4541 4.44148   5
  15   1  -1 47.0632 29.4184   1
  13  -1  -1 75.4587 8.29180   2
  13  -1  -1 46.5821 24.2608   1
 -13  -1   1 88.4489 6.74115   5
  13  -1  -1 94.2654 8.35112   5
 -13  -1   1 89.5116 7.15347   3
  13   1  -1 109.787 26.8625   1
 -13   1   1 73.0008 7.16958   2
  13   1  -1 90.3118 7.82530   5
 -13   1   1 82.5009 7.06877   5
  13   1  -1 88.7957 7.97874   2
 -13   1   1 82.7049 7.00830   3
  13   1  -1 121.403 25.6340   1
  11  -1  -1 570.833 58.6348   1
 -11  -1   1 523.355 41.4345   3
  11  -1  -1 516.081 42.1319   2
 -11  -1   1 632.456 41.3288   4
 -11  -1   1 569.347 41.2400   5
  11  -1  -1 613.982 42.2781   5
 -11   1   1 517.123 41.4640   2
  11   1  -1 643.534 55.3328   1
  11   1  -1 656.393 42.0627   2
  11   1  -1 641.714 41.9268   5
 -11   1   1 571.258 41.4765   5
 -11   1   1 553.490 41.4204   3
 -11   1   1 520.042 56.9654   1
  -9  -1   1 1469.80 113.117   3
   9  -1  -1 1478.37 113.704   2
   9  -1  -1 1688.75 128.096   1
  -9  -1   1 1649.14 113.013   5
   9  -1  -1 1625.64 113.758   5
   9   1  -1 1672.81 123.368   1
   9   1  -1 1622.91 113.448   2
   9   1  -1 1760.73 113.442   5
  -9   1   1 1593.55 113.198   5
  -9   1   1 1654.24 113.154   3
   9   1  -1 1637.15 123.796   1
  -9   1   1 1620.56 127.983   1
  -9   1   1 1382.94 113.149   2
   7  -1  -1 1247.67 89.4538   1
   7  -1  -1 1017.85 76.4254   2
   7  -1  -1 904.703 76.2853   5
  -7  -1   1 1162.20 75.9644   3
  -7  -1   1 1183.33 75.8734   5
  -7   1   1 1090.67 76.0444   5
  -7   1   1 1017.96 87.8337   1
   7   1  -1 1146.20 76.0761   5
  -7   1   1 959.898 76.0038   2
  -7   1   1 989.141 75.8943   3
   7   1  -1 948.471 76.0318   2
   7   1  -1 1188.84 83.4506   1
   7   1  -1 1169.59 84.2200   1
   5  -1  -1 1338.85 98.9473   5
  -5  -1   1 1348.64 98.5597   5
   5  -1  -1 1518.36 99.1981   2
   5  -1  -1 1477.58 108.717   1
  -5   1   1 1376.07 108.400   1
   5   1  -1 1360.72 98.6175   5
   5   1  -1 1290.69 102.618   1
  -5   1   1 1469.32 98.7676   5
   5   1  -1 1410.65 103.858   1
  -3  -1   1 3989.48 291.313   1
   3  -1  -1 4160.69 295.530   1
  -3   1   1 4180.28 295.562   1
   3   1  -1 4067.13 291.583   1
  -1  -1   1 1319.87 92.8855   5
   1  -1  -1 1298.58 92.8322   5
  -1   1   1 1384.02 96.8669   1
   1   1  -1 1261.08 92.7835   5
  -1   1   1 1289.30 92.8703   5
   1   1  -1 1364.10 95.8107   1
   1  -1   1 765.386 57.3462   1
  -1  -1  -1 821.080 55.4435   1
  -1  -1  -1 842.734 55.1268   1
  -1   1  -1 749.661 57.1271   1
   1   1   1 751.777 53.6421   5
  -1   1  -1 647.149 53.6877   5
   3  -1   1 336.793 26.3529   5
   3  -1   1 420.704 32.4488   1
  -3   1  -1 336.659 26.0551   5
  -3   1  -1 406.821 31.6299   1
   5  -1   1 396.594 28.7805   2
   5  -1   1 426.800 28.6639   5
  -5  -1  -1 426.573 32.0558   1
  -5  -1  -1 354.796 28.2292   3
   5   1   1 368.786 28.0390   5
   5   1   1 409.235 31.2783   1
  -5   1  -1 395.224 28.1476   5
   7  -1   1 177.241 12.8646   5
  -7  -1  -1 168.150 18.2446   1
   7  -1   1 162.057 12.9158   2
   7  -1   1 173.595 23.8152   1
  -7  -1  -1 155.380 12.1862   3
  -7  -1  -1 151.127 12.0694   4
   7   1   1 164.889 12.2597   5
   7   1   1 176.878 18.4722   1
  -7   1  -1 165.120 22.1671   1
  -7   1  -1 171.396 12.1454   5
  -9  -1  -1 92.4555 7.63809   5
   9  -1   1 102.970 22.9886   1
  -9  -1  -1 114.171 16.4859   1
   9  -1   1 113.075 9.30285   2
  -9  -1  -1 107.398 8.19060   4
  -9  -1  -1 96.3599 8.25203   3
   9   1   1 103.567 8.56078   5
  -9   1  -1 107.803 21.2133   1
  -9   1  -1 110.676 8.29854   2
  -9   1  -1 122.842 8.28541   5
   9   1   1 111.084 8.79260   2
   9   1   1 111.960 17.6352   1
  11  -1   1 710.224 67.3164   1
  11  -1   1 694.421 50.8832   5
  11  -1   1 666.128 50.9378   2
 -11  -1  -1 770.551 50.2483   4
 -11  -1  -1 762.335 50.4081   3
 -11  -1  -1 701.702 60.0069   1
 -11   1  -1 680.264 50.3110   3
  11   1   1 812.363 62.2419   1
 -11   1  -1 584.083 64.2921   1
  11   1   1 693.015 50.4951   5
  11   1   1 743.838 50.6613   2
 -11   1  -1 714.602 50.1722   5
 -11   1  -1 613.679 50.1154   2
  13  -1   1 808.160 55.2276   2
 -13  -1  -1 727.350 54.2142   4
 -13  -1  -1 772.644 54.4288   3
 -13  -1  -1 641.659 64.9025   1
  13  -1   1 803.451 75.7051   1
  13   1   1 728.090 67.3627   1
 -13   1  -1 812.331 54.2131   5
  13   1   1 793.363 54.8019   2
  13   1   1 794.755 54.6757   5
 -13   1  -1 651.687 70.7411   1
 -13   1  -1 719.304 54.1723   2
 -13   1  -1 804.283 54.4537   3
 -15  -1  -1 1162.36 82.4400   4
  15  -1   1 1111.01 83.1860   5
  15  -1   1 1096.04 83.3178   2
 -15  -1  -1 1170.82 82.6810   3
  15   1   1 1166.36 82.9579   5
  15   1   1 1215.56 83.1043   2
 -15   1  -1 1212.80 82.3782   5
 -15   1  -1 1272.50 82.7681   3
 -15   1  -1 1031.58 82.3138   2
  17  -1   1 1129.87 76.5567   5
  17  -1   1 1011.01 76.4408   2
 -17  -1  -1 1017.72 75.6743   3
 -17   1  -1 1098.12 75.7797   3
 -17   1  -1 1072.02 75.3157   5
  17   1   1 1148.33 76.3052   2
  17   1   1 935.181 75.9251   5
  19  -1   1 1076.19 70.5773   2
 -19  -1  -1 1002.19 69.4763   3
  19  -1   1 891.443 70.1050   5
  19   1   1 924.598 69.8402   2
 -19   1  -1 1047.49 69.5315   3
 -19   1  -1 965.252 68.8268   5
  19   1   1 862.116 69.6848   5
  21  -1   1 73.1648 9.76756   5
  21  -1   1 59.0197 8.79483   2
 -21  -1  -1 76.8308 7.34909   3
 -21   1  -1 71.9677 7.39522   3
  21   1   1 68.9376 9.67861   5
  21   1   1 76.7395 8.93227   2
 -21   1  -1 66.1219 6.51183   5
  23  -1   1 129.068 13.0998   2
 -23  -1  -1 143.452 11.5582   3
  23  -1   1 96.8480 13.5071   5
  23   1   1 125.024 12.6227   2
 -23   1  -1 129.892 11.2785   3
  25  -1   1 62.0048 9.02159   2
 -25  -1  -1 49.6327 6.39049   3
  25  -1   1 28.9790 8.77253   5
  25   1   1 37.5481 7.57496   2
 -25   1  -1 43.0333 6.39744   3
 -27  -1  -1 46.9826 6.96128   3
  27  -1   1 51.9503 8.68948   2
  27   1   1 41.9305 8.20687   2
 -27   1  -1 53.6717 7.25686   3
  29  -1   1 42.1676 8.45521   2
  29   1   1 16.4467 6.79329   2
 -29   1  -1 32.2066 5.91111   3
  31  -1   1 22.6256 7.24926   2
 -31  -1  -1 9.53890 4.78640   3
 -31   1  -1 10.5467 4.25489   3
  31   1   1 15.1350 7.72138   2
  32  -2  -1 53.2730 8.06144   2
  30  -2  -1 143.535 13.4091   2
 -30  -2   1 130.325 12.2207   3
  30   2  -1 115.317 13.6311   2
 -30   2   1 142.429 12.2533   3
 -28  -2   1 149.293 13.4811   3
  28  -2  -1 134.351 19.7130   5
  28  -2  -1 168.046 15.1419   2
  28   2  -1 156.761 14.3116   2
 -28   2   1 154.770 13.0454   3
  26  -2  -1 265.812 25.3825   5
 -26  -2   1 326.547 23.7094   3
  26  -2  -1 333.111 24.9878   2
 -26   2   1 293.906 23.3224   3
  26   2  -1 300.450 24.1068   2
 -24  -2   1 62.7294 7.37084   3
  24  -2  -1 70.7159 10.3377   5
  24  -2  -1 72.1963 9.33067   2
 -24   2   1 70.9469 7.26897   3
 -24   2   1 53.0550 7.83332   5
  24   2  -1 67.3895 8.62053   2
 -22  -2   1 18.6584 3.86942   3
  22  -2  -1 29.9243 6.33683   2
  22  -2  -1 26.9516 6.33512   5
 -22   2   1 33.5559 4.86140   3
 -22   2   1 26.9959 4.46543   5
  22   2  -1 27.4442 5.66187   2
  20  -2  -1 83.0694 10.3472   5
 -20  -2   1 110.865 9.18350   3
  20  -2  -1 84.7188 10.3617   2
 -20   2   1 99.1703 8.89510   5
 -20   2   1 84.4742 8.69966   3
  20   2  -1 116.932 10.2963   2
  20   2  -1 112.540 10.3986   5
 -18  -2   1 58.2194 5.67801   3
  18  -2  -1 42.0272 7.01568   5
  18  -2  -1 54.0384 7.33219   2
  18   2  -1 49.8134 6.87771   5
  18   2  -1 56.6754 6.93839   2
 -18   2   1 45.4928 6.49028   2
 -18   2   1 49.3750 5.38641   3
 -18   2   1 51.7949 5.58950   5
 -16  -2   1 85.7582 7.11569   3
  16  -2  -1 64.6679 8.26712   2
  16  -2  -1 67.6064 8.30470   5
  16   2  -1 83.7163 7.85808   5
 -16   2   1 75.0100 6.79533   3
 -16   2   1 76.9595 6.98634   5
  16   2  -1 80.5718 32.3313   1
 -16   2   1 70.6714 7.27518   2
  16   2  -1 94.2301 8.17250   2
  14  -2  -1 220.882 18.4451   5
 -14  -2   1 260.691 17.1643   4
  14  -2  -1 212.575 18.4603   2
 -14  -2   1 254.174 17.6109   3
 -14   2   1 175.785 53.5064   1
  14   2  -1 203.888 39.3354   1
 -14   2   1 218.714 17.5365   2
  14   2  -1 215.339 17.7920   2
  14   2  -1 255.003 17.8412   5
 -14   2   1 241.095 17.5100   5
 -14   2   1 216.871 17.2921   3
 -12  -2   1 332.400 26.2129   4
 -12  -2   1 319.662 26.5185   3
  12  -2  -1 475.304 51.9828   1
  12  -2  -1 399.066 27.7740   2
 -12   2   1 383.725 26.7552   2
 -12   2   1 409.927 26.7534   5
 -12   2   1 395.291 26.5727   3
  12   2  -1 331.281 40.6415   1
  12   2  -1 331.177 39.7924   1
 -12   2   1 340.263 48.4161   1
  12   2  -1 356.946 26.7036   5
  12   2  -1 337.275 26.7748   2
  10  -2  -1 2472.12 157.799   5
 -10  -2   1 2104.57 156.586   4
  10  -2  -1 2099.11 157.616   2
 -10  -2   1 2163.78 156.883   3
  10  -2  -1 2598.29 178.028   1
 -10   2   1 2196.46 156.812   3
  10   2  -1 2124.80 166.067   1
  10   2  -1 1915.85 156.870   2
 -10   2   1 2231.46 156.998   5
 -10   2   1 2360.21 177.208   1
  10   2  -1 2266.81 166.257   1
  10   2  -1 2241.80 156.916   5
 -10   2   1 2222.84 157.007   2
   8  -2  -1 4578.34 303.146   5
  -8  -2   1 4192.05 302.394   3
   8  -2  -1 4185.83 303.070   2
  -8  -2   1 4533.88 302.093   5
  -8  -2   1 4139.58 302.106   5
  -8   2   1 4620.51 321.097   1
   8   2  -1 4215.85 302.382   2
   8   2  -1 4199.42 309.284   1
   8   2  -1 4004.14 302.319   5
  -8   2   1 4309.18 302.569   2
   6  -2  -1 5142.05 385.589   2
  -6  -2   1 5376.77 384.909   5
   6   2  -1 5218.57 384.978   5
   6   2  -1 5954.34 390.905   1
  -6   2   1 5497.02 400.491   1
   6   2  -1 5667.40 389.719   1
  -4  -2   1 6337.90 443.811   1
   4   2  -1 6539.24 444.663   1
  -4   2   1 5880.87 451.978   1
   2  -2  -1 706.364 53.6511   1
   2  -2  -1 627.095 44.5600   5
  -2  -2   1 599.696 44.4948   5
  -2  -2   1 690.479 48.6231   1
   2   2  -1 581.131 44.3012   5
  -2   2   1 587.432 53.1312   1
   2   2  -1 623.028 48.7932   1
   0  -2  -1 117.648 9.32127   5
   0  -2  -1 157.999 15.6326   1
   0  -2  -1 141.928 9.40216   5
   0  -2   1 120.986 9.86472   5
   0   2  -1 131.593 14.5516   1
   0   2   1 130.912 9.45524   5
   0   2  -1 129.497 9.43520   5
   2  -2   1 193.993 13.9005   5
  -2  -2  -1 183.239 14.9884   1
   2  -2   1 202.931 20.1930   1
   2   2   1 157.936 13.0300   5
   2   2   1 194.372 15.3010   1
  -2   2  -1 188.871 13.2874   5
   4  -2   1 303.096 24.7476   2
  -4  -2  -1 367.074 24.0418   3
   4  -2   1 338.536 24.7326   5
   4  -2   1 364.488 34.1795   1
  -4  -2  -1 354.212 24.0166   4
  -4   2  -1 311.258 24.0585   2
  -4   2  -1 329.037 24.0754   5
   6  -2   1 26.3971 3.97425   2
  -6  -2  -1 21.8505 2.26231   3
   6  -2   1 25.3385 3.67487   5
   6  -2   1 31.8670 12.6650   1
  -6  -2  -1 22.2922 2.14399   4
  -6   2  -1 17.6788 2.34681   2
  -6   2  -1 19.0388 2.39950   5
  -6   2  -1 34.1148 12.1574   1
   6   2   1 19.4007 2.10417   5
  -8  -2  -1 80.2716 6.39812   3
   8  -2   1 77.0655 7.64405   2
   8  -2   1 83.2192 7.52615   5
  -8  -2  -1 83.7375 6.22738   4
   8  -2   1 56.7067 17.8633   1
  -8   2  -1 69.7934 6.36678   2
   8   2   1 90.6161 6.45072   5
  -8   2  -1 81.2102 6.44417   5
  -8   2  -1 55.8317 17.1517   1
 -10  -2  -1 216.160 17.4477   3
 -10  -2  -1 218.133 17.2543   4
  10  -2   1 253.408 18.4621   5
  10  -2   1 241.552 18.5293   2
 -10   2  -1 215.922 17.4271   2
  10   2   1 237.529 17.6239   2
  10   2   1 248.788 17.5174   5
  10   2   1 234.167 24.3230   1
  10   2   1 219.658 24.6495   1
 -10   2  -1 270.129 17.5858   5
 -10   2  -1 268.131 35.9617   1
  12  -2   1 315.543 22.9438   5
 -12  -2  -1 260.846 21.6333   4
  12  -2   1 310.550 23.0486   2
 -12  -2  -1 276.555 21.8901   3
  12  -2   1 377.869 49.4595   1
  12   2   1 293.257 22.1192   2
  12   2   1 296.590 22.0204   5
  12   2   1 249.307 31.3262   1
 -12   2  -1 327.488 21.9571   5
 -12   2  -1 296.016 21.9309   2
 -12   2  -1 317.773 44.3553   1
  12   2   1 279.962 32.8476   1
 -12   2  -1 321.707 22.0139   3
  14  -2   1 1789.99 128.341   5
 -14  -2  -1 1710.79 127.313   4
 -14  -2  -1 1863.12 127.691   3
  14  -2   1 1696.19 151.801   1
  14  -2   1 1926.28 128.656   2
 -14   2  -1 1896.86 127.729   3
  14   2   1 1708.77 127.620   5
 -14   2  -1 1837.68 127.527   5
  14   2   1 1835.74 138.501   1
 -14   2  -1 1726.44 127.501   2
  14   2   1 1829.78 127.771   2
  14   2   1 1757.03 137.711   1
 -16  -2  -1 1552.00 116.078   4
  16  -2   1 1757.32 117.340   5
  16  -2   1 1553.73 117.251   2
 -16  -2  -1 1776.27 116.557   3
  16   2   1 1643.85 116.607   2
 -16   2  -1 1744.94 116.538   3
  16   2   1 1413.34 129.568   1
 -16   2  -1 1744.74 116.299   5
  16   2   1 1550.76 116.461   5
 -16   2  -1 1610.71 116.283   2
  18  -2   1 1006.71 76.5993   5
  18  -2   1 1079.30 76.8395   2
 -18  -2  -1 1065.09 75.8304   3
 -18   2  -1 921.684 75.5148   2
  18   2   1 1138.47 76.1432   2
 -18   2  -1 1149.42 75.9276   3
 -18   2  -1 1183.02 75.6491   5
  18   2   1 921.215 75.8010   5
 -20  -2  -1 1820.20 128.753   3
  20  -2   1 1716.70 129.516   5
  20  -2   1 1899.19 129.865   2
 -20   2  -1 1810.25 128.303   5
 -20   2  -1 1842.74 128.743   3
  20   2   1 1760.65 128.879   2
  22  -2   1 17.7073 5.24458   2
 -22  -2  -1 14.8419 3.86013   3
  22  -2   1 12.7064 5.96455   5
 -22   2  -1 14.2806 4.14478   3
  22   2   1 12.6129 5.09911   2
 -22   2  -1 13.0213 3.54134   5
 -24  -2  -1 77.0011 8.09747   3
  24  -2   1 55.5164 9.71425   5
  24  -2   1 76.1222 10.0594   2
 -24   2  -1 70.0069 7.96567   3
  24   2   1 86.5830 9.99846   2
  26  -2   1 25.0249 6.93214   2
  26  -2   1 24.5411 9.04806   5
 -26  -2  -1 42.5914 6.42829   3
 -26   2  -1 47.0174 6.44103   3
  26   2   1 46.7506 7.65912   2
 -28  -2  -1 51.5731 7.25975   3
  28  -2   1 34.9534 8.06226   2
 -28   2  -1 34.8656 5.85813   3
  28   2   1 44.7053 7.91304   2
  30  -2   1 9.37138 7.24955   2
 -30  -2  -1 24.6275 5.41448   3
  30   2   1 16.6124 8.09656   2
 -30   2  -1 5.20020 3.38995   3
 -32  -2  -1 15.9615 5.68659   3
  32  -2   1 20.0307 7.87071   2
 -31  -3   1 85.7693 9.69309   3
  31  -3  -1 76.3107 10.2379   2
 -29  -3   1 161.746 13.5857   3
  29  -3  -1 146.582 14.6719   2
 -29   3   1 118.988 12.9622   3
  29   3  -1 191.759 15.3531   2
 -27  -3   1 318.984 22.7517   3
  27  -3  -1 249.892 23.5656   2
 -27   3   1 286.134 22.1175   3
 -25  -3   1 276.592 20.7517   3
  25  -3  -1 228.838 21.9756   5
  25  -3  -1 260.292 21.8970   2
 -25   3   1 229.398 20.2835   5
  25   3  -1 300.489 21.1046   2
 -25   3   1 251.147 20.0242   3
  23  -3  -1 160.748 16.6967   5
  23  -3  -1 187.734 16.8024   2
 -23  -3   1 203.222 15.6542   3
 -23   3   1 179.015 15.2401   5
  23   3  -1 207.678 15.9921   2
 -23   3   1 170.755 14.9112   3
  21  -3  -1 111.557 12.2602   5
  21  -3  -1 111.870 12.0297   2
 -21  -3   1 121.933 10.7967   3
  21   3  -1 140.940 11.5197   2
 -21   3   1 105.280 10.3041   3
 -21   3   1 124.436 10.7904   5
 -19  -3   1 33.7270 4.87557   3
  19  -3  -1 30.2207 6.12276   2
  19  -3  -1 28.3470 5.68928   5
  19   3  -1 25.3903 5.10978   2
 -19   3   1 30.3788 5.43809   2
 -19   3   1 39.9593 5.24502   5
 -19   3   1 32.3167 4.79919   3
  19   3  -1 35.6696 7.56705   5
  17  -3  -1 93.9199 9.61087   2
 -17  -3   1 85.7530 7.89683   3
  17  -3  -1 90.1035 9.49279   5
  17   3  -1 60.8282 36.0216   1
  17   3  -1 89.2672 8.63406   5
  17   3  -1 84.5807 8.38022   2
 -17   3   1 83.3508 7.49543   3
 -17   3   1 78.4809 7.80873   5
 -17   3   1 79.4738 8.21592   2
 -15  -3   1 20.8762 3.35709   4
  15  -3  -1 32.1892 43.5479   1
  15  -3  -1 13.2720 3.78181   5
 -15  -3   1 14.1781 3.05572   3
  15  -3  -1 21.5378 4.82538   2
 -15   3   1 -1.2996 34.4113   1
  15   3  -1 19.2130 25.1150   1
  15   3  -1 26.1799 4.03982   2
 -15   3   1 19.0337 3.27756   5
 -15   3   1 16.1177 2.90913   3
 -15   3   1 16.0831 3.49083   2
  15   3  -1 14.1728 3.36939   5
 -13  -3   1 346.845 24.2307   4
 -13  -3   1 347.517 24.7703   3
  13  -3  -1 381.374 71.3043   1
  13  -3  -1 321.357 25.7879   2
  13  -3  -1 367.724 25.9765   5
  13   3  -1 303.256 24.5288   5
 -13   3   1 312.607 24.7617   2
  13   3  -1 380.258 39.8673   1
 -13   3   1 325.975 24.5115   3
 -13   3   1 262.439 53.4602   1
 -13   3   1 337.383 24.7840   5
  13   3  -1 355.374 41.0369   1
  13   3  -1 341.369 24.7096   2
  11  -3  -1 353.303 29.0873   2
  11  -3  -1 356.945 29.0246   5
 -11  -3   1 371.189 28.1431   3
 -11  -3   1 411.158 27.8091   4
  11   3  -1 381.733 27.9764   5
 -11   3   1 390.484 28.3285   2
  11   3  -1 438.785 40.2065   1
  11   3  -1 406.666 38.9512   1
 -11   3   1 411.060 62.0135   1
  11   3  -1 411.071 28.1015   2
 -11   3   1 372.971 28.2689   5
  -9  -3   1 923.942 59.0193   3
   9  -3  -1 764.425 59.7079   2
  -9  -3   1 944.461 58.6741   4
   9  -3  -1 785.591 59.7085   5
   9   3  -1 838.119 65.6385   1
   9   3  -1 955.384 67.5891   1
  -9   3   1 715.854 78.4080   1
  -9   3   1 748.068 59.0298   2
  -9   3   1 740.823 59.0398   5
   9   3  -1 852.747 58.7699   2
   9   3  -1 813.400 58.6973   5
   7  -3  -1 1282.28 95.9299   2
  -7  -3   1 1304.84 95.2454   3
   7  -3  -1 1315.81 95.9403   5
  -7  -3   1 1396.59 95.0481   4
   7   3  -1 1363.51 95.0642   5
   7   3  -1 1547.21 102.372   1
  -7   3   1 1300.17 95.4785   5
  -7   3   1 1156.51 95.3454   2
   7   3  -1 1325.96 95.0707   2
   7   3  -1 1517.81 100.842   1
  -5  -3   1 1875.37 127.358   3
   5  -3  -1 1724.19 141.627   1
  -5  -3   1 1891.88 131.993   1
   5  -3  -1 1786.38 127.857   5
   5  -3  -1 1733.48 127.810   2
   5   3  -1 1783.37 127.167   5
   5   3  -1 2098.01 134.183   1
  -5   3   1 1681.26 143.615   1
   5   3  -1 1842.27 127.193   2
  -5   3   1 1846.40 127.582   5
  -5   3   1 1582.31 127.433   2
  -3  -3   1 1322.59 100.476   3
  -3  -3   1 1388.44 100.277   5
  -3  -3   1 1573.10 106.041   1
   3  -3  -1 1560.30 100.857   5
   3  -3  -1 1263.17 111.004   1
  -3  -3   1 1316.76 100.493   5
  -3   3   1 1234.53 113.064   1
   3   3  -1 1501.24 100.504   2
   3   3  -1 1456.24 100.383   5
   3   3  -1 1588.34 107.234   1
  -1  -3   1 104.769 8.26212   5
  -1  -3   1 103.509 7.78488   3
  -1  -3   1 110.548 14.0108   1
   1  -3  -1 112.952 7.82980   5
   1  -3  -1 107.662 7.82228   4
   1  -3  -1 119.257 16.8504   1
  -1   3   1 93.2148 7.76510   5
  -1   3   1 86.2838 17.8683   1
   1   3  -1 107.832 7.70753   2
   1   3  -1 105.289 7.64623   5
   1   3  -1 121.678 15.7685   1
  -1   3   1 86.8227 7.70019   2
   1  -3   1 406.270 30.7237   5
  -1  -3  -1 452.373 35.0736   1
  -1  -3  -1 407.652 30.1977   4
  -1  -3  -1 432.770 29.9310   5
   1  -3   1 391.557 37.1582   1
  -1  -3  -1 441.467 30.1550   3
  -1   3  -1 415.209 30.1623   5
  -1   3  -1 415.000 30.1982   2
   1   3   1 404.270 30.0803   5
   1   3   1 478.792 38.2855   1
  -1   3  -1 439.966 39.0735   1
  -3  -3  -1 135.137 9.26715   4
   3  -3   1 131.295 10.4263   2
  -3  -3  -1 137.660 9.23023   3
   3  -3   1 120.264 19.6250   1
   3  -3   1 125.561 10.2673   5
  -3   3  -1 122.012 9.30588   5
  -3   3  -1 111.829 20.0640   1
   3   3   1 120.940 8.95734   5
  -3   3  -1 108.857 9.29400   2
  -5  -3  -1 161.859 13.2892   4
  -5  -3  -1 167.079 13.3167   3
   5  -3   1 190.663 14.4864   5
   5  -3   1 167.441 14.4134   2
   5  -3   1 229.377 28.9586   1
  -5   3  -1 213.066 27.9127   1
  -5   3  -1 193.983 13.5115   5
  -5   3  -1 199.310 13.5219   2
   7  -3   1 51.1819 6.31191   5
  -7  -3  -1 59.7260 4.59350   4
  -7  -3  -1 53.9145 4.64298   3
   7  -3   1 42.6997 18.4822   1
   7  -3   1 46.6412 6.34970   2
  -7   3  -1 59.6805 4.96323   5
  -7   3  -1 70.1614 26.4683   1
  -7   3  -1 54.6265 4.86802   2
   9  -3   1 109.012 9.54879   2
   9  -3   1 106.781 9.42782   5
  -9  -3  -1 89.5887 7.65434   4
   9  -3   1 152.844 38.1344   1
  -9  -3  -1 104.499 7.95197   3
   9   3   1 82.9001 7.50878   5
  -9   3  -1 99.7706 8.06251   2
  -9   3  -1 111.131 8.16237   5
  -9   3  -1 107.333 27.7002   1
  11  -3   1 581.998 45.0268   5
 -11  -3  -1 641.041 44.2104   3
  11  -3   1 595.583 45.1855   2
  11  -3   1 592.378 78.9233   1
 -11  -3  -1 707.421 43.9854   4
  11   3   1 651.492 44.0090   2
 -11   3  -1 615.850 44.2202   5
 -11   3  -1 571.593 44.1205   2
  11   3   1 555.425 43.8022   5
 -13  -3  -1 700.121 45.1619   3
  13  -3   1 575.622 45.9386   2
  13  -3   1 608.407 45.8879   5
  13   3   1 661.509 44.9108   2
 -13   3  -1 643.972 45.0173   5
 -13   3  -1 553.644 44.8892   2
  13   3   1 620.915 44.7469   5
 -15  -3  -1 1067.51 70.9679   3
  15  -3   1 882.518 71.6592   2
  15  -3   1 955.863 71.6613   5
 -15  -3  -1 1089.71 70.5011   4
  15   3   1 1058.89 70.8064   2
  15   3   1 961.019 70.6146   5
 -15   3  -1 961.967 70.7326   5
 -15   3  -1 929.596 70.7736   3
  17  -3   1 381.035 33.0824   2
 -17  -3  -1 490.988 32.4181   3
 -17   3  -1 445.603 32.1266   5
  17   3   1 509.504 32.4873   2
 -17   3  -1 395.314 32.1519   2
 -17   3  -1 393.687 32.0810   3
  19  -3   1 287.359 24.0825   5
  19  -3   1 272.661 24.0732   2
 -19  -3  -1 306.980 22.3051   4
 -19  -3  -1 308.000 22.8874   3
 -19   3  -1 278.873 22.5610   5
  19   3   1 331.002 23.1687   2
 -21  -3  -1 251.378 18.9710   3
  21  -3   1 227.640 20.3891   5
  21   3   1 263.996 19.4203   2
 -21   3  -1 221.134 18.6410   5
 -21   3  -1 232.979 18.8657   3
  23  -3   1 163.144 16.4925   5
  23  -3   1 190.656 16.2815   2
 -23  -3  -1 178.998 14.3226   3
 -23   3  -1 175.791 14.2170   3
 -23   3  -1 156.516 14.0010   5
  23   3   1 144.559 14.7532   2
  25  -3   1 41.2681 8.99530   5
  25  -3   1 57.7494 9.33787   2
 -25  -3  -1 60.3931 7.21859   3
 -25   3  -1 49.5824 7.09314   3
  25   3   1 40.0613 7.48486   2
  27  -3   1 -1.4916 9.14821   5
  27  -3   1 7.03976 6.38857   2
 -27  -3  -1 20.9920 5.06279   3
  27   3   1 17.7388 6.89944   2
 -27   3  -1 18.9068 4.49201   3
 -29  -3  -1 31.8509 5.94604   3
  29  -3   1 27.1118 7.75992   2
 -29   3  -1 20.1569 4.86208   3
  31  -3   1 18.9381 7.49407   2
 -31   3  -1 11.0378 4.79256   3
 -30  -4   1 6.30605 4.71921   3
  30  -4  -1 0.17462 5.71198   2
 -28  -4   1 19.8849 5.36269   3
  28  -4  -1 17.8867 6.66892   2
 -28   4   1 15.3606 4.46866   3
  28   4  -1 15.3010 10.5194   2
  26  -4  -1 31.1863 7.22759   2
 -26  -4   1 34.4208 5.98198   3
  26  -4  -1 13.4185 7.26258   5
 -26   4   1 17.0317 4.38183   3
  26   4  -1 16.5064 6.12559   2
 -26   4   1 10.3845 6.29149   5
  24  -4  -1 41.0197 7.85991   5
 -24  -4   1 53.8443 7.34114   3
  24  -4  -1 58.2995 8.95052   2
 -24   4   1 52.6745 6.91068   3
  24   4  -1 50.7137 8.39561   2
 -24   4   1 53.9492 7.76144   5
 -22  -4   1 16.8160 4.61267   3
  22  -4  -1 26.9148 6.61022   5
  22  -4  -1 39.6659 7.30671   2
  22   4  -1 25.3785 5.63894   2
 -22   4   1 33.6155 5.47690   3
 -22   4   1 23.9848 5.01151   5
 -22   4   1 26.7092 6.93842   2
  20  -4  -1 31.8263 6.56005   2
  20  -4  -1 36.6964 6.99400   5
 -20  -4   1 22.1757 4.58276   3
 -20   4   1 21.9167 4.43080   5
 -20   4   1 25.0422 4.14355   3
  20   4  -1 18.9950 4.75370   2
 -20   4   1 23.5266 5.43713   2
 -18  -4   1 60.2961 7.16140   3
  18  -4  -1 64.3646 8.73472   5
  18  -4  -1 76.7271 9.14125   2
  18   4  -1 61.1403 7.32924   2
 -18   4   1 65.2855 7.19393   5
 -18   4   1 68.7391 7.77588   2
 -18   4   1 61.2315 6.66063   3
  16  -4  -1 58.6583 7.86576   5
  16  -4  -1 61.1943 7.96594   2
 -16  -4   1 49.1099 5.60635   4
 -16  -4   1 55.9238 6.13082   3
 -16   4   1 53.9380 5.70422   3
 -16   4   1 57.0711 6.29647   5
 -16   4   1 58.0961 6.52185   2
  16   4  -1 54.2611 6.34246   2
 -14  -4   1 206.889 15.3208   3
  14  -4  -1 176.604 16.2386   5
 -14  -4   1 201.159 14.5999   4
  14  -4  -1 190.446 16.5098   2
  14  -4  -1 93.6760 51.1749   1
  14   4  -1 210.702 15.1026   5
 -14   4   1 141.060 47.1665   1
 -14   4   1 212.713 15.4997   2
  14   4  -1 205.346 15.0818   2
 -14   4   1 179.395 14.8851   3
 -14   4   1 189.372 15.2656   5
  12  -4  -1 419.348 71.2412   1
  12  -4  -1 464.332 36.0804   2
  12  -4  -1 531.019 36.2936   5
 -12  -4   1 475.909 34.5022   4
 -12  -4   1 489.603 35.0713   3
 -12   4   1 443.404 68.6559   1
  12   4  -1 449.616 43.4471   1
 -12   4   1 482.324 35.1959   2
 -12   4   1 506.515 35.2323   5
  12   4  -1 481.272 34.7106   2
  12   4  -1 474.794 34.6626   5
  10  -4  -1 1161.38 79.8404   5
  10  -4  -1 1181.49 107.751   1
 -10  -4   1 1047.04 78.3879   4
  10  -4  -1 1061.97 79.7052   2
 -10  -4   1 1061.68 78.7809   3
  10   4  -1 1065.81 78.4412   5
  10   4  -1 1116.72 78.4956   2
 -10   4   1 1151.43 79.0761   5
 -10   4   1 1098.93 78.9841   2
  10   4  -1 1166.59 85.4431   1
 -10   4   1 1048.63 105.090   1
  10   4  -1 1161.80 86.4185   1
   8  -4  -1 2789.01 216.120   1
  -8  -4   1 2609.13 192.676   4
   8  -4  -1 2796.31 193.819   2
   8  -4  -1 2771.16 193.822   5
  -8  -4   1 2415.82 192.900   3
   8   4  -1 2979.71 200.287   1
   8   4  -1 2688.03 192.689   5
  -8   4   1 2867.04 193.310   5
   8   4  -1 2644.59 197.776   1
  -8   4   1 2771.73 193.194   2
   8   4  -1 2736.90 192.712   2
  -8   4   1 2789.04 218.730   1
   6  -4  -1 673.466 63.7528   1
   6  -4  -1 679.933 43.3640   5
   6  -4  -1 611.652 43.2030   2
  -6  -4   1 563.075 47.5959   1
  -6  -4   1 556.940 42.2701   4
  -6  -4   1 590.808 42.5020   3
  -6   4   1 578.780 64.5980   1
  -6   4   1 580.500 42.6988   2
  -6   4   1 641.270 42.8624   5
   6   4  -1 544.521 42.2512   2
   6   4  -1 540.788 42.2301   5
   6   4  -1 632.525 50.9924   1
   4  -4  -1 528.524 35.1712   5
  -4  -4   1 504.095 41.3838   1
   4  -4  -1 556.503 52.1664   1
  -4  -4   1 488.983 34.6632   3
   4  -4  -1 499.964 35.0819   2
  -4  -4   1 437.229 34.4758   4
  -4   4   1 507.208 34.8387   2
   4   4  -1 523.113 44.1298   1
   4   4  -1 440.003 34.4427   5
  -4   4   1 449.542 53.4505   1
   4   4  -1 442.623 34.4697   2
   2  -4  -1 278.480 33.5604   1
  -2  -4   1 306.123 21.5801   4
   2  -4  -1 321.298 21.8053   5
  -2  -4   1 297.867 21.7113   5
  -2  -4   1 326.698 21.7025   3
  -2  -4   1 288.781 29.2491   1
   2   4  -1 261.792 21.4768   2
  -2   4   1 292.818 21.6702   2
  -2   4   1 272.226 36.7745   1
   2   4  -1 311.135 32.3436   1
  -2   4   1 311.031 21.7569   5
   0  -4  -1 412.604 36.7106   1
   0  -4  -1 425.604 28.5658   3
   0  -4  -1 395.945 28.3757   5
   0  -4   1 404.508 29.0200   5
   0  -4   1 383.751 37.2626   1
   0  -4   1 453.902 28.7337   3
   0  -4  -1 384.426 28.5926   4
   0   4  -1 353.996 28.4760   2
   0   4   1 413.559 41.7669   1
   0   4   1 397.662 28.5451   5
   0   4   1 388.931 28.4952   2
   0   4  -1 412.769 41.0412   1
   0   4  -1 372.461 28.4654   5
   2  -4   1 181.404 14.3205   2
  -2  -4  -1 200.172 13.4663   4
   2  -4   1 151.624 24.4369   1
  -2  -4  -1 189.728 13.3906   3
   2  -4   1 181.968 14.2632   5
  -2  -4  -1 188.380 19.3561   1
   2   4   1 181.451 13.2606   2
  -2   4  -1 173.388 27.2930   1
  -2   4  -1 169.828 13.4156   5
  -2   4  -1 167.314 13.4371   2
   2   4   1 189.347 13.2838   5
   2   4   1 210.236 23.7368   1
  -4  -4  -1 163.986 14.4382   1
  -4  -4  -1 171.880 11.1497   4
   4  -4   1 104.604 23.0465   1
   4  -4   1 135.684 12.1639   5
   4  -4   1 139.810 12.2610   2
  -4  -4  -1 155.928 11.1000   3
  -4   4  -1 140.010 27.9572   1
   4   4   1 160.633 15.4766   1
   4   4   1 154.561 10.8136   5
  -4   4  -1 133.834 11.1692   2
  -4   4  -1 142.962 11.2233   5
  -6  -4  -1 163.495 11.7315   3
   6  -4   1 140.080 12.9981   2
   6  -4   1 162.237 32.5023   1
  -6  -4  -1 180.863 11.7229   4
   6  -4   1 143.875 12.9530   5
  -6   4  -1 145.936 11.8614   5
  -6   4  -1 161.625 11.9107   2
  -6   4  -1 154.348 31.2851   1
   6   4   1 153.705 11.2605   5
   8  -4   1 194.158 41.5899   1
  -8  -4  -1 168.902 12.4959   4
   8  -4   1 175.013 14.1613   2
   8  -4   1 182.409 14.2122   5
  -8  -4  -1 154.935 12.5818   3
  -8   4  -1 167.624 12.8675   5
  -8   4  -1 160.147 12.7966   2
  -8   4  -1 182.705 36.3492   1
  10  -4   1 287.363 23.0768   5
  10  -4   1 279.096 23.1786   2
 -10  -4  -1 305.083 21.9647   3
 -10  -4  -1 301.117 21.6885   4
 -10   4  -1 311.756 22.1149   2
 -10   4  -1 310.467 22.1385   5
 -10   4  -1 242.792 46.9178   1
 -12  -4  -1 183.247 14.1903   4
  12  -4   1 228.344 61.5963   1
  12  -4   1 187.632 16.0199   2
  12  -4   1 197.983 15.9151   5
 -12  -4  -1 193.385 14.5895   3
 -12   4  -1 201.308 14.7648   5
 -12   4  -1 111.858 36.2568   1
 -12   4  -1 194.306 14.6962   2
  12   4   1 178.989 14.1144   2
 -14  -4  -1 177.187 14.8686   4
  14  -4   1 213.363 16.8597   2
  14  -4   1 241.040 16.9872   5
 -14  -4  -1 178.971 15.2339   3
  14  -4   1 292.595 72.6245   1
  14   4   1 192.811 15.0663   2
 -14   4  -1 198.246 15.5271   2
 -14   4  -1 132.756 51.8681   1
  16  -4   1 304.402 22.4399   5
 -16  -4  -1 239.241 20.3669   4
  16  -4   1 283.315 22.3668   2
 -16  -4  -1 241.942 20.8951   3
 -16   4  -1 315.800 21.2220   5
 -16   4  -1 319.349 21.2074   3
  16   4   1 258.726 20.7010   2
 -16   4  -1 253.793 21.0770   2
 -18  -4  -1 169.493 15.6326   4
 -18  -4  -1 189.484 16.2627   3
  18  -4   1 230.922 18.2144   2
  18  -4   1 197.936 17.6840   5
 -18   4  -1 238.371 16.5249   3
 -18   4  -1 215.136 16.7315   2
 -18   4  -1 222.919 16.4269   5
  18   4   1 183.792 16.1294   2
  20  -4   1 226.873 18.6889   2
  20  -4   1 206.773 18.6110   5
 -20  -4  -1 191.391 16.8218   3
 -20  -4  -1 185.337 16.2307   4
 -20   4  -1 204.798 17.6317   2
  20   4   1 189.083 16.7921   2
 -20   4  -1 249.442 17.1314   5
 -20   4  -1 231.353 17.0139   3
  22  -4   1 82.7873 10.2997   2
  22  -4   1 67.8680 11.0241   5
 -22  -4  -1 81.3810 8.27845   3
  22   4   1 59.0248 9.30369   2
 -22   4  -1 75.4424 8.12498   3
 -22   4  -1 67.8521 8.29747   5
  24  -4   1 17.6002 6.42448   2
 -24  -4  -1 50.5152 6.76364   3
 -24   4  -1 32.9626 5.78503   3
  24   4   1 39.3864 7.09588   2
  26  -4   1 64.9382 10.4020   2
 -26  -4  -1 82.2300 8.82580   3
  26  -4   1 45.6831 10.3406   5
 -26   4  -1 61.3746 8.09242   3
 -28  -4  -1 36.9591 6.26814   3
  28  -4   1 29.9539 7.61425   2
 -28   4  -1 27.4027 5.18595   3
 -30  -4  -1 21.7878 5.78698   3
  30  -4   1 21.5431 7.60458   2
 -30   4  -1 15.3542 4.81088   3
  29  -5  -1 152.830 13.9292   2
 -29  -5   1 128.876 12.9151   3
  27  -5  -1 169.815 15.7852   2
 -27  -5   1 163.646 14.6247   3
 -27   5   1 159.062 14.2888   3
  25  -5  -1 205.022 17.5598   2
 -25  -5   1 186.239 16.4595   3
  25  -5  -1 186.551 18.3612   5
 -25   5   1 186.618 16.6999   5
 -25   5   1 199.129 15.9844   3
 -23  -5   1 75.8448 8.74244   3
  23  -5  -1 63.6669 10.5879   5
 -23   5   1 71.2752 7.88969   3
  23   5  -1 54.0630 9.48488   2
 -23   5   1 69.7126 8.89883   5
 -23   5   1 63.5487 9.96888   2
 -21  -5   1 31.7926 5.71681   3
  21  -5  -1 25.8481 6.29459   2
  21  -5  -1 24.0482 6.12394   5
 -21   5   1 25.8174 5.02762   5
 -21   5   1 28.1955 4.99735   3
 -21   5   1 17.0837 5.93468   2
  21   5  -1 27.6405 5.68097   2
  19  -5  -1 53.7584 9.05627   2
 -19  -5   1 65.8417 7.79900   3
 -19   5   1 59.1077 7.52387   5
  19   5  -1 75.4304 7.91007   2
 -19   5   1 63.6149 8.20239   2
 -19   5   1 65.1481 7.21935   3
  17  -5  -1 107.094 12.0058   2
  17  -5  -1 102.759 11.8141   5
 -17  -5   1 129.893 10.9012   3
 -17   5   1 111.907 10.5686   5
 -17   5   1 124.596 10.9405   2
 -17   5   1 117.190 10.1487   3
  17   5  -1 125.317 10.4622   2
 -15  -5   1 166.313 11.8546   4
  15  -5  -1 147.639 13.9656   5
 -15  -5   1 154.515 12.6608   3
  15  -5  -1 134.862 13.8510   2
 -15   5   1 138.045 12.5857   2
 -15   5   1 155.068 12.6456   5
 -15   5   1 139.068 12.0855   3
  15   5  -1 165.028 12.1891   2
  13  -5  -1 37.3955 6.15333   5
 -13  -5   1 37.4810 4.41381   3
 -13  -5   1 28.7783 3.92201   4
  13  -5  -1 18.2099 101.853   1
  13  -5  -1 29.0046 5.56151   2
 -13   5   1 34.9013 4.69977   5
 -13   5   1 47.4883 47.7468   1
 -13   5   1 35.2900 4.82258   2
  13   5  -1 25.4295 4.17657   2
  11  -5  -1 281.905 70.5916   1
  11  -5  -1 234.640 17.3642   5
 -11  -5   1 208.398 15.9398   3
  11  -5  -1 217.944 17.2688   2
 -11   5   1 214.808 16.2064   2
  11   5  -1 170.212 15.3753   2
 -11   5   1 279.576 71.2601   1
   9  -5  -1 846.726 58.2794   2
  -9  -5   1 790.532 57.2608   3
   9  -5  -1 876.470 58.3744   5
  -9  -5   1 754.569 56.8453   4
  -9   5   1 907.593 57.6578   2
  -9   5   1 861.153 57.6735   5
   9   5  -1 705.356 56.8219   5
  -9   5   1 698.541 88.8753   1
   9   5  -1 721.057 56.8467   2
  -7  -5   1 1916.25 130.523   4
  -7  -5   1 1627.38 135.516   1
  -7  -5   1 1903.93 130.790   3
   7  -5  -1 2028.80 131.644   5
   7  -5  -1 1840.37 131.419   2
   7  -5  -1 1986.97 157.631   1
  -7   5   1 1798.43 130.970   2
  -7   5   1 2009.69 131.198   5
   7   5  -1 1703.50 130.434   5
   7   5  -1 1721.24 130.450   2
  -7   5   1 1728.13 158.446   1
   7   5  -1 1924.16 139.932   1
  -5  -5   1 2725.36 205.075   4
  -5  -5   1 2938.23 205.316   3
   5  -5  -1 3053.43 225.621   1
   5  -5  -1 3160.32 205.885   5
  -5  -5   1 3003.67 212.424   1
   5  -5  -1 2879.23 205.673   2
  -5   5   1 2929.30 205.489   2
   5   5  -1 3034.02 216.789   1
   5   5  -1 2836.46 205.100   2
  -5   5   1 2725.78 229.983   1
  -5   5   1 2965.39 205.603   5
   5   5  -1 2681.35 205.040   5
  -3  -5   1 900.007 70.7597   5
   3  -5  -1 1029.91 71.4036   4
   3  -5  -1 1059.39 71.4876   5
   3  -5  -1 961.217 71.3433   2
  -3  -5   1 1070.62 71.3299   3
  -3  -5   1 1039.79 71.1677   4
  -3  -5   1 1048.97 80.5297   1
  -3  -5   1 1020.22 70.8520   5
  -3   5   1 967.727 71.4065   5
   3   5  -1 1066.56 86.1425   1
  -3   5   1 974.869 93.7027   1
  -3   5   1 1009.63 71.3612   2
   3   5  -1 972.007 71.1040   2
   3   5  -1 950.798 71.0624   5
  -1  -5   1 1613.92 101.776   3
   1  -5  -1 1436.64 101.469   5
  -1  -5   1 1634.00 101.691   4
  -1  -5   1 1467.31 101.683   5
   1  -5  -1 1362.73 101.651   4
   1  -5  -1 1332.65 112.242   1
  -1  -5   1 1415.10 111.505   1
  -1   5   1 1331.03 101.633   5
  -1   5   1 1451.58 120.579   1
  -1   5   1 1308.68 101.558   2
   1   5  -1 1365.94 101.516   2
   1   5  -1 1394.47 101.500   5
   1   5  -1 1575.72 118.741   1
  -1  -5  -1 219.510 13.9222   5
   1  -5   1 181.677 15.0129   5
  -1  -5  -1 210.582 13.9149   5
   1  -5   1 159.436 28.3026   1
   1  -5   1 167.391 15.0413   2
  -1  -5  -1 206.378 25.3678   1
  -1  -5  -1 200.883 14.5238   4
  -1   5  -1 168.326 33.4819   1
   1   5   1 203.230 14.5019   5
  -1   5  -1 162.327 14.3939   2
   1   5   1 229.981 32.1911   1
   1   5   1 208.430 14.4538   2
   3  -5   1 593.857 43.9386   2
  -3  -5  -1 656.076 49.8723   1
   3  -5   1 623.031 43.9989   5
  -3  -5  -1 668.098 43.2118   4
  -3  -5  -1 637.904 43.1592   3
   3  -5   1 563.344 59.1541   1
  -3   5  -1 554.216 43.1854   2
   3   5   1 608.596 43.0165   5
  -3   5  -1 518.845 62.5699   1
   3   5   1 590.936 42.9755   2
   3   5   1 665.649 53.0431   1
  -3   5  -1 538.116 43.1813   5
  -5  -5  -1 440.166 27.3978   4
   5  -5   1 348.743 48.8380   1
   5  -5   1 372.716 28.5187   2
  -5  -5  -1 412.052 27.3887   3
   5  -5   1 381.691 28.4851   5
   5   5   1 389.074 27.0747   5
  -5   5  -1 341.427 27.4103   2
   5   5   1 384.545 27.0512   2
  -5   5  -1 352.552 51.6347   1
  -5   5  -1 320.551 27.3909   5
   7  -5   1 376.723 28.4303   5
   7  -5   1 349.448 28.4015   2
  -7  -5  -1 373.586 27.1323   3
   7  -5   1 363.624 56.4458   1
  -7  -5  -1 407.081 27.0747   4
  -7   5  -1 350.700 27.2499   2
  -7   5  -1 310.369 53.1946   1
   7   5   1 366.206 26.6525   5
   7   5   1 377.185 26.6768   2
  -7   5  -1 404.753 27.4340   5
   9  -5   1 80.4758 8.55108   5
  -9  -5  -1 82.9631 6.83193   3
   9  -5   1 55.1427 33.2306   1
  -9  -5  -1 87.0284 6.60234   4
   9  -5   1 68.7526 8.60026   2
  -9   5  -1 70.9238 6.91927   2
   9   5   1 77.9725 6.23655   2
  -9   5  -1 44.5002 29.8546   1
 -11  -5  -1 255.101 20.5039   4
  11  -5   1 308.505 22.4053   5
 -11  -5  -1 265.555 20.8804   3
  11  -5   1 285.267 22.4522   2
 -11   5  -1 293.043 21.2118   5
 -11   5  -1 289.712 21.1294   2
 -11   5  -1 200.522 55.2610   1
 -13  -5  -1 660.899 51.1104   4
  13  -5   1 758.510 53.0691   2
  13  -5   1 912.309 138.716   1
 -13  -5  -1 659.374 51.5608   3
  13  -5   1 768.126 52.9281   5
 -13   5  -1 722.863 51.7335   2
 -13   5  -1 812.694 51.9568   5
  13   5   1 607.972 50.7033   2
  15  -5   1 604.300 43.1041   5
 -15  -5  -1 544.584 41.7780   3
 -15  -5  -1 482.546 41.0807   4
  15  -5   1 652.068 43.5491   2
  15   5   1 488.630 40.8649   2
 -15   5  -1 604.044 41.9879   2
 -15   5  -1 646.120 42.0784   5
  17  -5   1 932.333 67.5714   2
 -17  -5  -1 799.526 66.0882   3
  17  -5   1 934.384 67.4028   5
 -17   5  -1 984.180 66.2450   3
 -17   5  -1 936.592 66.3547   2
 -17   5  -1 911.258 66.2265   5
  19  -5   1 705.552 50.3560   2
  19  -5   1 657.276 50.0847   5
 -19  -5  -1 594.956 48.7911   3
 -19   5  -1 690.007 49.0917   2
 -19   5  -1 649.767 48.8167   5
 -19   5  -1 703.489 48.8399   3
  21  -5   1 379.197 30.6132   5
 -21  -5  -1 361.888 29.0711   3
  21  -5   1 424.088 30.7612   2
 -21   5  -1 364.693 29.5802   2
 -21   5  -1 388.161 28.9031   3
 -21   5  -1 367.874 28.9554   5
  23  -5   1 79.9747 10.7871   2
 -23  -5  -1 73.8745 8.75942   3
 -23   5  -1 61.8786 8.92267   5
 -23   5  -1 77.0924 8.47589   3
  25  -5   1 12.0358 6.36101   2
  25  -5   1 17.3498 7.46637   5
 -25  -5  -1 21.2755 5.43318   3
 -25   5  -1 30.9713 6.09443   3
 -25   5  -1 10.3399 6.21256   5
  27  -5   1 6.10348 6.64968   2
 -27  -5  -1 10.3969 4.89189   3
 -27   5  -1 5.44390 4.43445   3
  29  -5   1 4.50539 6.75816   2
 -29  -5  -1 5.37377 5.19245   3
 -29   5  -1 2.50762 5.21668   3
 -28  -6   1 203.801 16.1600   3
  28  -6  -1 151.919 16.7097   2
  28  -6  -1 209.560 20.3762   4
 -26  -6   1 238.635 18.0851   3
  26  -6  -1 209.480 18.8202   2
 -26   6   1 190.525 17.9921   3
  24  -6  -1 322.318 26.5689   2
 -24  -6   1 376.123 26.1161   3
  24  -6  -1 304.632 27.0411   5
 -24   6   1 337.343 29.4007   2
 -24   6   1 317.698 24.9054   3
 -24   6   1 304.596 25.7319   5
  22  -6  -1 233.440 21.1839   5
  22  -6  -1 234.836 21.0859   2
 -22  -6   1 265.421 20.3301   3
 -22   6   1 241.271 19.2512   3
 -22   6   1 234.751 19.8628   5
 -22   6   1 246.827 20.5760   2
 -20  -6   1 35.7657 6.49131   3
  20  -6  -1 21.9378 6.09134   5
  20  -6  -1 25.7957 6.80052   2
 -20   6   1 37.5803 5.89070   3
 -20   6   1 30.2482 6.43778   2
  20   6  -1 38.8529 6.33074   2
 -20   6   1 26.7526 5.54270   5
  18  -6  -1 28.5540 7.08994   2
 -18  -6   1 50.8968 7.09096   3
  18  -6  -1 36.4125 6.78012   5
 -18   6   1 35.6688 5.54946   3
 -18   6   1 40.5526 6.64319   2
  18   6  -1 43.0700 6.90066   2
 -18   6   1 44.5432 6.95629   5
 -16  -6   1 41.3296 6.64778   3
  16  -6  -1 56.2881 8.93200   2
  16  -6  -1 64.3188 8.50265   5
 -16   6   1 42.9984 6.06365   3
 -16   6   1 50.4556 6.82039   5
 -16   6   1 51.5330 6.96059   2
  16   6  -1 41.4508 6.62783   2
  14  -6  -1 7.01505 4.82361   2
  14  -6  -1 6.20775 4.51959   5
 -14  -6   1 6.33582 2.74914   4
 -14  -6   1 7.65099 3.20235   3
 -14   6   1 11.9574 3.61798   5
  14   6  -1 5.59405 3.40303   2
 -14   6   1 6.02381 3.08113   2
  12  -6  -1 223.149 18.3207   5
  12  -6  -1 204.862 18.2551   2
 -12  -6   1 226.474 16.3517   4
 -12  -6   1 220.368 17.0432   3
  12   6  -1 228.857 16.5246   2
 -12   6   1 196.394 17.0811   2
 -12   6   1 218.344 17.2797   5
 -10  -6   1 457.793 33.7838   3
  10  -6  -1 467.599 34.8470   5
  10  -6  -1 652.046 133.829   1
  10  -6  -1 426.292 34.6835   2
 -10  -6   1 486.904 33.3408   4
  10   6  -1 470.444 33.3887   2
 -10   6   1 480.073 92.5427   1
 -10   6   1 457.717 34.1653   5
 -10   6   1 435.478 33.9838   2
  10   6  -1 474.300 33.8513   5
  -8  -6   1 859.520 62.0080   3
   8  -6  -1 894.791 62.8530   5
   8  -6  -1 864.367 62.7135   2
  -8  -6   1 899.915 61.6912   4
   8  -6  -1 750.599 100.747   1
  -8   6   1 899.959 62.3451   2
  -8   6   1 894.309 62.4597   5
   8   6  -1 894.697 61.7315   2
   8   6  -1 842.134 61.6463   5
  -8   6   1 676.710 100.511   1
   6  -6  -1 1798.06 131.537   2
  -6  -6   1 1932.15 130.965   4
   6  -6  -1 1974.87 131.782   5
   6  -6  -1 1657.00 156.308   1
  -6  -6   1 1909.59 131.226   3
  -6  -6   1 1846.30 138.984   1
  -6   6   1 1925.32 131.617   5
   6   6  -1 1778.93 130.902   5
  -6   6   1 1837.82 131.437   2
   6   6  -1 1896.63 144.726   1
  -6   6   1 1641.24 164.553   1
   6   6  -1 1904.51 130.977   2
   4  -6  -1 2377.52 161.273   5
  -4  -6   1 2295.10 160.882   4
   4  -6  -1 2171.84 161.065   2
  -4  -6   1 2385.15 171.898   1
   4  -6  -1 2400.06 161.272   4
  -4  -6   1 2282.18 161.064   3
   4   6  -1 2365.43 160.905   2
  -4   6   1 2059.08 161.125   2
   4   6  -1 2204.86 160.833   5
  -4   6   1 2163.16 190.232   1
   4   6  -1 2349.12 178.137   1
   2  -6  -1 894.185 65.9418   5
  -2  -6   1 955.759 66.2195   3
   2  -6  -1 744.925 81.1580   1
   2  -6  -1 1036.89 66.3579   4
  -2  -6   1 958.647 66.0809   4
  -2  -6   1 1013.88 80.5633   1
  -2  -6   1 950.848 65.6772   5
   2   6  -1 947.850 66.0478   5
   2   6  -1 940.552 66.0504   2
  -2   6   1 844.149 66.2364   5
  -2   6   1 872.738 66.1663   2
   2   6  -1 1025.64 90.0769   1
  -2   6   1 858.014 92.2234   1
   0  -6   1 706.311 68.0605   1
   0  -6  -1 729.720 52.4886   5
   0  -6  -1 652.273 65.9902   1
   0  -6   1 708.015 53.0344   5
   0  -6  -1 747.375 53.0948   4
   0  -6  -1 823.822 53.1495   3
   0   6  -1 749.959 53.0572   5
   0   6   1 725.363 53.0408   2
   0   6   1 802.737 76.2942   1
   0   6  -1 742.875 78.7823   1
   0   6  -1 798.762 53.1235   2
   0   6   1 708.906 53.1156   5
   2  -6   1 375.890 27.3397   2
  -2  -6  -1 326.865 38.2639   1
  -2  -6  -1 383.065 26.7555   4
  -2  -6  -1 392.387 26.7543   3
   2  -6   1 386.414 27.2745   5
  -2   6  -1 368.422 26.8101   2
   2   6   1 326.578 43.9579   1
   2   6   1 353.573 26.6351   2
   2   6   1 349.407 26.6953   5
  -2   6  -1 376.052 26.8756   5
  -2   6  -1 328.816 57.1678   1
  -4  -6  -1 144.299 11.1350   3
   4  -6   1 147.783 12.5442   2
   4  -6   1 126.656 33.7269   1
  -4  -6  -1 113.397 20.9099   1
   4  -6   1 155.912 12.3145   5
  -4  -6  -1 144.512 11.0942   4
  -4   6  -1 164.039 11.4249   2
  -4   6  -1 128.348 42.6294   1
  -4   6  -1 153.435 11.4611   5
   4   6   1 125.467 11.1142   5
   4   6   1 135.563 11.0439   2
   4   6   1 152.073 24.3665   1
   6  -6   1 27.2850 36.7873   1
  -6  -6  -1 48.0391 4.73619   4
  -6  -6  -1 49.6372 4.84608   3
   6  -6   1 55.6321 7.31256   2
   6  -6   1 51.6089 6.60422   5
   6   6   1 40.3704 4.81701   2
  -6   6  -1 55.7650 5.38967   5
  -6   6  -1 47.8338 38.0376   1
   6   6   1 44.0197 5.11388   5
  -6   6  -1 57.6568 5.25269   2
   8  -6   1 46.5462 46.9940   1
   8  -6   1 44.0229 7.31905   2
  -8  -6  -1 52.1468 4.93839   4
  -8  -6  -1 54.4034 5.15067   3
   8  -6   1 45.3372 7.01113   5
   8   6   1 44.4924 4.98970   2
  -8   6  -1 53.1825 5.52967   2
  -8   6  -1 59.0274 78.2949   1
  10  -6   1 122.708 12.9617   2
  10  -6   1 128.930 12.7612   5
 -10  -6  -1 155.102 11.4233   3
  10  -6   1 80.4169 59.4023   1
 -10   6  -1 139.327 11.5401   2
 -10   6  -1 133.592 11.6281   5
  10   6   1 144.734 10.7308   2
  12  -6   1 683.318 53.5009   5
  12  -6   1 661.723 53.5967   2
 -12  -6  -1 838.198 52.0405   4
 -12  -6  -1 746.592 52.4310   3
 -12   6  -1 675.043 52.4010   2
  14  -6   1 906.973 68.9680   5
  14  -6   1 891.801 69.1076   2
 -14  -6  -1 1021.22 67.3267   4
 -14  -6  -1 979.321 67.9591   3
 -14   6  -1 913.314 67.8982   2
 -14   6  -1 922.881 67.9472   5
 -16  -6  -1 962.777 62.6319   4
 -16  -6  -1 951.588 63.4867   3
  16  -6   1 839.309 64.3399   5
  16  -6   1 826.321 64.4607   2
 -16   6  -1 812.055 63.1829   5
 -16   6  -1 832.897 63.2763   2
 -18  -6  -1 663.536 45.0455   3
  18  -6   1 582.972 46.0029   2
  18  -6   1 545.980 45.7214   5
 -18  -6  -1 624.255 43.9333   4
 -18   6  -1 584.075 44.7158   5
 -18   6  -1 614.414 44.5465   3
 -18   6  -1 615.940 44.9387   2
  20  -6   1 139.320 15.8405   5
  20  -6   1 148.292 15.8375   2
 -20  -6  -1 186.263 14.7522   3
 -20  -6  -1 146.960 13.6875   4
 -20   6  -1 171.454 15.1162   2
 -20   6  -1 168.453 14.4058   5
 -20   6  -1 164.650 13.9592   3
  22  -6   1 26.0164 7.15476   2
  22  -6   1 20.6041 6.53674   5
 -22  -6  -1 37.0894 6.23203   3
 -22   6  -1 25.8287 5.86061   5
 -22   6  -1 32.3616 8.13766   2
 -22   6  -1 35.9109 6.53712   3
  24  -6   1 38.6270 8.54202   2
  24  -6   1 22.9585 7.83491   5
 -24   6  -1 27.9463 6.61121   5
 -24   6  -1 28.0062 5.34922   3
 -26  -6  -1 43.2390 7.37064   3
  26  -6   1 41.4420 8.61907   2
 -26   6  -1 35.5212 6.13837   3
  28  -6   1 41.4510 8.25747   2
 -28  -6  -1 52.5056 7.78625   3
 -28   6  -1 27.9386 7.02314   3
  27  -7  -1 2.61859 6.69761   4
 -27  -7   1 6.80907 5.92177   3
  27  -7  -1 5.98949 6.65230   2
  25  -7  -1 45.8267 7.77690   4
 -25  -7   1 64.3881 8.71020   3
  25  -7  -1 42.6357 8.55420   2
  23  -7  -1 32.5100 8.25288   2
 -23  -7   1 39.1856 7.19736   3
  23  -7  -1 22.0831 7.97927   5
 -23   7   1 34.2739 8.13230   2
 -23   7   1 29.0926 6.76691   5
 -23   7   1 47.3396 7.00479   3
  21  -7  -1 42.8376 8.13768   2
 -21  -7   1 47.4353 7.24798   3
  21  -7  -1 28.1776 7.31917   5
 -21   7   1 30.6644 6.33438   5
 -21   7   1 41.7210 7.65169   2
 -21   7   1 39.0023 6.40124   3
 -19  -7   1 25.3084 5.82647   3
  19  -7  -1 25.1429 7.14922   5
  19  -7  -1 20.5105 7.07247   2
 -19   7   1 21.9725 5.22687   3
 -19   7   1 23.4882 5.71135   5
 -19   7   1 31.8950 6.31927   2
 -17  -7   1 61.1169 7.63829   3
  17  -7  -1 37.3317 8.21039   2
  17  -7  -1 35.1744 7.47116   5
 -17   7   1 48.1974 7.67355   2
 -17   7   1 63.5368 7.82399   5
 -17   7   1 49.4160 6.77774   3
  15  -7  -1 455.598 36.3312   2
 -15  -7   1 503.409 35.3359   3
  15  -7  -1 436.138 35.9929   5
 -15   7   1 463.171 35.2353   2
 -15   7   1 499.486 35.3643   5
  15   7  -1 448.199 34.2214   2
  13  -7  -1 110.089 12.2672   5
 -13  -7   1 125.861 11.1916   3
  13  -7  -1 107.924 12.7233   2
 -13  -7   1 140.090 10.2792   4
  13   7  -1 121.093 10.5412   2
 -13   7   1 115.192 11.2285   5
 -13   7   1 122.435 11.2832   2
 -11  -7   1 403.088 27.6062   4
  11  -7  -1 342.029 29.1420   2
 -11  -7   1 367.459 28.1851   3
  11  -7  -1 383.310 29.2600   5
  11   7  -1 366.127 27.6576   2
 -11   7   1 391.957 28.6701   5
 -11   7   1 377.672 28.4844   2
   9  -7  -1 36.9303 5.96574   5
  -9  -7   1 27.5295 4.56381   3
   9  -7  -1 37.5786 6.19255   2
  -9  -7   1 33.9954 4.26628   4
   9   7  -1 37.1606 4.72783   2
  -9   7   1 32.8830 5.17171   2
  -9   7   1 31.8350 5.55207   5
   7  -7  -1 7.29003 2.67335   4
   7  -7  -1 10.6557 3.33144   5
  -7  -7   1 14.3345 2.66107   4
   7  -7  -1 12.9741 4.54719   2
  -7  -7   1 9.78077 2.56572   3
   7   7  -1 17.2992 3.15602   2
   7   7  -1 12.1125 3.26444   5
   7   7  -1 -32.196 29.2981   1
  -7   7   1 12.0212 2.96009   2
  -7   7   1 10.4591 3.69556   5
  -5  -7   1 93.6610 25.7320   1
  -5  -7   1 106.733 8.42506   4
  -5  -7   1 98.3679 8.59974   3
   5  -7  -1 98.3537 8.86172   5
   5  -7  -1 98.0446 8.85282   4
  -5   7   1 117.522 83.0842   1
  -5   7   1 90.5136 8.95897   2
  -5   7   1 97.8281 9.37280   5
   5   7  -1 117.673 8.69506   2
   5   7  -1 138.784 39.4281   1
   5   7  -1 108.866 8.80286   5
   3  -7  -1 34.6622 4.14877   5
  -3  -7   1 36.9067 4.40071   3
   3  -7  -1 35.9991 4.53300   4
  -3  -7   1 41.3618 24.1787   1
   3  -7  -1 11.4902 33.5918   1
  -3  -7   1 41.3321 4.24419   4
   3   7  -1 37.8618 4.82549   5
   3   7  -1 98.3565 41.1688   1
  -3   7   1 40.2798 5.01107   2
   3   7  -1 40.9629 4.52913   2
  -3   7   1 17.7861 41.6364   1
  -1  -7   1 222.233 47.7488   1
   1  -7  -1 278.543 19.0571   4
  -1  -7   1 240.079 18.2260   5
  -1  -7   1 252.034 18.8524   4
   1  -7  -1 229.374 42.8387   1
   1  -7  -1 265.762 18.2092   5
  -1   7   1 278.098 53.7612   1
  -1   7   1 272.572 19.1799   2
   1   7  -1 226.452 18.8795   5
   1   7  -1 236.583 18.8841   2
   1   7  -1 240.579 56.4728   1
  -1  -7  -1 196.909 13.6807   4
   1  -7   1 178.898 13.5756   5
  -1  -7  -1 185.799 33.7276   1
   1  -7   1 172.376 13.6616   4
  -1   7  -1 168.137 13.6195   2
  -1   7  -1 148.606 13.6153   5
   1   7   1 183.815 40.7336   1
   1   7   1 169.777 13.8999   5
  -1   7  -1 200.282 56.9376   1
   1   7   1 191.082 13.8041   2
  -3  -7  -1 124.583 9.64670   3
   3  -7   1 116.017 9.86848   4
  -3  -7  -1 156.791 31.2545   1
   3  -7   1 118.138 10.2958   5
   3  -7   1 111.315 10.9415   2
  -3  -7  -1 135.142 9.70234   4
  -3   7  -1 112.151 9.95321   5
   3   7   1 118.995 10.0502   5
   3   7   1 117.344 28.7895   1
   3   7   1 118.628 9.76561   2
  -3   7  -1 106.845 9.70330   2
  -3   7  -1 97.9241 54.1772   1
  -5  -7  -1 94.4646 7.03626   4
   5  -7   1 -18.870 44.8421   1
  -5  -7  -1 90.5354 7.12679   3
   5  -7   1 72.4099 8.15384   5
   5  -7   1 66.8640 9.04370   2
   5   7   1 78.7502 7.63024   5
   5   7   1 81.6566 7.19194   2
  -5   7  -1 74.2805 7.22778   2
  -5   7  -1 20.3291 83.9342   1
  -5   7  -1 64.6037 7.28511   5
   7  -7   1 13.7230 5.20710   2
   7  -7   1 12.5186 4.42967   5
  -7  -7  -1 21.7972 3.51320   3
  -7  -7  -1 13.8831 2.67247   4
   7   7   1 16.2257 3.35851   2
  -7   7  -1 14.5643 3.31497   2
  -9  -7  -1 37.3692 4.89637   3
   9  -7   1 42.2240 6.92992   5
   9  -7   1 29.2194 6.76393   2
  -9  -7  -1 36.3604 4.34795   4
  -9   7  -1 38.0449 5.09497   2
  -9   7  -1 33.0035 5.47583   5
   9   7   1 32.1971 5.48479   2
 -11  -7  -1 108.180 9.45387   3
 -11  -7  -1 112.718 8.88205   4
  11  -7   1 98.9467 11.2299   5
  11  -7   1 105.836 11.9963   2
 -11   7  -1 88.8412 9.43392   2
 -11   7  -1 99.7738 9.82647   5
  13  -7   1 58.6351 9.65813   2
 -13  -7  -1 53.6096 6.24825   4
  13  -7   1 70.8100 9.31951   5
 -13  -7  -1 54.7745 7.00880   3
 -13   7  -1 51.9351 7.00265   2
 -13   7  -1 54.8339 7.15204   5
 -15  -7  -1 114.563 9.19665   4
  15  -7   1 69.5118 11.8401   2
 -15  -7  -1 101.542 9.94026   3
  15  -7   1 92.6061 11.6161   5
 -15   7  -1 88.2996 9.74009   2
 -15   7  -1 93.5641 10.1308   5
  17  -7   1 37.6608 7.97440   2
  17  -7   1 49.2130 8.29850   5
 -17  -7  -1 25.9505 5.01082   4
 -17  -7  -1 26.8743 6.05721   3
 -17   7  -1 34.1162 5.90677   5
 -17   7  -1 41.9343 6.65247   2
 -17   7  -1 22.9671 4.68697   3
  19  -7   1 21.1019 7.01303   2
 -19  -7  -1 35.2653 6.44794   3
  19  -7   1 32.9166 7.27683   5
 -19  -7  -1 6.68562 5.19972   4
 -19   7  -1 18.5292 5.27093   5
 -19   7  -1 18.8951 6.03461   2
 -19   7  -1 29.5540 5.72906   3
  21  -7   1 100.270 13.2525   5
  21  -7   1 111.218 13.2315   2
 -21  -7  -1 105.320 11.5527   3
 -21   7  -1 108.425 12.6915   2
 -21   7  -1 110.209 11.6261   5
 -21   7  -1 107.041 10.7849   3
  23  -7   1 72.0033 12.1595   5
  23  -7   1 81.3183 11.9353   2
 -23  -7  -1 97.6176 10.2971   3
 -23   7  -1 82.7243 10.5052   5
 -23   7  -1 79.5459 9.49310   3
 -23   7  -1 62.7163 11.1663   2
 -25  -7  -1 45.9769 7.49053   3
  25  -7   1 22.2816 7.74568   2
 -25   7  -1 24.6177 6.23872   3
  27  -7   1 30.9418 6.90012   4
  27  -7   1 22.6692 7.89867   2
  26  -8  -1 24.0951 10.0161   4
  26  -8  -1 40.1518 10.8922   2
 -26  -8   1 41.0501 6.65355   3
  24  -8  -1 27.9394 6.46132   4
  24  -8  -1 18.5181 7.97929   2
 -24  -8   1 34.5631 6.97703   3
 -24   8   1 15.4351 10.2303   2
  22  -8  -1 17.9925 8.68653   5
  22  -8  -1 17.9693 7.90937   2
 -22   8   1 26.5167 6.72873   5
 -22   8   1 20.8410 7.37609   2
  20  -8  -1 70.7269 9.88924   4
  20  -8  -1 67.1706 11.9640   5
 -20  -8   1 82.9580 10.0843   3
  20  -8  -1 87.3636 12.4799   2
 -20   8   1 71.9455 10.2628   5
 -20   8   1 74.6816 10.6346   2
 -20   8   1 69.1669 9.60856   3
 -18  -8   1 46.1627 7.54199   3
  18  -8  -1 24.9798 7.46129   5
  18  -8  -1 31.7535 6.56610   4
  18  -8  -1 29.5008 8.25447   2
 -18   8   1 25.5346 6.30168   2
 -18   8   1 34.9513 6.40566   3
 -18   8   1 32.6632 6.60679   5
  16  -8  -1 6.33143 7.05889   2
  16  -8  -1 6.80614 5.75911   5
 -16  -8   1 6.12730 4.37008   3
  16  -8  -1 -0.0012 3.99770   4
 -16   8   1 3.82829 4.29812   5
 -16   8   1 0.66817 4.36713   2
 -16   8   1 3.66176 4.40245   3
  14  -8  -1 77.5134 9.26365   4
 -14  -8   1 67.3984 8.57462   3
  14  -8  -1 88.6143 12.1461   2
  14  -8  -1 86.1819 10.6470   5
 -14   8   1 80.9857 9.32766   5
 -14   8   1 84.8818 9.24192   2
  14   8  -1 59.3677 8.85918   2
 -12  -8   1 14.4225 3.69879   4
 -12  -8   1 17.5304 3.90583   3
  12  -8  -1 18.7451 6.84051   2
  12  -8  -1 10.3353 5.13484   5
  12  -8  -1 14.2016 4.22668   4
  12   8  -1 17.8342 4.68492   2
 -12   8   1 14.8713 4.76499   5
 -12   8   1 16.6004 4.76458   2
  10  -8  -1 103.326 10.6302   5
  10  -8  -1 106.028 9.82620   4
 -10  -8   1 89.1782 8.70141   4
 -10  -8   1 95.6736 9.32036   3
  10  -8  -1 106.262 11.6394   2
 -10   8   1 110.225 10.6150   5
  10   8  -1 82.9873 9.28768   2
 -10   8   1 113.401 10.0067   2
   8  -8  -1 718.994 49.4032   5
  -8  -8   1 654.271 48.9266   3
  -8  -8   1 650.896 48.4540   4
   8  -8  -1 696.614 49.3794   4
  -8   8   1 721.004 49.5115   2
   8   8  -1 608.488 48.5562   2
  -8   8   1 667.341 49.5987   5
  -6  -8   1 99.9134 9.47348   3
   6  -8  -1 119.092 10.0187   4
  -6  -8   1 98.7504 9.12782   4
   6  -8  -1 114.149 9.77738   5
  -6   8   1 114.259 10.7839   5
  -6   8   1 132.833 10.4513   2
   6   8  -1 96.2235 9.55167   2
   4  -8  -1 107.954 8.76224   5
   4  -8  -1 114.888 9.41565   4
  -4  -8   1 101.297 9.07324   3
  -4  -8   1 104.372 8.85944   4
  -4   8   1 97.1474 10.3031   5
  -4   8   1 117.571 9.81047   2
   4   8  -1 95.0882 9.21820   2
   4   8  -1 93.0471 9.70041   5
   2  -8  -1 16.0022 3.29435   4
  -2  -8   1 23.8801 3.72531   4
   2  -8  -1 18.5899 2.47789   5
   2   8  -1 23.9243 3.98821   2
  -2   8   1 20.0705 4.90273   5
   2   8  -1 15.9780 4.02392   5
  -2   8   1 16.0851 4.06282   2
   0  -8  -1 17.2256 3.33952   4
   0  -8   1 22.0116 3.58249   4
   0  -8   1 16.4295 2.82301   5
   0   8   1 25.6082 4.51198   2
   0   8  -1 21.1912 3.92092   2
   0   8  -1 26.0384 4.51046   5
  -2  -8  -1 38.4042 4.43397   4
   2  -8   1 33.2206 4.63334   4
   2  -8   1 30.8374 4.50489   5
  -2   8  -1 28.1180 4.56977   5
   2   8   1 34.2867 5.27458   2
  -2   8  -1 24.8641 4.29237   2
   4  -8   1 31.2526 5.57042   5
  -4  -8  -1 37.5310 4.70672   3
   4  -8   1 33.3949 4.96193   4
  -4  -8  -1 42.6448 4.71020   4
  -4   8  -1 30.4538 5.45099   5
   4   8   1 38.0807 5.77040   2
  -4   8  -1 30.8064 4.97853   2
   6  -8   1 70.0955 7.04658   4
  -6  -8  -1 77.3241 6.57286   4
   6  -8   1 60.0201 7.96987   5
  -6  -8  -1 57.0848 6.48450   3
   6  -8   1 45.6795 8.20428   2
  -6   8  -1 59.4415 7.00309   2
   6   8   1 69.0462 7.33219   2
   8  -8   1 29.4449 7.25017   2
   8  -8   1 37.2114 6.56636   5
  -8  -8  -1 46.4067 5.70133   3
  -8   8  -1 43.2675 6.07036   2
  -8   8  -1 37.5966 6.69607   5
   8   8   1 53.6134 6.47425   2
  10  -8   1 96.0482 11.3992   5
 -10  -8  -1 107.528 9.52154   3
  10  -8   1 82.7034 11.9716   2
 -10   8  -1 102.733 10.2256   5
 -10   8  -1 95.0292 9.73589   2
  12  -8   1 42.6740 7.46023   5
 -12  -8  -1 25.3015 4.52089   4
  12  -8   1 40.0071 8.37042   2
 -12  -8  -1 44.2234 6.24779   3
 -12   8  -1 28.0760 5.23178   2
 -12   8  -1 42.9629 6.64554   5
 -14  -8  -1 64.7359 7.90418   3
  14  -8   1 48.7400 8.64773   5
  14  -8   1 26.5551 8.63918   2
 -14  -8  -1 48.1056 6.81544   4
 -14   8  -1 53.1124 7.65064   2
 -14   8  -1 53.1126 8.27479   5
 -16  -8  -1 282.208 25.6095   3
  16  -8   1 349.606 27.7908   2
  16  -8   1 345.162 27.4388   5
 -16   8  -1 355.594 26.1017   2
 -16   8  -1 308.721 25.7735   5
  18  -8   1 373.147 29.2398   2
 -18  -8  -1 305.517 27.1643   3
  18  -8   1 384.830 29.0084   5
 -18   8  -1 355.135 27.5238   2
 -18   8  -1 327.450 27.1952   5
 -18   8  -1 341.534 26.7478   3
  20  -8   1 151.005 16.6472   2
 -20  -8  -1 148.325 14.5275   3
  20  -8   1 151.412 16.1786   5
 -20   8  -1 147.364 14.6950   5
 -20   8  -1 160.443 13.7815   3
 -20   8  -1 148.148 14.9520   2
 -22  -8  -1 73.1165 10.1168   3
  22  -8   1 85.1371 12.5786   2
 -22   8  -1 67.8424 10.6473   2
 -22   8  -1 71.5869 9.60835   3
 -24  -8  -1 19.3396 6.01108   3
  24  -8   1 21.4658 6.35209   4
  24  -8   1 27.3270 8.07657   2
 -24   8  -1 16.2598 6.69137   3
 -26  -8  -1 1.91499 6.29142   3
  26  -8   1 -3.2831 5.56883   4
 -25  -9   1 138.963 13.7447   3
  23  -9  -1 73.0701 14.1470   2
  23  -9  -1 119.214 11.5120   4
 -23  -9   1 129.028 12.2205   3
 -23   9   1 87.5825 14.3950   2
 -21  -9   1 40.7853 7.65383   3
  21  -9  -1 38.2655 7.26349   4
  21  -9  -1 20.0399 10.4932   2
 -21   9   1 28.0133 7.70019   2
  19  -9  -1 12.3532 7.85122   5
 -19  -9   1 26.7941 6.65622   3
  19  -9  -1 8.33479 9.93143   2
  19  -9  -1 20.8306 6.39015   4
 -19   9   1 13.8734 6.24002   5
 -19   9   1 14.5691 6.35704   2
  17  -9  -1 10.4975 5.38358   4
 -17  -9   1 16.4021 5.57754   3
  17  -9  -1 14.1812 9.53872   2
  17  -9  -1 12.7332 7.06333   5
 -17   9   1 19.7868 6.28368   2
 -17   9   1 8.80353 6.35750   3
 -17   9   1 13.0418 6.02109   5
  15  -9  -1 66.6472 8.89622   4
 -15  -9   1 51.0561 8.20614   3
  15  -9  -1 38.8855 10.4754   2
  15  -9  -1 36.6047 8.40998   5
 -15   9   1 54.4275 9.26832   5
 -15   9   1 59.0947 8.72709   2
 -15   9   1 54.6824 7.99083   3
  13  -9  -1 124.562 13.7922   5
  13  -9  -1 127.066 12.9314   4
 -13  -9   1 123.610 12.2685   3
 -13   9   1 144.265 13.0075   2
 -13   9   1 130.378 13.1976   5
  11  -9  -1 409.863 32.1041   5
 -11  -9   1 435.067 30.8678   4
 -11  -9   1 397.807 31.5416   3
  11  -9  -1 429.253 32.1315   4
  11   9  -1 415.443 31.1544   2
 -11   9   1 418.545 32.0759   2
 -11   9   1 405.821 32.3080   5
  -9  -9   1 660.229 46.9529   4
   9  -9  -1 648.967 47.6435   5
  -9  -9   1 597.899 47.4800   3
   9  -9  -1 668.363 47.9977   4
  -9   9   1 682.823 48.1869   2
   9   9  -1 648.043 47.2373   2
  -9   9   1 627.230 48.3533   5
   7  -9  -1 971.407 72.6040   5
  -7  -9   1 931.747 72.9322   3
  -7  -9   1 1042.74 72.6005   4
   7  -9  -1 1115.34 73.4812   4
  -7   9   1 979.582 73.7581   5
   7   9  -1 1012.02 72.8481   2
  -7   9   1 1038.64 73.6186   2
   5  -9  -1 1009.49 77.7299   5
  -5  -9   1 1192.56 78.3979   4
   5  -9  -1 1111.05 78.8030   4
   5   9  -1 1075.99 78.5444   2
  -5   9   1 1132.49 79.2074   2
  -5   9   1 1044.21 79.3485   5
   3  -9  -1 832.420 59.0256   4
  -3  -9   1 860.682 58.7551   4
  -3   9   1 778.875 59.8174   5
  -3   9   1 789.708 59.3561   2
   3   9  -1 757.690 59.1855   5
   3   9  -1 861.366 59.0664   2
  -1  -9   1 517.920 35.0553   4
   1  -9  -1 465.150 35.0112   4
   1   9  -1 489.028 35.2799   2
  -1   9   1 458.608 35.4354   2
   1   9  -1 455.354 35.6386   5
  -1   9   1 452.600 36.1547   5
  -1  -9  -1 359.381 26.5606   4
   1  -9   1 381.469 26.7080   4
   1   9   1 320.616 27.8693   5
   1   9   1 349.135 27.0011   2
  -1   9  -1 338.851 27.3262   5
  -1   9  -1 365.009 26.9988   2
   3  -9   1 71.8067 7.64875   5
   3  -9   1 86.6666 8.38830   4
  -3  -9  -1 86.3237 8.03196   4
  -3   9  -1 90.6330 8.73794   2
   3   9   1 85.2419 9.28930   2
   5  -9   1 39.3433 6.02134   4
  -5  -9  -1 50.3350 5.79806   4
  -5  -9  -1 37.7115 6.00318   3
   5  -9   1 37.8913 5.87526   5
   5   9   1 53.9815 6.91296   2
  -5   9  -1 40.8453 6.44703   2
   7  -9   1 105.388 10.2575   5
  -7  -9  -1 77.0340 8.77322   3
  -7  -9  -1 84.6351 8.50276   4
   7  -9   1 99.7393 9.60625   4
  -7   9  -1 98.0607 10.7246   5
  -7   9  -1 101.494 9.67124   2
   7   9   1 78.2514 9.71437   2
  -9  -9  -1 458.570 29.6570   4
   9  -9   1 345.345 30.5623   5
   9  -9   1 403.643 30.3982   4
  -9  -9  -1 394.506 29.8760   3
  -9   9  -1 371.633 30.6250   5
  -9   9  -1 378.104 30.2444   2
   9   9   1 406.575 29.5189   2
  11  -9   1 310.659 23.2825   4
  11  -9   1 257.865 25.0959   2
 -11  -9  -1 308.081 22.6568   3
  11  -9   1 265.344 23.6794   5
 -11   9  -1 252.278 23.1170   5
 -11   9  -1 309.785 23.1101   2
  13  -9   1 514.702 38.9614   4
 -13  -9  -1 512.633 38.4739   3
  13  -9   1 483.417 40.2650   2
 -13  -9  -1 547.437 37.7470   4
  13  -9   1 488.397 39.4219   5
 -13   9  -1 526.400 38.6862   2
 -13   9  -1 492.307 38.7867   5
 -15  -9  -1 609.263 41.5785   4
 -15  -9  -1 573.558 42.4528   3
  15  -9   1 543.720 43.2397   5
  15  -9   1 550.244 43.9855   2
 -15   9  -1 531.098 42.4394   5
 -15   9  -1 565.568 42.4616   2
  17  -9   1 355.739 28.7052   4
  17  -9   1 330.077 29.3412   5
 -17  -9  -1 377.057 28.4641   3
  17  -9   1 339.585 30.2359   2
 -17   9  -1 349.837 28.4839   5
 -17   9  -1 358.153 27.6592   3
 -17   9  -1 392.468 28.6422   2
  19  -9   1 158.891 14.8816   4
  19  -9   1 123.273 17.6964   2
 -19  -9  -1 153.523 14.9033   3
  19  -9   1 143.684 16.7359   5
 -19   9  -1 149.682 15.0214   5
 -19   9  -1 161.517 14.3040   3
 -19   9  -1 164.372 15.3224   2
  21  -9   1 20.1845 9.59133   2
  21  -9   1 35.3723 6.76261   4
 -21   9  -1 19.8890 7.14710   3
 -21   9  -1 20.6557 8.01876   2
  23  -9   1 3.99142 5.57226   4
  23  -9   1 6.35916 9.87364   2
 -23  -9  -1 11.5639 6.20884   3
 -23   9  -1 10.5309 11.6159   2
 -25  -9  -1 7.88102 6.49421   3
  22 -10  -1 11.2102 6.20412   4
 -22 -10   1 19.8066 6.57037   3
 -22  10   1 2.85359 9.73431   2
  20 -10  -1 14.4578 5.71812   4
 -20 -10   1 1.09734 6.09741   3
 -20  10   1 10.8803 7.13486   2
 -18 -10   1 21.9293 6.90060   3
  18 -10  -1 24.7597 6.77793   4
 -18  10   1 22.8066 6.99136   2
  16 -10  -1 116.934 15.8242   5
  16 -10  -1 122.110 13.7864   4
 -16 -10   1 154.918 14.0257   3
 -16  10   1 140.090 14.8924   5
 -16  10   1 160.853 14.5863   2
 -14 -10   1 82.8149 10.2922   3
  14 -10  -1 84.3468 10.5863   4
  14 -10  -1 82.8964 12.4842   5
 -14  10   1 87.7545 11.9200   5
 -14  10   1 92.7031 10.9505   2
  12 -10  -1 17.3821 6.83811   5
  12 -10  -1 29.4457 6.29629   4
 -12 -10   1 27.8598 6.12711   3
 -12  10   1 16.0226 6.66664   5
 -12  10   1 27.9442 6.28116   2
  10 -10  -1 16.3802 5.98609   5
 -10 -10   1 28.5605 5.38077   4
 -10 -10   1 26.0491 5.90823   3
  10 -10  -1 20.3969 5.03250   4
 -10  10   1 19.5056 6.27845   2
 -10  10   1 23.3288 7.12038   5
  10  10  -1 30.2604 6.84496   2
   8 -10  -1 4.89747 3.85340   4
   8 -10  -1 4.26257 4.82819   5
  -8 -10   1 6.33687 4.03714   4
   8  10  -1 9.63166 5.84748   2
  -8  10   1 -2.5421 6.28316   5
  -8  10   1 1.60986 4.69240   2
  -6 -10   1 16.1915 4.30870   4
   6 -10  -1 17.1284 4.44072   4
  -6  10   1 10.6619 7.71498   5
   6  10  -1 19.3309 5.75854   2
  -6  10   1 17.1073 5.52342   2
  -4 -10   1 384.130 27.3290   4
   4 -10  -1 354.978 27.5585   4
  -4  10   1 331.571 29.5726   5
  -4  10   1 354.361 28.3729   2
   4  10  -1 371.134 27.9884   2
   2 -10  -1 58.9360 7.52733   4
  -2 -10   1 74.4388 7.54105   4
   2  10  -1 72.2207 8.76055   2
  -2  10   1 62.3989 10.8993   5
  -2  10   1 53.9197 9.03219   2
   0 -10   1 39.6577 5.85031   4
   0 -10  -1 34.5369 5.85260   4
   0  10  -1 39.0405 6.81605   2
   0  10   1 39.1761 7.13644   2
   2 -10   1 88.0192 9.26179   4
  -2 -10  -1 104.637 9.25817   4
   2  10   1 94.9599 10.7085   2
  -2  10  -1 81.8676 10.0902   2
  -4 -10  -1 195.568 14.6465   4
   4 -10   1 168.793 14.6469   4
  -4  10  -1 170.159 15.2518   2
   4  10   1 179.540 15.5829   2
  -4  10  -1 145.933 16.9787   5
   6 -10   1 75.0698 9.96603   5
  -6 -10  -1 121.930 9.74054   4
   6 -10   1 100.538 9.90539   4
  -6  10  -1 83.2770 12.6201   5
  -6  10  -1 93.6942 10.6039   2
   6  10   1 100.842 11.2096   2
  -8 -10  -1 133.310 11.3125   4
   8 -10   1 123.230 12.4472   5
   8 -10   1 129.481 12.1115   4
  -8 -10  -1 114.521 11.6276   3
  -8  10  -1 131.756 13.7700   5
  -8  10  -1 124.563 12.4210   2
   8  10   1 112.812 12.9989   2
  10 -10   1 12.2798 6.26227   5
  10 -10   1 15.4078 5.37934   4
 -10 -10  -1 7.77763 4.46812   3
 -10 -10  -1 7.66006 4.21267   4
 -10  10  -1 8.96720 6.13139   5
 -10  10  -1 9.33790 4.91335   2
 -12 -10  -1 37.3922 6.90496   3
  12 -10   1 13.1628 7.29590   5
 -12 -10  -1 47.4433 7.38620   4
  12 -10   1 31.2823 6.43151   4
 -12  10  -1 19.5552 5.71051   2
 -12  10  -1 31.6037 7.27728   5
 -14 -10  -1 76.7862 10.0457   3
 -14 -10  -1 79.9399 10.4134   4
  14 -10   1 54.8837 10.3074   5
  14 -10   1 92.5577 10.5834   4
 -14  10  -1 81.7037 11.5853   5
 -14  10  -1 74.9366 10.0494   2
  16 -10   1 43.4565 7.23304   4
 -16 -10  -1 54.3534 8.06523   3
  16 -10   1 22.0435 9.22723   5
 -16  10  -1 36.8970 7.43258   3
 -16  10  -1 39.5089 8.32546   5
 -16  10  -1 38.9269 7.48695   2
 -18 -10  -1 16.9529 6.52071   3
  18 -10   1 10.5044 5.72366   4
 -18  10  -1 9.80882 6.73853   2
 -18  10  -1 10.5680 6.90362   3
 -20 -10  -1 -1.4378 6.07687   3
  20 -10   1 3.96732 5.63814   4
  22 -10   1 33.6868 7.01047   4
 -22 -10  -1 33.9460 8.33571   3
 -19  11   1 30.4006 7.98905   2
  17 -11  -1 7.31490 5.21624   4
 -17  11   1 7.68577 6.67865   2
  15 -11  -1 51.0264 8.94998   4
 -15  11   1 72.0289 10.1693   2
  13 -11  -1 23.5530 5.97248   4
 -13  11   1 29.5441 7.35096   2
 -13  11   1 19.3243 9.72346   5
  11 -11  -1 14.0599 4.91377   4
 -11  11   1 20.5349 7.01825   2
 -11  11   1 17.6889 9.00676   5
  -9 -11   1 39.4654 7.27285   4
   9 -11  -1 50.8357 7.63897   4
   9  11  -1 51.6781 8.75086   2
  -9  11   1 33.3160 10.5472   5
  -9  11   1 52.5995 8.44010   2
  -7 -11   1 13.8617 5.02459   4
   7 -11  -1 9.65509 4.49551   4
  -7  11   1 14.3998 9.88359   5
   7  11  -1 25.0060 7.25886   2
  -7  11   1 10.5078 6.36720   2
   5 -11  -1 11.8794 4.33827   4
  -5 -11   1 10.1750 4.42546   4
  -5  11   1 13.5657 6.40000   2
  -5  11   1 6.94494 10.1851   5
   5  11  -1 11.1108 6.65210   2
   3 -11  -1 69.9382 8.22157   4
  -3 -11   1 59.4755 8.10394   4
   3  11  -1 80.2030 10.1994   2
  -3  11   1 69.3206 10.1705   2
  -1 -11   1 13.5995 4.83812   4
   1 -11  -1 13.0166 4.34287   4
  -1  11   1 21.7336 6.99712   2
   1  11  -1 22.3899 6.54209   2
   1 -11   1 37.4990 6.07746   4
  -1 -11  -1 37.2128 5.96897   4
   1  11   1 40.7299 8.25485   2
  -1  11  -1 29.2558 6.89519   2
   3 -11   1 7.10053 3.97704   4
  -3 -11  -1 10.4032 4.25210   4
  -3  11  -1 7.24115 5.66202   2
  -3  11  -1 27.2277 11.3754   5
   3  11   1 9.19746 6.76637   2
   5 -11   1 5.60085 3.96356   4
  -5 -11  -1 20.1406 4.84447   4
  -5  11  -1 4.05597 5.63794   2
  -5  11  -1 7.28466 9.42968   5
   5  11   1 20.5555 7.35801   2
  -7 -11  -1 36.7502 5.86768   4
   7 -11   1 25.8841 5.72042   4
   7  11   1 39.0511 8.67231   2
  -7  11  -1 16.6401 6.65848   2
  -7  11  -1 16.9191 9.48662   5
   9 -11   1 10.8274 5.06584   4
  -9 -11  -1 13.2234 5.01707   4
  -9  11  -1 13.6202 8.13394   5
  -9  11  -1 10.9015 5.96957   2
  11 -11   1 32.7011 6.79384   4
 -11  11  -1 31.4686 6.78901   2
 -11  11  -1 23.4028 8.21668   5
  13 -11   1 39.3407 7.56714   4
 -13  11  -1 39.5523 7.60089   2
 -13  11  -1 45.0427 12.0776   5
  15 -11   1 32.0989 6.71758   4
 -15 -11  -1 36.9713 8.03730   3
 -15  11  -1 26.5719 8.38684   3
 -15  11  -1 28.7385 7.23534   2
  17 -11   1 27.7977 6.90089   4
 -17 -11  -1 17.9703 7.22291   3
 -17  11  -1 18.3794 7.37044   2
  19 -11   1 60.8813 9.14017   4
 -19 -11  -1 33.3387 8.07118   3
 -19  11  -1 52.3711 9.10505   2
  16 -12  -1 1.74019 5.22544   4
 -16  12   1 -0.1369 6.87896   2
  14 -12  -1 86.9716 10.7589   4
 -14  12   1 95.6649 12.2196   2
  12 -12  -1 153.684 14.7129   4
 -12  12   1 165.199 16.2480   2
  10 -12  -1 241.940 20.9538   4
 -10  12   1 272.561 22.4621   2
   8 -12  -1 274.594 22.4919   4
  -8  12   1 284.054 24.0962   2
   6 -12  -1 243.010 20.9548   4
  -6 -12   1 257.727 20.9927   4
  -6  12   1 282.216 22.8552   2
   6  12  -1 263.191 22.8689   2
  -4 -12   1 394.297 30.6033   4
   4 -12  -1 375.997 30.8764   4
  -4  12   1 435.931 32.8003   2
   4  12  -1 424.391 32.1979   2
  -2 -12   1 221.958 17.3146   4
   2 -12  -1 182.367 16.8945   4
   2  12  -1 222.435 19.1730   2
  -2  12   1 191.381 19.2159   2
   0 -12   1 123.040 11.5259   4
   0 -12  -1 104.545 11.2029   4
   0  12   1 111.481 14.0737   2
   0  12  -1 119.123 13.9623   2
   2 -12   1 61.7059 8.83157   4
  -2 -12  -1 70.5079 8.63579   4
   2  12   1 73.3392 11.0171   2
  -2  12  -1 69.6143 11.3279   2
   4 -12   1 81.0183 9.96584   4
  -4 -12  -1 83.2624 9.75653   4
   4  12   1 103.842 12.0912   2
  -4  12  -1 89.5673 12.1204   2
  -6 -12  -1 81.0935 9.68073   4
   6 -12   1 82.6064 9.71992   4
  -6  12  -1 90.0777 11.8764   2
   8 -12   1 20.0957 5.87151   4
  -8  12  -1 22.3190 6.86410   2
 -10 -12  -1 76.0606 11.9598   4
  10 -12   1 77.8950 9.84721   4
 -10  12  -1 71.7398 11.0552   2
  12 -12   1 57.3657 8.59717   4
 -12  12  -1 45.8924 8.97287   2
  14 -12   1 70.5892 10.4385   4
 -14  12  -1 94.3564 11.5293   2
  16 -12   1 122.522 13.0407   4
 -16  12  -1 143.306 14.6315   2
  13 -13  -1 5.23516 6.48404   4
 -13  13   1 -0.4295 8.20762   2
  11 -13  -1 11.7325 5.31054   4
 -11  13   1 6.93046 7.62650   2
   9 -13  -1 14.7018 5.52819   4
  -9  13   1 19.0821 9.02032   2
   7 -13  -1 31.4679 6.33021   4
  -7  13   1 33.7644 9.64782   2
   5 -13  -1 21.3710 5.33894   4
  -5  13   1 21.3242 9.39127   2
   5  13  -1 30.9704 11.9133   2
   3 -13  -1 43.5074 7.76757   4
  -3 -13   1 52.8875 8.17079   4
  -3  13   1 61.2030 10.8639   2
   3  13  -1 56.5765 10.9623   2
   1 -13  -1 14.0546 5.14851   4
  -1 -13   1 27.7915 5.99277   4
  -1  13   1 16.1912 9.83104   2
   1  13  -1 34.0163 9.54698   2
  -1 -13  -1 15.2165 5.30643   4
   1 -13   1 13.4972 5.50595   4
   1  13   1 12.2046 10.1673   2
  -1  13  -1 15.4433 8.68180   2
   3 -13   1 29.4076 6.25523   4
  -3 -13  -1 36.3705 6.14627   4
  -3  13  -1 10.3032 8.25622   2
   3  13   1 7.69894 11.4963   2
  -5 -13  -1 12.2678 6.23021   4
   5 -13   1 7.48657 5.19595   4
  -5  13  -1 4.42185 7.67704   2
   7 -13   1 45.2744 7.30518   4
  -7 -13  -1 58.0951 9.21615   4
  -7  13  -1 58.0840 9.76633   2
   9 -13   1 7.35532 5.63063   4
  -9  13  -1 6.91876 7.58662   2
  11 -13   1 7.03737 5.89994   4
 -11  13  -1 17.0522 8.16690   2
 -13  13  -1 21.9734 10.8345   2
  32   0  -2 133.752 13.7039   2
 -30   0   2 118.601 11.9065   3
  30   0  -2 143.244 13.0538   2
  28   0  -2 160.725 14.9516   2
 -28   0   2 166.161 13.9752   3
 -26   0   2 217.751 16.4074   3
  26   0  -2 170.554 18.8130   5
  26   0  -2 211.559 17.6139   2
  24   0  -2 123.248 13.4853   5
  24   0  -2 132.038 12.7472   2
 -24   0   2 137.411 11.4735   3
 -22   0   2 898.955 66.5465   3
  22   0  -2 936.748 67.6025   2
  22   0  -2 941.539 67.6508   5
  20   0  -2 90.6734 9.60927   2
 -20   0   2 84.8669 7.70864   5
  20   0  -2 83.7897 9.50714   5
 -20   0   2 94.0021 8.11072   3
  18   0  -2 588.636 41.5067   2
  18   0  -2 514.621 41.1723   5
 -18   0   2 594.165 40.2808   5
 -18   0   2 530.201 40.3744   3
  16   0  -2 1682.48 118.668   2
  16   0  -2 1634.53 118.493   5
  16   0  -2 1656.61 147.439   1
 -16   0   2 1571.60 117.730   2
 -16   0   2 1783.83 117.737   5
 -16   0   2 1629.94 117.759   3
  14   0  -2 4784.45 381.080   1
 -14   0   2 4893.47 362.763   3
 -14   0   2 5508.86 362.823   5
 -14   0   2 4761.89 362.781   2
  14   0  -2 5649.03 363.643   5
  14   0  -2 5262.92 363.608   2
 -12   0   2 5513.52 392.131   2
 -12   0   2 5511.87 392.039   3
  12   0  -2 5328.11 392.574   5
  12   0  -2 5913.96 392.784   2
  10   0  -2 8111.61 550.827   2
 -10   0   2 7089.94 550.345   2
  10   0  -2 8283.27 565.097   1
  -8   0   2 3430.26 248.975   2
  -8   0   2 3454.17 248.787   3
   8   0  -2 3833.83 260.673   1
  -8   0   2 3791.30 248.960   5
   8   0  -2 3178.82 249.093   2
  -6   0   2 3020.63 222.589   5
   6   0  -2 3368.95 230.856   1
   6   0  -2 3105.54 222.700   2
   4   0  -2 122.133 15.7447   1
   4   0  -2 128.876 9.26184   5
   4   0  -2 138.195 15.1321   1
  -4   0   2 117.903 9.24993   5
   2   0  -2 48.1954 3.51528   5
   2   0  -2 43.0887 8.07731   1
  -2   0   2 42.7969 3.58348   5
   0   0  -2 4.76068 0.73940   5
   0   0   2 2.88104 3.03128   1
   0   0   2 3.49430 0.78594   5
   0   0  -2 5.48537 3.57938   1
  -2   0  -2 1263.02 93.6283   5
  -2   0  -2 1391.09 97.4461   1
   2   0   2 1430.67 97.9149   1
   2   0   2 1247.90 93.7332   5
   4   0   2 2465.54 183.404   5
  -4   0  -2 2607.15 187.722   1
   4   0   2 2747.96 188.682   1
  -6   0  -2 1426.72 104.337   1
   6   0   2 1546.06 106.160   1
  -6   0  -2 1356.66 98.1020   3
  -6   0  -2 1348.18 98.1091   4
   6   0   2 1375.55 98.1666   5
   6   0   2 1305.19 98.2337   2
  -8   0  -2 3065.49 208.790   4
   8   0   2 3259.42 219.613   1
   8   0   2 2886.49 208.924   5
  -8   0  -2 2968.89 208.507   5
   8   0   2 2745.87 208.965   2
  -8   0  -2 2970.22 208.794   3
  -8   0  -2 2852.44 216.981   1
  10   0   2 6392.55 472.768   2
 -10   0  -2 5903.63 482.268   1
 -10   0  -2 7412.00 472.540   4
  10   0   2 6687.17 472.740   5
 -10   0  -2 6941.28 472.512   3
  10   0   2 6907.28 485.310   1
  12   0   2 5998.51 411.924   5
  12   0   2 5786.08 426.261   1
 -12   0  -2 6119.44 411.548   4
  12   0   2 5747.67 411.951   2
 -12   0  -2 5592.86 411.069   5
 -12   0  -2 5804.71 411.554   3
  14   0   2 3035.93 218.951   2
 -14   0  -2 3255.50 218.542   3
  14   0   2 3155.18 218.908   5
  14   0   2 2977.11 235.769   1
 -14   0  -2 3025.44 217.877   5
  16   0   2 946.300 66.1339   2
 -16   0  -2 895.713 64.6129   5
  16   0   2 824.566 65.7851   5
 -16   0  -2 987.533 65.5672   3
 -18   0  -2 77.7286 7.31151   3
  18   0   2 79.5827 8.55246   2
  18   0   2 70.7307 9.03470   5
  20   0   2 94.2045 10.3316   2
 -20   0  -2 103.042 8.88984   3
  20   0   2 76.2538 11.1629   5
  22   0   2 6.39767 5.00583   2
 -22   0  -2 4.82456 3.27621   3
  22   0   2 -2.1930 6.85044   5
  24   0   2 73.4912 10.6120   2
 -24   0  -2 71.3072 7.87898   3
  26   0   2 21.3557 7.11706   2
 -26   0  -2 14.7066 4.05946   3
  28   0   2 121.659 14.2533   2
 -28   0  -2 137.973 12.1586   3
  30   0   2 92.2534 12.6304   2
 -30   0  -2 69.1518 8.80035   3
 -32   0  -2 5.14532 5.11753   3
 -31  -1   2 52.6651 7.97085   3
  31  -1  -2 50.9670 7.87231   2
 -31   1   2 36.6875 7.22411   3
  29  -1  -2 20.6613 5.96360   2
 -29  -1   2 30.7428 5.21085   3
  29   1  -2 46.6215 7.01911   2
 -29   1   2 29.7108 5.58757   3
 -27  -1   2 13.7115 4.13530   3
  27  -1  -2 13.2184 8.00332   5
  27  -1  -2 13.0198 5.58473   2
  27   1  -2 7.16815 4.84590   2
 -27   1   2 14.2487 4.33993   3
  25  -1  -2 5.30485 6.25859   5
 -25  -1   2 8.04512 3.50430   3
  25  -1  -2 13.4282 5.63485   2
 -25   1   2 5.78463 2.86497   3
  25   1  -2 9.02652 4.58109   2
  25   1  -2 4.75894 8.42579   5
  23  -1  -2 29.0479 5.85391   2
 -23  -1   2 19.7537 3.56370   3
  23  -1  -2 11.4133 5.46300   5
  23   1  -2 32.2352 5.93160   2
 -23   1   2 18.2786 3.79632   3
 -23   1   2 10.4357 3.76492   5
  23   1  -2 30.7927 6.60438   5
  21  -1  -2 638.981 45.5131   2
 -21  -1   2 628.323 44.3865   3
  21  -1  -2 553.119 45.1170   5
 -21   1   2 648.925 44.1319   5
 -21   1   2 567.844 44.0592   3
  21   1  -2 591.856 45.0784   5
  21   1  -2 622.585 45.1761   2
 -19  -1   2 35.8388 4.25018   5
 -19  -1   2 50.7393 5.26523   3
  19  -1  -2 41.6907 6.72839   5
  19  -1  -2 43.6713 6.70023   2
  19   1  -2 51.8753 6.81417   2
  19   1  -2 50.0368 6.72637   5
 -19   1   2 37.9349 4.93275   3
 -19   1   2 47.8949 5.15000   5
 -17  -1   2 74.8823 6.84323   5
  17  -1  -2 94.3924 8.97972   2
  17  -1  -2 77.9145 8.60610   5
 -17  -1   2 78.6356 7.38807   3
 -17   1   2 82.5612 8.01637   2
 -17   1   2 93.5091 7.39947   3
 -17   1   2 87.5507 7.34700   5
  17   1  -2 79.8483 8.56873   2
  17   1  -2 79.5316 8.41687   5
 -15  -1   2 18.2223 3.21913   3
  15  -1  -2 20.8756 26.1828   1
 -15  -1   2 17.0342 2.58156   5
  15  -1  -2 14.8258 3.74891   5
  15  -1  -2 6.10680 3.35121   2
 -15   1   2 10.6781 2.96718   2
 -15   1   2 13.3285 2.69864   5
 -15   1   2 14.7348 2.69108   3
  15   1  -2 28.3632 29.6370   1
  15   1  -2 17.9829 4.02461   2
  15   1  -2 19.8672 3.86338   5
  13  -1  -2 66.9822 7.88447   5
  13  -1  -2 90.9530 8.37793   2
  13  -1  -2 75.3811 27.5244   1
 -13  -1   2 94.4267 7.11271   3
 -13  -1   2 95.0258 6.92827   5
  13   1  -2 117.394 26.9061   1
 -13   1   2 48.9332 23.9402   1
  13   1  -2 81.8535 7.61421   5
 -13   1   2 78.2157 7.20606   2
 -13   1   2 89.2812 7.18224   5
 -13   1   2 69.0874 6.81687   3
  13   1  -2 87.9811 7.94700   2
  13   1  -2 92.2693 27.9127   1
  11  -1  -2 97.1538 30.9672   1
  11  -1  -2 65.8631 6.51891   5
 -11  -1   2 65.2707 5.44468   5
  11  -1  -2 67.0385 6.76418   2
 -11  -1   2 65.9821 5.48644   3
 -11   1   2 39.2914 19.8511   1
 -11   1   2 54.4281 5.72485   2
  11   1  -2 62.1467 5.93517   5
  11   1  -2 69.4808 19.4652   1
 -11   1   2 66.2048 5.71938   5
  11   1  -2 87.3587 23.4289   1
  11   1  -2 64.0969 6.25604   2
   9  -1  -2 224.322 30.5448   1
   9  -1  -2 213.194 15.3378   5
  -9  -1   2 191.570 14.5927   5
  -9  -1   2 179.655 14.5340   3
   9  -1  -2 203.473 15.3564   2
   9   1  -2 182.934 27.4611   1
  -9   1   2 184.239 14.8266   2
  -9   1   2 178.979 14.5188   3
   9   1  -2 178.746 24.6134   1
  -9   1   2 232.117 30.8556   1
  -9   1   2 229.520 14.9069   5
   9   1  -2 208.236 14.8800   5
   9   1  -2 199.370 14.9320   2
   7  -1  -2 136.327 10.5688   2
   7  -1  -2 185.805 23.6447   1
   7  -1  -2 123.773 10.4372   5
  -7  -1   2 124.292 10.0297   5
  -7  -1   2 139.957 9.95951   3
   7   1  -2 125.696 19.6623   1
   7   1  -2 139.153 10.2032   2
  -7   1   2 150.545 10.3049   5
   7   1  -2 124.571 10.0826   5
  -7   1   2 137.083 21.9502   1
   7   1  -2 139.221 17.7370   1
  -7   1   2 131.392 10.3048   2
  -5  -1   2 691.732 48.1410   5
   5  -1  -2 688.585 48.3226   2
   5  -1  -2 692.619 48.3091   5
  -5   1   2 738.124 58.4036   1
  -5   1   2 622.847 48.2412   2
   5   1  -2 599.661 54.1966   1
  -5   1   2 730.197 48.2719   5
   5   1  -2 666.326 48.0681   5
  -3  -1   2 1806.57 126.539   5
   3  -1  -2 1902.13 133.414   1
   3  -1  -2 1728.00 126.517   5
  -3  -1   2 1753.04 131.313   1
  -3   1   2 1872.13 133.546   1
  -3   1   2 1743.06 126.554   5
   3   1  -2 1773.91 131.672   1
   1  -1  -2 2822.80 202.555   1
  -1  -1   2 2782.38 198.218   5
  -1  -1   2 2975.11 203.091   1
   1   1  -2 2899.91 202.980   1
  -1   1   2 2606.80 198.119   5
  -1  -1  -2 120.400 8.10170   5
  -1  -1  -2 123.374 11.2740   1
   1  -1   2 120.449 8.48800   5
  -1  -1  -2 110.627 8.16490   5
   1   1   2 97.0421 8.14721   5
  -1   1  -2 115.892 8.24161   5
   1   1   2 106.707 11.5198   1
   3  -1   2 3380.38 240.577   5
  -3  -1  -2 3546.74 242.768   1
  -3   1  -2 3614.65 246.395   1
   3   1   2 3080.24 240.200   5
   3   1   2 3468.68 243.036   1
   5  -1   2 261.936 19.7842   2
   5  -1   2 257.611 27.6109   1
   5  -1   2 266.585 19.6323   5
  -5  -1  -2 265.805 19.3093   3
  -5  -1  -2 307.551 19.3143   4
  -5  -1  -2 299.226 22.7716   1
   5   1   2 260.597 19.1107   5
  -5   1  -2 253.181 19.3576   4
  -5   1  -2 255.289 19.1856   5
  -5   1  -2 240.841 25.7551   1
   7  -1   2 330.399 25.9042   5
  -7  -1  -2 375.617 25.6089   3
   7  -1   2 342.459 26.0960   2
  -7  -1  -2 387.773 25.5385   4
  -7  -1  -2 373.880 31.2784   1
   7  -1   2 315.891 36.4608   1
  -7   1  -2 359.954 34.9147   1
   7   1   2 413.215 32.1105   1
   7   1   2 325.467 25.4277   5
  -7   1  -2 342.701 25.4026   5
  -7   1  -2 346.163 25.6119   4
  -9  -1  -2 1690.46 124.629   1
   9  -1   2 1633.55 117.281   2
   9  -1   2 1626.96 117.161   5
  -9  -1  -2 1842.42 116.726   4
   9  -1   2 1652.52 131.330   1
  -9  -1  -2 1713.11 116.781   3
   9   1   2 1639.54 116.807   2
   9   1   2 1726.50 116.788   5
  -9   1  -2 1542.77 116.528   2
  -9   1  -2 1581.94 116.557   5
  -9   1  -2 1485.07 127.841   1
 -11  -1  -2 1190.03 79.4053   3
  11  -1   2 1069.21 79.9232   2
  11  -1   2 1159.33 79.9320   5
  11  -1   2 907.221 94.5076   1
 -11  -1  -2 1251.02 79.2914   4
 -11  -1  -2 1089.71 88.7471   1
  11   1   2 1204.61 79.6255   2
  11   1   2 1105.61 79.4578   5
 -11   1  -2 1134.36 79.3801   3
 -11   1  -2 1078.91 79.0924   5
 -11   1  -2 1024.57 79.0810   2
  13  -1   2 885.024 64.9766   2
 -13  -1  -2 1009.19 64.2309   4
 -13  -1  -2 981.004 64.3569   3
  13  -1   2 860.080 64.8241   5
  13   1   2 963.910 64.6721   2
  13   1   2 898.697 64.4927   5
  13   1   2 1032.06 79.5019   1
 -13   1  -2 725.375 80.6063   1
 -13   1  -2 842.192 64.2549   3
 -13   1  -2 895.160 63.9668   5
 -13   1  -2 788.007 63.9335   2
  15  -1   2 35.0261 5.79332   2
 -15  -1  -2 40.7020 4.29029   4
 -15  -1  -2 39.8638 4.31400   3
  15  -1   2 26.0114 5.16912   5
 -15   1  -2 35.0804 3.87082   5
  15   1   2 36.8985 5.68260   5
 -15   1  -2 31.0248 5.29799   2
  15   1   2 33.7734 5.68098   2
 -15   1  -2 32.8128 4.17801   3
 -17  -1  -2 33.8466 4.34315   3
  17  -1   2 35.1372 5.76676   2
  17  -1   2 27.2569 5.25411   5
  17   1   2 31.2277 5.45289   2
 -17   1  -2 32.8931 3.90450   5
 -17   1  -2 37.9390 4.40485   3
  17   1   2 27.0591 5.32981   5
  19  -1   2 184.903 18.4839   5
 -19  -1  -2 245.370 17.5337   3
  19  -1   2 247.597 18.7659   2
  19   1   2 199.319 18.5173   5
 -19   1  -2 235.565 16.6787   5
  19   1   2 203.962 18.1926   2
 -19   1  -2 235.051 17.5483   3
 -21  -1  -2 80.6828 7.71529   3
  21  -1   2 61.7610 10.6992   5
  21  -1   2 75.6098 9.67322   2
  21   1   2 79.0106 11.1162   5
  21   1   2 78.2683 9.41062   2
 -21   1  -2 74.1495 7.77224   3
  23  -1   2 99.7435 12.2368   2
 -23  -1  -2 115.122 10.2986   3
  23  -1   2 87.0080 13.9171   5
  23   1   2 112.798 12.1203   2
 -23   1  -2 118.029 10.4684   3
 -25  -1  -2 19.0470 5.09444   3
  25  -1   2 19.8366 6.89621   2
  25  -1   2 9.07817 9.14794   5
  25   1   2 12.4764 6.54979   2
 -25   1  -2 21.4370 4.78266   3
  27  -1   2 19.4972 7.06695   2
 -27  -1  -2 19.5425 5.50016   3
 -27   1  -2 23.0987 5.71540   3
  27   1   2 34.3652 7.71932   2
  29  -1   2 90.6401 12.8012   2
 -29  -1  -2 128.001 10.9050   3
 -29   1  -2 83.9617 10.0348   3
  29   1   2 116.707 13.5157   2
 -31  -1  -2 46.9889 6.61346   3
  31  -1   2 22.7099 8.40809   2
 -31   1  -2 25.9588 5.03098   3
  31   1   2 33.9021 9.73868   2
  32  -2  -2 53.5528 9.09766   2
 -30  -2   2 40.4379 6.44762   3
  30  -2  -2 50.0871 8.35921   2
  30   2  -2 71.8962 9.69732   2
 -28  -2   2 60.4647 7.91617   3
  28  -2  -2 65.4837 9.17628   2
  28   2  -2 79.3362 9.31788   2
 -28   2   2 49.6618 7.60591   3
  26  -2  -2 59.5300 9.08039   2
  26  -2  -2 39.4115 8.85768   5
 -26  -2   2 62.5473 7.56839   3
 -26   2   2 49.8683 6.70247   3
  26   2  -2 76.5278 8.76804   2
  24  -2  -2 138.329 12.3367   2
 -24  -2   2 114.200 10.4721   3
  24  -2  -2 90.9625 12.0418   5
 -24   2   2 106.596 10.4680   5
 -24   2   2 113.025 10.1143   3
  24   2  -2 104.694 11.1873   2
  22  -2  -2 13.2055 5.11555   2
  22  -2  -2 6.45671 4.70027   5
 -22  -2   2 10.9438 3.10000   3
  22   2  -2 12.6352 4.60410   2
 -22   2   2 11.9856 3.64843   5
  22   2  -2 7.03259 5.64799   5
 -22   2   2 14.3440 3.65332   3
 -20  -2   2 28.9401 4.79756   3
  20  -2  -2 27.3922 5.82350   2
  20  -2  -2 22.6478 5.17620   5
 -20   2   2 27.3644 4.28791   3
 -20   2   2 27.6366 4.71073   5
  20   2  -2 28.1925 5.41677   2
  20   2  -2 24.3057 5.42470   5
  18  -2  -2 40.5288 6.72163   2
  18  -2  -2 35.5837 6.31742   5
 -18  -2   2 43.2364 5.04601   3
  18   2  -2 41.3767 6.02500   2
  18   2  -2 35.2993 6.23380   5
 -18   2   2 34.4897 5.57025   2
 -18   2   2 39.3606 4.64683   3
 -18   2   2 39.0145 4.90350   5
  16  -2  -2 44.3124 6.97511   2
 -16  -2   2 69.4940 5.88373   3
  16  -2  -2 55.3830 7.01958   5
  16   2  -2 55.1685 6.38022   5
 -16   2   2 56.9434 5.78428   5
  16   2  -2 66.3958 6.80099   2
 -16   2   2 45.7898 6.09499   2
 -16   2   2 59.1064 5.49416   3
  16   2  -2 68.8379 35.6962   1
 -14  -2   2 287.123 19.5556   5
  14  -2  -2 275.174 21.2260   5
 -14  -2   2 255.315 20.1759   3
  14  -2  -2 238.455 21.0844   2
 -14  -2   2 232.119 19.6940   5
  14  -2  -2 236.694 49.4987   1
  14   2  -2 296.673 46.1801   1
  14   2  -2 308.062 20.6109   5
 -14   2   2 263.600 20.3596   2
 -14   2   2 264.148 19.9768   3
 -14   2   2 240.325 48.0766   1
  14   2  -2 318.598 20.8035   2
 -14   2   2 273.954 20.2604   5
  12  -2  -2 482.531 39.1817   2
  12  -2  -2 522.893 39.2631   5
  12  -2  -2 466.867 60.0170   1
 -12  -2   2 590.216 38.0727   5
 -12  -2   2 529.275 38.4224   5
 -12   2   2 468.654 60.6027   1
 -12   2   2 494.331 38.5083   2
  12   2  -2 522.088 38.6096   2
 -12   2   2 539.637 38.2558   3
  12   2  -2 613.799 57.3638   1
  12   2  -2 499.826 38.4764   5
 -12   2   2 566.171 38.5812   5
  12   2  -2 659.793 56.2706   1
  10  -2  -2 1568.58 131.122   1
 -10  -2   2 1722.68 112.579   3
  10  -2  -2 1600.46 113.276   5
  10  -2  -2 1511.78 113.212   2
 -10  -2   2 1644.47 112.344   5
 -10   2   2 1342.72 130.125   1
 -10   2   2 1432.89 112.352   3
  10   2  -2 1482.63 112.564   2
  10   2  -2 1734.11 112.639   5
 -10   2   2 1805.45 112.824   5
  10   2  -2 1493.09 122.276   1
 -10   2   2 1581.09 112.737   2
  10   2  -2 1692.63 125.333   1
  -8  -2   2 1069.29 82.0990   5
   8  -2  -2 1243.43 82.8864   5
   8  -2  -2 1117.95 82.7655   2
   8  -2  -2 1102.85 97.8211   1
  -8  -2   2 1207.91 82.2066   3
  -8   2   2 1284.94 82.5273   5
   8   2  -2 1218.30 90.5166   1
   8   2  -2 1011.45 82.1444   2
  -8   2   2 1116.53 82.4329   2
   8   2  -2 1341.35 82.2720   5
   8   2  -2 1315.22 92.9374   1
  -8   2   2 1048.27 82.0603   3
  -8   2   2 999.898 97.7490   1
   6  -2  -2 156.640 12.6873   2
  -6  -2   2 155.646 12.1860   3
   6  -2  -2 185.474 12.8297   5
   6  -2  -2 156.012 25.6234   1
  -6  -2   2 171.167 12.3195   5
  -6   2   2 236.224 37.4470   1
   6   2  -2 167.438 12.1990   5
  -6   2   2 164.034 12.5558   5
   6   2  -2 164.114 12.2216   2
   6   2  -2 171.321 20.8479   1
  -6   2   2 166.128 12.6106   2
   4  -2  -2 113.167 19.9121   1
  -4  -2   2 114.048 8.81310   5
   4  -2  -2 107.264 8.93458   2
  -4  -2   2 107.622 8.62034   3
  -4  -2   2 120.384 14.6965   1
   4  -2  -2 123.622 8.98191   5
   4   2  -2 126.949 8.66083   2
  -4   2   2 109.509 18.9645   1
  -4   2   2 109.190 9.02481   2
   4   2  -2 119.105 15.5036   1
  -4   2   2 116.848 8.99076   5
   4   2  -2 129.914 8.64403   5
  -2  -2   2 5374.45 353.552   5
   2  -2  -2 4606.05 377.927   1
   2   2  -2 4856.04 353.383   2
   2   2  -2 5426.34 359.910   1
  -2   2   2 5175.69 361.405   1
  -2   2   2 4661.84 353.519   2
   0  -2  -2 136.299 10.3989   5
   0  -2  -2 142.113 17.0080   1
   0  -2   2 139.124 10.6304   3
   0  -2   2 152.236 17.1717   1
   0  -2   2 143.017 10.9596   5
   0  -2  -2 133.878 10.6170   4
   0   2  -2 160.676 10.6554   2
   0   2   2 149.677 15.3090   1
   0   2  -2 161.388 10.6050   5
   0   2   2 134.110 10.6213   5
   0   2  -2 157.641 17.3976   1
   2  -2   2 826.238 58.1733   5
  -2  -2  -2 821.108 60.0343   1
   2  -2   2 808.327 65.1356   1
  -2  -2  -2 764.997 57.7344   4
  -2  -2  -2 873.915 61.8550   1
   2  -2   2 800.892 58.3521   2
   2   2   2 783.506 57.6165   5
  -2   2  -2 862.368 57.7778   5
  -2   2  -2 815.509 57.7975   2
   4  -2   2 52.7624 5.10088   5
  -4  -2  -2 45.9082 3.96629   3
   4  -2   2 76.9107 18.1301   1
   4  -2   2 53.5213 5.48619   2
  -4  -2  -2 55.0765 4.04886   4
   4   2   2 47.5817 3.63299   5
  -4   2  -2 46.2864 4.13335   2
  -4   2  -2 62.8930 13.5218   1
  -4   2  -2 47.8429 4.07105   5
   6  -2   2 176.000 12.8933   5
   6  -2   2 199.843 26.2371   1
  -6  -2  -2 146.115 11.9252   4
   6  -2   2 150.299 13.0005   2
  -6  -2  -2 148.088 11.9939   3
  -6   2  -2 151.931 22.6068   1
   6   2   2 160.043 11.6622   5
  -6   2  -2 193.008 12.1171   2
  -8  -2  -2 174.454 13.4263   3
  -8  -2  -2 162.372 13.2477   4
   8  -2   2 167.513 14.4443   2
   8  -2   2 195.159 14.4243   5
  -8   2  -2 179.291 27.4124   1
  -8   2  -2 214.020 13.5003   2
   8   2   2 170.436 13.1925   5
  10  -2   2 260.887 20.0792   2
  10  -2   2 255.886 40.4456   1
  10  -2   2 255.837 19.9391   5
 -10  -2  -2 253.946 19.0374   3
 -10  -2  -2 283.289 18.9281   4
  10   2   2 244.478 18.9414   5
 -10   2  -2 240.832 18.9355   2
 -10   2  -2 279.764 19.0389   5
 -10   2  -2 222.888 34.6287   1
  10   2   2 262.496 24.7155   1
  10   2   2 251.026 19.0700   2
 -12  -2  -2 239.899 20.4970   4
  12  -2   2 299.804 21.9648   2
 -12  -2  -2 254.294 20.7181   3
  12  -2   2 317.754 21.9578   5
  12  -2   2 319.154 50.1711   1
 -12   2  -2 300.746 20.7946   2
 -12   2  -2 315.334 20.7954   5
  12   2   2 282.253 20.9638   2
  12   2   2 239.602 20.7601   5
  14  -2   2 59.8651 33.0501   1
  14  -2   2 73.7201 8.35157   2
 -14  -2  -2 74.6646 6.66766   4
 -14  -2  -2 77.4983 6.90506   3
  14  -2   2 78.5162 8.43010   5
 -14   2  -2 77.8105 6.98943   3
  14   2   2 82.3263 7.68943   2
 -14   2  -2 74.2377 7.13282   2
 -14   2  -2 43.3141 30.3894   1
 -14   2  -2 75.5287 6.75825   5
  14   2   2 85.5493 7.64985   5
  16  -2   2 5.58449 3.89169   5
 -16  -2  -2 9.46638 2.57640   4
  16  -2   2 10.5304 4.18653   2
 -16  -2  -2 10.5081 2.66160   3
  16   2   2 12.0524 4.24152   5
 -16   2  -2 10.6635 3.28891   3
  16   2   2 11.8009 3.94140   2
 -16   2  -2 9.56568 2.49219   5
 -16   2  -2 8.62499 3.41755   2
  16   2   2 13.7460 24.6122   1
  18  -2   2 15.1289 5.09435   2
 -18  -2  -2 24.4742 3.79220   4
  18  -2   2 20.0828 5.29277   5
 -18  -2  -2 15.9185 3.17783   3
 -18   2  -2 18.7016 3.35955   5
  18   2   2 28.6869 5.26992   2
 -18   2  -2 25.0039 4.52817   3
  18   2   2 20.7904 5.54757   5
  20  -2   2 90.8267 10.3959   2
 -20  -2  -2 102.231 8.78458   3
  20  -2   2 73.5170 10.8625   5
  20   2   2 93.7250 10.2166   2
 -20   2  -2 90.2845 8.34489   5
 -20   2  -2 96.1823 8.94521   3
  22  -2   2 31.7339 7.95596   5
  22  -2   2 57.6964 8.80833   2
 -22  -2  -2 49.2093 6.53997   3
  22   2   2 36.1613 7.12099   2
 -22   2  -2 59.8399 6.73256   3
 -22   2  -2 48.5170 5.92604   5
  24  -2   2 67.5567 10.5675   2
 -24  -2  -2 69.7221 7.92704   3
  24  -2   2 48.1213 10.2145   5
  24   2   2 68.5331 10.1430   2
 -24   2  -2 87.8210 8.60813   3
 -26  -2  -2 36.3247 6.38447   3
  26  -2   2 23.5396 10.2833   5
  26  -2   2 25.0452 7.47707   2
 -26   2  -2 32.4265 5.87757   3
  26   2   2 25.0863 7.79090   2
  28  -2   2 42.1013 9.33294   2
 -28  -2  -2 68.3218 8.36488   3
  28   2   2 77.3187 11.1421   2
 -28   2  -2 66.2423 8.00078   3
 -30  -2  -2 28.9037 5.72574   3
  30  -2   2 23.1967 8.16193   2
  30   2   2 23.1960 10.0150   2
 -30   2  -2 28.8897 5.55745   3
 -32  -2  -2 28.1268 6.23193   3
 -31  -3   2 99.9681 11.0951   3
  31  -3  -2 128.113 11.9871   2
 -29  -3   2 108.029 11.3021   3
  29  -3  -2 144.806 12.5296   2
  29   3  -2 104.924 12.5578   2
 -29   3   2 114.887 11.7449   3
  27  -3  -2 157.547 17.3644   5
  27  -3  -2 203.493 16.5974   2
 -27  -3   2 180.778 15.0853   3
  27   3  -2 160.940 15.4335   2
 -27   3   2 180.276 14.5169   3
  25  -3  -2 123.572 12.5684   2
 -25  -3   2 125.786 11.1081   3
  25  -3  -2 97.8800 12.7662   5
 -25   3   2 117.320 11.3982   5
  25   3  -2 118.458 11.7253   2
 -25   3   2 107.091 10.5571   3
  23  -3  -2 272.462 23.4716   5
  23  -3  -2 304.979 23.5582   2
 -23  -3   2 304.250 22.4611   3
  23   3  -2 274.614 22.5070   2
 -23   3   2 287.624 22.1760   5
 -23   3   2 271.461 21.7468   3
 -21  -3   2 106.967 10.0031   3
  21  -3  -2 108.797 11.5585   2
  21  -3  -2 100.235 11.4082   5
 -21   3   2 114.012 10.0592   5
 -21   3   2 113.948 9.56877   3
 -21   3   2 101.913 11.1522   2
  21   3  -2 104.292 10.5300   2
  19  -3  -2 203.418 17.8357   5
 -19  -3   2 212.435 16.8455   3
  19  -3  -2 234.395 18.3534   2
 -19   3   2 218.362 16.3529   3
 -19   3   2 217.098 17.0932   2
  19   3  -2 184.864 17.0558   5
 -19   3   2 216.600 16.7915   5
  19   3  -2 207.718 17.1003   2
  17  -3  -2 886.275 63.1833   5
 -17  -3   2 808.561 62.1075   3
  17  -3  -2 891.827 63.3316   2
 -17   3   2 866.503 61.7670   3
  17   3  -2 804.660 62.1664   2
 -17   3   2 942.852 62.2463   5
 -17   3   2 839.456 62.1919   2
  15  -3  -2 1542.85 107.343   2
 -15  -3   2 1389.37 106.195   3
  15  -3  -2 1602.74 107.363   5
  15   3  -2 1336.31 106.063   5
  15   3  -2 1379.82 124.956   1
 -15   3   2 1599.00 105.977   3
 -15   3   2 1618.16 106.373   5
  15   3  -2 1404.65 106.204   2
 -15   3   2 1538.55 106.364   2
 -13  -3   2 3916.57 268.329   3
  13  -3  -2 4104.13 269.349   5
  13  -3  -2 4008.83 269.338   2
 -13  -3   2 3648.98 267.649   4
 -13   3   2 3894.78 268.035   3
  13   3  -2 3493.97 268.170   2
  13   3  -2 3745.81 282.399   1
 -13   3   2 3536.37 268.334   2
  13   3  -2 3665.03 268.148   5
 -13   3   2 4001.87 268.442   5
 -11  -3   2 2764.01 195.330   3
 -11  -3   2 2463.74 194.789   4
  11  -3  -2 2759.19 196.194   5
  11  -3  -2 2875.99 219.425   1
  11  -3  -2 2764.97 196.191   2
 -11   3   2 2613.44 219.576   1
  11   3  -2 2993.56 195.330   2
 -11   3   2 2747.82 195.539   2
  11   3  -2 2682.56 205.640   1
  11   3  -2 2871.44 208.060   1
  11   3  -2 2622.92 195.180   5
 -11   3   2 2626.59 195.100   3
 -11   3   2 3175.42 195.695   5
  -9  -3   2 5788.75 443.828   5
   9  -3  -2 6612.52 445.067   2
  -9  -3   2 6628.85 443.884   5
   9   3  -2 6410.16 444.186   5
   9   3  -2 5907.43 444.148   2
   9   3  -2 6771.77 455.303   1
   9   3  -2 6893.03 453.360   1
  -9   3   2 5519.58 444.427   2
  -7  -3   2 1182.32 91.2266   1
   7  -3  -2 1241.17 103.429   1
  -7  -3   2 1225.08 84.2425   5
   7  -3  -2 1282.49 85.0221   5
   7  -3  -2 1176.18 84.8893   2
  -7  -3   2 1069.69 84.2878   3
   7   3  -2 1243.42 94.0108   1
   7   3  -2 1241.02 84.2506   5
  -7   3   2 1192.08 84.6725   5
   7   3  -2 1159.74 84.2402   2
  -7   3   2 1120.04 84.6028   2
  -5  -3   2 369.675 27.5960   3
  -5  -3   2 401.244 34.6808   1
  -5  -3   2 404.413 27.7485   5
   5  -3  -2 402.506 43.8909   1
   5  -3  -2 379.961 27.9694   2
   5  -3  -2 419.972 28.0727   5
   5   3  -2 413.182 36.6946   1
  -5   3   2 369.290 27.9190   5
  -5   3   2 376.754 43.7767   1
   5   3  -2 369.027 27.5017   5
  -5   3   2 365.312 27.8714   2
   5   3  -2 377.203 27.5407   2
  -3  -3   2 64.0420 12.6244   1
   3  -3  -2 44.1140 4.53127   2
  -3  -3   2 46.8392 4.31575   5
   3  -3  -2 49.5281 3.98788   5
   3  -3  -2 40.6992 3.76109   4
   3  -3  -2 38.5475 14.1802   1
  -3  -3   2 42.7976 3.72839   3
   3   3  -2 46.8656 3.63832   5
  -3   3   2 41.8349 13.9270   1
   3   3  -2 60.0239 13.1688   1
  -3   3   2 37.0246 4.13190   2
  -3   3   2 38.5261 4.11041   5
   3   3  -2 45.4245 3.71050   2
  -1  -3   2 746.323 51.7708   5
   1  -3  -2 714.523 61.1861   1
  -1  -3   2 774.719 51.4324   3
   1  -3  -2 691.826 51.3561   4
   1  -3  -2 751.691 51.2508   5
   1   3  -2 734.064 51.3096   5
   1   3  -2 726.356 59.6107   1
  -1   3   2 697.537 51.4754   5
  -1   3   2 768.256 60.6287   1
  -1   3   2 681.420 51.4188   2
   1   3  -2 690.270 51.3285   2
   1  -3   2 32.2535 9.81986   1
   1  -3   2 46.3115 4.87081   5
  -1  -3  -2 48.5063 3.26339   5
  -1  -3  -2 44.3938 3.72487   4
   1  -3   2 43.5046 5.27637   2
  -1  -3  -2 60.2998 11.5825   1
  -1  -3  -2 45.8487 3.24761   5
  -1   3  -2 44.6361 11.2779   1
  -1   3  -2 44.5968 3.78093   2
   1   3   2 37.9792 3.82046   5
  -1   3  -2 40.1452 3.66994   5
   1   3   2 50.7034 9.52836   1
  -3  -3  -2 678.390 50.9776   1
   3  -3   2 712.679 60.3460   1
  -3  -3  -2 675.843 49.0596   4
  -3  -3  -2 644.658 48.9439   3
   3  -3   2 687.136 49.7752   5
   3  -3   2 639.364 49.8915   2
  -3  -3  -2 686.526 51.2780   1
  -3   3  -2 734.349 49.1610   2
  -3   3  -2 727.034 49.1223   5
  -3   3  -2 754.484 60.5317   1
   5  -3   2 1325.04 99.3353   2
  -5  -3  -2 1374.08 98.4014   4
   5  -3   2 1417.17 99.2520   5
  -5  -3  -2 1370.59 98.3676   3
  -5   3  -2 1422.33 98.5035   5
  -5   3  -2 1447.29 98.5335   2
   7  -3   2 2686.65 191.957   2
  -7  -3  -2 2572.93 190.864   4
   7  -3   2 2871.41 210.048   1
   7  -3   2 2857.85 191.904   5
  -7  -3  -2 2576.45 190.922   3
  -7   3  -2 2760.90 191.037   2
  -7   3  -2 2607.52 205.724   1
  -7   3  -2 2747.87 191.031   5
  -9  -3  -2 4488.32 346.234   4
   9  -3   2 4822.86 347.400   2
  -9  -3  -2 4656.53 346.397   3
   9  -3   2 5030.89 347.345   5
  -9   3  -2 5570.65 346.558   2
  -9   3  -2 4751.86 364.172   1
  -9   3  -2 5088.14 346.494   5
  11  -3   2 4194.02 285.230   5
 -11  -3  -2 3877.14 284.045   4
  11  -3   2 4000.71 285.266   2
 -11  -3  -2 3836.17 284.248   3
  11   3   2 3794.12 283.916   2
  11   3   2 3848.49 283.869   5
 -11   3  -2 4418.68 284.356   2
 -11   3  -2 4281.70 284.368   5
  13  -3   2 2109.38 142.456   5
 -13  -3  -2 1817.19 141.101   4
 -13  -3  -2 1965.16 141.442   3
  13  -3   2 2046.82 174.292   1
  13  -3   2 2118.05 142.617   2
 -13   3  -2 2140.03 141.500   5
  13   3   2 1823.63 141.055   5
 -13   3  -2 2032.98 141.409   2
  13   3   2 1939.04 141.164   2
 -15  -3  -2 1226.90 100.893   4
  15  -3   2 1496.84 102.401   5
 -15  -3  -2 1401.71 101.377   3
  15  -3   2 1420.13 102.471   2
  15   3   2 1323.38 101.103   2
 -15   3  -2 1527.34 101.374   5
 -15   3  -2 1398.75 101.300   2
 -15   3  -2 1600.68 101.641   3
 -17  -3  -2 127.823 11.4668   3
  17  -3   2 160.917 13.3879   2
  17  -3   2 148.128 13.2845   5
 -17  -3  -2 127.666 11.1617   4
  17   3   2 133.934 12.1507   2
 -17   3  -2 143.814 11.6133   5
 -17   3  -2 144.003 11.7842   3
 -17   3  -2 140.238 12.0828   2
  19  -3   2 105.228 12.0452   2
 -19  -3  -2 127.651 10.7439   3
  19  -3   2 98.9358 12.4213   5
 -19  -3  -2 123.861 10.2916   4
  19   3   2 128.256 11.7780   2
 -19   3  -2 123.945 10.8460   3
 -19   3  -2 135.182 10.7367   5
  21  -3   2 16.9255 6.13659   2
 -21  -3  -2 16.7014 4.17286   3
  21  -3   2 13.5526 6.33533   5
 -21   3  -2 13.7130 3.89628   5
  21   3   2 14.2585 5.53293   2
 -21   3  -2 12.0010 3.40363   3
  23  -3   2 8.12511 7.19122   5
 -23  -3  -2 7.83336 3.49190   3
  23  -3   2 11.0585 5.81919   2
 -23   3  -2 10.2404 4.11998   3
  23   3   2 6.94976 6.28224   2
 -23   3  -2 10.3041 4.40098   5
  25  -3   2 6.68648 6.54186   2
  25  -3   2 3.59580 8.22115   5
 -25  -3  -2 11.2066 4.33518   3
  25   3   2 23.8823 7.04829   2
 -25   3  -2 15.5512 5.31165   3
  27  -3   2 20.9591 7.17630   2
  27  -3   2 13.0580 11.7045   5
 -27  -3  -2 28.2866 5.77015   3
  27   3   2 9.62288 7.39604   2
 -27   3  -2 19.6223 4.72607   3
  29  -3   2 33.1962 8.46880   2
 -29  -3  -2 48.3898 6.85316   3
 -29   3  -2 36.2652 6.20366   3
 -31  -3  -2 50.2840 7.54417   3
  31  -3   2 78.9324 11.4952   2
 -31   3  -2 49.5295 7.92451   3
  30  -4  -2 6.13637 5.90619   2
 -30  -4   2 23.7667 5.83512   3
 -28  -4   2 18.5979 5.18936   3
  28   4  -2 16.6576 7.19173   2
  26  -4  -2 29.2113 6.79015   2
  26  -4  -2 21.4671 7.33248   5
 -26  -4   2 22.5772 5.49933   3
 -26   4   2 28.2627 5.44605   3
  26   4  -2 21.8498 6.22714   2
 -26   4   2 19.3820 6.30477   5
  24  -4  -2 32.9894 6.92948   2
 -24  -4   2 36.9572 5.87512   3
  24  -4  -2 17.4085 6.60735   5
 -24   4   2 27.1227 4.98561   3
 -24   4   2 16.8811 5.02903   5
  24   4  -2 42.5477 6.38281   2
  22  -4  -2 75.2580 10.6988   5
 -22  -4   2 83.5443 9.19732   3
  22  -4  -2 83.7021 10.5011   2
 -22   4   2 98.5019 9.28182   5
  22   4  -2 97.1887 9.65442   2
 -22   4   2 80.0854 10.6872   2
 -22   4   2 86.4355 8.50959   3
  20  -4  -2 107.038 11.6865   5
  20  -4  -2 123.801 12.0103   2
 -20  -4   2 106.607 10.5185   3
  20   4  -2 97.1385 10.5557   2
 -20   4   2 110.740 9.84323   3
 -20   4   2 121.104 10.5938   5
 -20   4   2 119.794 11.0229   2
 -18  -4   2 72.5583 7.86489   3
  18  -4  -2 74.4065 9.11974   5
  18  -4  -2 76.5167 9.33593   2
 -18   4   2 73.3508 8.21033   2
 -18   4   2 75.3628 7.25361   3
 -18   4   2 76.0438 7.77009   5
  18   4  -2 80.6431 8.08159   2
  16  -4  -2 7.82828 4.07512   2
  16  -4  -2 6.29892 3.69168   5
 -16  -4   2 6.70773 2.97904   3
  16   4  -2 7.03355 3.54441   5
 -16   4   2 3.62726 2.63235   5
  16   4  -2 7.17519 3.12698   2
 -16   4   2 2.34246 2.87469   2
 -16   4   2 6.89251 2.44301   3
  14  -4  -2 22.6710 5.14249   2
  14  -4  -2 20.4198 4.18517   5
  14  -4  -2 -36.474 32.5760   1
 -14  -4   2 26.6598 3.78796   4
 -14  -4   2 24.4894 3.77027   3
 -14   4   2 17.9783 3.37362   5
 -14   4   2 13.3532 40.0725   1
  14   4  -2 24.3605 3.88279   2
 -14   4   2 21.2042 3.54203   3
  14   4  -2 24.8408 27.1775   1
 -14   4   2 17.3267 3.54518   2
  14   4  -2 20.2951 3.67246   5
  12  -4  -2 355.327 67.2954   1
 -12  -4   2 416.088 29.3331   3
  12  -4  -2 402.128 30.3246   5
  12  -4  -2 376.391 30.1898   2
 -12  -4   2 391.082 28.6482   4
  12   4  -2 434.194 29.1496   2
  12   4  -2 443.806 47.4576   1
 -12   4   2 285.668 64.0269   1
 -12   4   2 377.881 28.9278   3
 -12   4   2 412.027 29.5505   2
 -12   4   2 422.770 29.5688   5
  12   4  -2 380.394 29.0019   5
 -10  -4   2 864.223 61.2482   3
  10  -4  -2 812.862 61.9970   2
  10  -4  -2 871.842 62.1346   5
  10  -4  -2 839.803 89.2449   1
 -10  -4   2 822.231 60.7133   4
  10   4  -2 868.013 61.0255   5
 -10   4   2 842.799 61.5140   5
 -10   4   2 809.358 61.4658   2
 -10   4   2 1062.38 106.447   1
  10   4  -2 898.775 71.5362   1
  10   4  -2 856.495 61.0296   2
  10   4  -2 892.812 74.1785   1
   8  -4  -2 645.829 46.5622   2
   8  -4  -2 648.085 70.0472   1
  -8  -4   2 625.715 45.4846   4
  -8  -4   2 650.521 45.9005   3
   8  -4  -2 646.424 46.6097   5
  -8   4   2 609.439 46.1579   2
   8   4  -2 618.089 45.7085   2
  -8   4   2 726.511 84.8033   1
   8   4  -2 655.937 58.1697   1
  -8   4   2 634.795 46.2438   5
   8   4  -2 664.070 45.7180   5
   6  -4  -2 15.4243 2.78232   5
   6  -4  -2 24.2840 3.50133   2
  -6  -4   2 18.7492 9.97560   1
  -6  -4   2 16.8708 2.32777   3
  -6  -4   2 17.5739 2.38675   5
  -6  -4   2 16.0840 2.00865   4
   6  -4  -2 13.3316 18.5747   1
  -6  -4   2 15.7393 1.98339   5
   6   4  -2 13.5664 2.22546   2
   6   4  -2 12.8664 2.13549   5
  -6   4   2 20.8542 3.21596   2
   6   4  -2 27.3269 13.5870   1
  -6   4   2 22.0728 3.30336   5
  -6   4   2 10.9335 34.1813   1
   4  -4  -2 752.108 48.9480   5
  -4  -4   2 707.924 48.7045   3
   4  -4  -2 748.824 66.9368   1
  -4  -4   2 667.082 48.4429   4
   4  -4  -2 665.251 48.8098   2
  -4  -4   2 704.238 57.2836   1
  -4  -4   2 684.383 48.8011   5
  -4   4   2 677.682 48.9887   5
   4   4  -2 641.521 48.5117   5
   4   4  -2 649.907 48.5463   2
  -4   4   2 715.085 68.0323   1
   4   4  -2 680.578 59.4858   1
  -4   4   2 643.430 48.8585   2
  -2  -4   2 758.970 54.2292   4
   2  -4  -2 755.081 54.3947   4
  -2  -4   2 812.658 54.4223   3
   2  -4  -2 799.213 68.0170   1
  -2  -4   2 752.214 54.7294   5
   2  -4  -2 807.094 54.3051   5
  -2  -4   2 718.164 62.8058   1
  -2   4   2 725.220 54.5387   5
   2   4  -2 857.584 66.8538   1
   2   4  -2 727.421 54.2738   2
  -2   4   2 851.354 69.8781   1
  -2   4   2 723.126 54.4483   2
   2   4  -2 720.415 54.2228   5
   0  -4  -2 3015.49 226.486   5
   0  -4   2 3033.78 227.403   2
   0  -4   2 3139.16 227.376   5
   0  -4  -2 3210.07 226.499   5
   0  -4   2 3589.04 226.995   3
   0  -4  -2 3176.62 226.832   4
   0  -4  -2 3359.76 226.718   3
   0  -4  -2 3159.71 235.427   1
   0   4  -2 3184.12 226.800   2
   0   4  -2 3436.82 239.477   1
   0   4   2 2928.15 226.772   2
   0   4   2 3345.85 236.609   1
   0   4  -2 3297.75 226.784   5
  -2  -4  -2 390.663 26.9351   3
   2  -4   2 375.289 40.1332   1
   2  -4   2 397.669 28.0159   5
  -2  -4  -2 330.886 31.9653   1
  -2  -4  -2 379.480 27.0411   4
   2  -4   2 372.903 28.0968   2
  -2   4  -2 415.718 27.1106   5
  -2   4  -2 402.518 41.2428   1
  -2   4  -2 391.512 27.1085   2
   2   4   2 321.556 26.8697   2
   2   4   2 361.192 32.5673   1
  -4  -4  -2 64.8258 4.89113   3
   4  -4   2 54.3914 6.94848   2
   4  -4   2 65.3574 6.91322   5
  -4  -4  -2 57.9248 4.95792   4
   4  -4   2 35.1574 15.0672   1
  -4   4  -2 63.8758 5.17176   5
  -4   4  -2 64.0656 5.20400   2
  -4   4  -2 43.0858 16.7357   1
   4   4   2 52.7758 4.75373   5
   6  -4   2 366.158 29.8037   2
   6  -4   2 401.904 29.7733   5
   6  -4   2 520.923 71.0826   1
  -6  -4  -2 433.978 28.5291   3
  -6   4  -2 385.519 28.6242   2
  -6   4  -2 364.528 28.5983   5
  -6   4  -2 405.703 47.9063   1
   8  -4   2 2280.62 175.074   1
   8  -4   2 1943.22 141.829   5
  -8  -4  -2 1980.95 140.673   4
   8  -4   2 1877.51 141.887   2
  -8  -4  -2 1827.68 140.712   3
  -8   4  -2 2175.24 140.984   5
  -8   4  -2 1955.64 140.864   2
  10  -4   2 900.045 68.2108   2
 -10  -4  -2 1043.29 66.9119   4
 -10  -4  -2 1001.50 67.0873   3
  10  -4   2 951.985 68.1741   5
  10  -4   2 772.308 96.3163   1
 -10   4  -2 877.949 67.0287   2
 -12  -4  -2 663.353 42.1285   4
  12  -4   2 561.925 43.3877   5
  12  -4   2 502.283 104.437   1
  12  -4   2 550.983 43.4869   2
 -12  -4  -2 607.336 42.3596   3
 -12   4  -2 574.545 42.3815   5
 -12   4  -2 557.560 42.3056   2
  14  -4   2 212.475 18.0554   2
 -14  -4  -2 235.832 16.6484   3
  14  -4   2 209.126 17.8128   5
 -14   4  -2 195.912 16.4778   5
 -14   4  -2 206.680 16.5514   2
  14   4   2 216.356 16.3112   2
  16  -4   2 15.6793 4.56319   5
  16  -4   2 14.9332 4.96479   2
 -16  -4  -2 18.8055 3.38847   3
 -16  -4  -2 19.0936 3.26508   4
  16   4   2 15.3648 4.50240   2
 -16   4  -2 21.2160 3.93325   5
 -16   4  -2 19.6619 4.20493   3
 -16   4  -2 18.5029 4.14774   2
  18  -4   2 102.455 11.1555   5
  18  -4   2 94.6047 10.6915   2
 -18  -4  -2 83.9055 8.39247   4
 -18  -4  -2 96.9141 8.88282   3
 -18   4  -2 99.7726 9.25819   3
 -18   4  -2 102.819 9.27344   5
  18   4   2 88.3685 9.61700   2
 -18   4  -2 93.9153 9.85098   2
 -20  -4  -2 103.087 10.1769   4
  20  -4   2 113.396 13.0857   5
 -20  -4  -2 126.014 10.6848   3
  20  -4   2 125.392 12.9102   2
 -20   4  -2 129.568 10.9189   3
 -20   4  -2 93.4237 12.1673   2
  20   4   2 105.785 11.0868   2
 -20   4  -2 124.365 10.7825   5
  22  -4   2 24.9672 6.86863   2
  22  -4   2 31.9197 7.90104   5
 -22  -4  -2 32.8475 5.51779   3
 -22   4  -2 17.2975 4.91803   5
  22   4   2 30.8216 6.50373   2
 -22   4  -2 20.2826 4.30686   3
  24  -4   2 17.4956 7.79979   5
  24  -4   2 20.1662 6.96510   2
 -24  -4  -2 19.6553 4.98513   3
 -24   4  -2 7.60923 5.40649   5
 -24   4  -2 25.1871 5.88716   3
 -26  -4  -2 25.3116 5.48389   3
  26  -4   2 7.74297 9.06414   5
  26  -4   2 12.3829 6.62543   2
 -26   4  -2 13.1237 4.93379   3
 -28  -4  -2 42.2977 6.62383   3
  28  -4   2 20.7675 8.05658   2
 -28   4  -2 23.5320 5.65746   3
  30  -4   2 67.7934 11.2315   2
 -30  -4  -2 59.7747 8.49195   3
 -30   4  -2 57.5387 8.51440   3
 -29  -5   2 88.4780 10.0505   3
  29  -5  -2 89.4458 10.6854   2
  27  -5  -2 28.0540 7.53617   4
  27  -5  -2 21.7630 6.59705   2
 -27  -5   2 20.4345 5.77957   3
  25  -5  -2 28.0279 7.26828   2
 -25  -5   2 21.9107 5.85999   3
  25  -5  -2 18.7597 6.95917   5
  25   5  -2 20.4717 6.43161   2
 -25   5   2 28.0949 6.12406   5
 -25   5   2 19.6125 5.55160   3
  23  -5  -2 50.3175 8.47453   2
 -23  -5   2 50.9331 7.40175   3
  23  -5  -2 54.6111 8.99049   5
 -23   5   2 44.0225 7.60843   5
 -23   5   2 58.2553 7.18838   3
 -23   5   2 36.3306 8.12598   2
  23   5  -2 33.7587 6.90069   2
  21  -5  -2 10.1224 5.38743   2
 -21  -5   2 14.4338 4.74448   3
  21  -5  -2 7.80927 5.02098   5
 -21   5   2 10.4336 5.21175   2
 -21   5   2 5.61046 3.93112   3
  21   5  -2 12.5264 4.96671   2
 -21   5   2 12.3091 4.36349   5
  19  -5  -2 2.80903 4.52226   2
  19  -5  -2 5.59183 4.51051   5
 -19  -5   2 3.53400 3.52845   3
  19   5  -2 2.97184 3.97680   2
 -19   5   2 0.91329 4.07272   2
 -19   5   2 4.81750 3.44886   5
 -19   5   2 5.19646 3.22661   3
  17  -5  -2 27.9209 6.06500   2
 -17  -5   2 40.5977 5.83203   3
  17  -5  -2 25.7755 5.51460   5
 -17   5   2 34.3302 4.97875   3
  17   5  -2 37.9245 5.72051   2
 -17   5   2 31.4709 5.55545   5
 -17   5   2 37.6676 5.93900   2
 -15  -5   2 451.579 32.0022   3
  15  -5  -2 430.828 32.9959   2
  15  -5  -2 440.152 32.9497   5
 -15   5   2 390.497 31.8372   2
 -15   5   2 467.621 32.0429   5
  15   5  -2 432.526 31.4983   2
 -15   5   2 387.931 31.2015   3
  13  -5  -2 159.962 14.6384   5
 -13  -5   2 169.285 12.8437   4
 -13  -5   2 177.039 13.6747   3
  13  -5  -2 153.196 14.6955   2
  13  -5  -2 111.283 50.3303   1
  13   5  -2 171.416 13.4618   5
  13   5  -2 189.153 13.3995   2
 -13   5   2 164.685 13.8134   2
 -13   5   2 133.633 59.1346   1
 -13   5   2 174.342 13.8424   5
 -11  -5   2 1959.43 134.182   4
  11  -5  -2 1991.34 135.799   5
  11  -5  -2 1870.42 135.624   2
 -11  -5   2 2012.25 134.891   3
  11  -5  -2 1780.88 170.710   1
 -11   5   2 1561.89 169.985   1
  11   5  -2 2019.17 146.629   1
  11   5  -2 1787.58 134.437   5
  11   5  -2 1966.62 134.544   2
 -11   5   2 1955.03 135.136   5
 -11   5   2 1852.75 135.056   2
   9  -5  -2 1786.79 124.150   5
  -9  -5   2 1695.51 122.864   4
   9  -5  -2 1651.04 123.940   2
  -9  -5   2 1729.02 123.356   3
  -9   5   2 1785.93 123.769   5
   9   5  -2 1822.86 136.110   1
  -9   5   2 1692.46 123.649   2
   9   5  -2 1759.22 123.111   5
   9   5  -2 1757.59 123.132   2
  -7  -5   2 1728.96 131.766   1
   7  -5  -2 1809.82 123.751   5
   7  -5  -2 1662.90 123.554   2
   7  -5  -2 1585.81 147.243   1
  -7  -5   2 1766.11 122.830   4
  -7  -5   2 1841.54 123.228   3
   7   5  -2 1817.21 123.026   2
   7   5  -2 1948.30 137.536   1
  -7   5   2 1587.95 123.390   2
  -7   5   2 1730.52 123.587   5
   7   5  -2 1762.80 122.980   5
  -7   5   2 1572.59 150.704   1
  -5  -5   2 1956.30 143.124   5
   5  -5  -2 2103.52 143.891   5
   5  -5  -2 2032.48 143.750   4
   5  -5  -2 1860.17 163.458   1
  -5  -5   2 2057.42 143.635   3
   5  -5  -2 1890.19 143.700   2
  -5  -5   2 2158.95 153.637   1
  -5  -5   2 2044.69 143.346   4
  -5  -5   2 2075.96 143.058   5
   5   5  -2 2032.68 143.487   2
   5   5  -2 2092.79 143.469   5
  -5   5   2 1983.47 168.018   1
   5   5  -2 2179.15 158.282   1
  -5   5   2 2032.79 143.998   5
  -5   5   2 1965.31 143.847   2
  -3  -5   2 574.190 39.5155   4
   3  -5  -2 488.404 39.5177   2
  -3  -5   2 567.517 39.7177   3
   3  -5  -2 553.988 39.7608   4
   3  -5  -2 556.954 39.6276   5
  -3  -5   2 562.226 51.6264   1
   3  -5  -2 508.964 56.8709   1
  -3  -5   2 562.676 39.7707   5
   3   5  -2 580.434 56.0645   1
   3   5  -2 586.800 39.6208   2
  -3   5   2 579.700 61.9479   1
   3   5  -2 565.310 39.5380   5
  -3   5   2 535.036 39.9909   5
  -3   5   2 533.181 39.8618   2
  -1  -5   2 270.928 18.7130   3
   1  -5  -2 237.496 33.1596   1
   1  -5  -2 245.499 18.2030   5
  -1  -5   2 270.914 18.5674   4
  -1  -5   2 251.365 32.3538   1
  -1  -5   2 265.207 19.2287   5
   1  -5  -2 250.924 18.5932   4
  -1   5   2 239.213 18.8229   5
   1   5  -2 196.002 34.7854   1
  -1   5   2 242.133 18.7065   2
  -1   5   2 239.912 35.5832   1
   1   5  -2 265.656 18.5133   5
   1   5  -2 252.847 18.5272   2
   1  -5   2 795.316 59.2462   5
  -1  -5  -2 789.576 66.9407   1
   1  -5   2 745.568 72.0294   1
  -1  -5  -2 857.443 58.5541   4
   1  -5   2 815.787 59.2476   2
  -1  -5  -2 889.399 58.4418   3
  -1   5  -2 852.364 77.8638   1
   1   5   2 816.205 68.9021   1
  -1   5  -2 813.379 58.5156   2
  -1   5  -2 859.501 58.5220   5
   1   5   2 784.100 58.4570   2
  -3  -5  -2 34.5728 3.46306   4
  -3  -5  -2 48.2856 11.2210   1
   3  -5   2 33.6700 5.64383   2
  -3  -5  -2 27.8529 3.37647   3
   3  -5   2 30.1758 5.02580   5
   3  -5   2 22.9208 19.7190   1
  -3   5  -2 39.9438 21.3321   1
  -3   5  -2 34.3476 3.68756   2
   3   5   2 42.0608 11.2031   1
   3   5   2 35.0154 3.72887   2
  -3   5  -2 31.6509 3.67213   5
   5  -5   2 257.675 21.5237   2
   5  -5   2 273.314 21.4406   5
  -5  -5  -2 314.363 20.1119   4
  -5  -5  -2 279.555 19.9643   3
   5  -5   2 220.945 45.7495   1
  -5   5  -2 258.727 20.1653   5
  -5   5  -2 247.860 20.1076   2
  -5   5  -2 319.503 60.7912   1
   5   5   2 281.593 19.7723   2
   7  -5   2 587.133 75.2011   1
   7  -5   2 625.469 45.4566   2
   7  -5   2 623.099 45.3381   5
  -7  -5  -2 649.422 43.9551   3
  -7  -5  -2 672.960 43.9542   4
  -7   5  -2 570.201 44.0677   5
  -7   5  -2 513.767 68.0109   1
  -7   5  -2 587.990 44.0800   2
   9  -5   2 463.177 105.547   1
  -9  -5  -2 540.454 34.6056   4
   9  -5   2 443.376 36.0576   2
   9  -5   2 482.229 36.1230   5
  -9  -5  -2 486.121 34.6753   3
  -9   5  -2 458.839 77.6287   1
  -9   5  -2 457.174 34.7875   2
  -9   5  -2 461.707 34.8288   5
  11  -5   2 235.789 19.8499   5
  11  -5   2 227.982 20.0150   2
 -11  -5  -2 277.421 18.2109   4
 -11  -5  -2 245.587 18.4096   3
 -11   5  -2 223.915 18.4526   2
 -11   5  -2 237.235 18.5754   5
 -13  -5  -2 80.0744 7.06702   3
  13  -5   2 59.5996 8.88101   2
  13  -5   2 61.4519 93.2924   1
 -13  -5  -2 86.4587 6.71589   4
  13  -5   2 70.5096 8.80376   5
 -13   5  -2 60.2277 7.07392   5
 -13   5  -2 41.0638 45.9514   1
 -13   5  -2 61.5753 7.07284   2
 -15  -5  -2 71.9406 7.17623   3
  15  -5   2 59.7700 8.79718   2
 -15  -5  -2 75.0772 6.75841   4
  15  -5   2 65.3033 8.97384   5
 -15   5  -2 65.7716 7.41649   5
 -15   5  -2 63.9650 7.33054   2
  17  -5   2 4.10613 4.55680   5
 -17  -5  -2 5.74140 2.97636   4
  17  -5   2 8.48766 4.99858   2
 -17  -5  -2 3.33867 3.11697   3
 -17   5  -2 9.38298 3.67243   5
 -17   5  -2 3.71955 2.58278   3
 -17   5  -2 9.13310 4.09296   2
  19  -5   2 63.2017 10.1904   2
 -19  -5  -2 72.5195 8.15246   3
  19  -5   2 59.5431 10.4164   5
 -19  -5  -2 69.4227 7.61407   4
 -19   5  -2 74.3825 9.15492   2
 -19   5  -2 77.2373 8.47090   5
 -19   5  -2 73.7921 8.13927   3
 -21  -5  -2 8.70530 4.26974   4
  21  -5   2 2.24872 5.80227   5
 -21  -5  -2 -1.2151 3.43471   3
  21  -5   2 3.17015 5.50384   2
 -21   5  -2 4.69872 3.73312   3
 -21   5  -2 1.93643 4.34001   5
 -21   5  -2 -0.3756 6.61926   2
 -23  -5  -2 5.76057 4.15837   3
  23  -5   2 2.34898 6.29654   2
  23  -5   2 10.5376 7.06545   5
 -23   5  -2 2.42253 3.59503   3
 -23   5  -2 -0.8994 4.60754   5
 -25  -5  -2 38.5791 6.77849   3
  25  -5   2 25.2805 9.13238   5
  25  -5   2 29.9813 7.86977   2
 -25   5  -2 38.2137 5.88851   3
  27  -5   2 40.4644 8.71234   2
 -27  -5  -2 53.9605 7.67412   3
 -27   5  -2 40.3702 7.07894   3
 -29  -5  -2 31.2420 6.65529   3
  29  -5   2 21.5575 7.63170   2
 -29   5  -2 35.2278 6.62558   3
  28  -6  -2 24.4211 6.45454   2
 -28  -6   2 27.3620 6.86033   3
  26  -6  -2 17.5220 6.36061   2
  26  -6  -2 10.0676 6.57700   4
 -26  -6   2 21.9978 5.75308   3
  24  -6  -2 58.7478 9.03860   2
  24  -6  -2 47.0954 8.90381   5
 -24  -6   2 69.5008 8.75337   3
  24  -6  -2 54.6265 8.10301   4
 -24   6   2 61.0635 9.24714   5
 -24   6   2 51.5773 10.1315   2
  22  -6  -2 95.4760 11.6746   5
 -22  -6   2 105.853 10.1886   3
  22  -6  -2 87.7570 11.1093   2
  22   6  -2 63.0432 10.3549   2
 -22   6   2 86.6887 9.06610   3
 -22   6   2 68.0040 10.6187   2
 -22   6   2 75.0827 9.80152   5
  20  -6  -2 460.538 34.8813   5
 -20  -6   2 421.733 33.8308   3
  20  -6  -2 473.000 34.9249   2
 -20   6   2 459.991 33.8036   5
  20   6  -2 427.662 33.1641   2
 -20   6   2 476.513 34.1346   2
 -20   6   2 399.599 32.7938   3
  18  -6  -2 489.813 35.0340   2
  18  -6  -2 482.353 34.9026   5
 -18  -6   2 442.087 33.8068   3
 -18   6   2 418.126 32.8479   3
 -18   6   2 439.603 33.6543   5
  18   6  -2 384.782 32.9154   2
 -18   6   2 479.619 33.9764   2
  16  -6  -2 1103.66 74.7017   2
 -16  -6   2 948.000 73.4370   3
  16  -6  -2 1083.04 74.5797   5
 -16   6   2 1106.63 73.6533   5
 -16   6   2 964.926 72.7143   3
  16   6  -2 886.633 72.7228   2
 -16   6   2 1038.02 73.6402   2
  14  -6  -2 723.314 53.8016   2
  14  -6  -2 797.851 53.9632   5
 -14  -6   2 705.619 52.7616   3
 -14   6   2 716.622 52.9162   2
  14   6  -2 639.683 52.1108   2
 -14   6   2 814.210 53.1427   5
 -14   6   2 686.414 52.0816   3
  12  -6  -2 841.915 60.3906   2
 -12  -6   2 780.210 59.3969   3
  12  -6  -2 895.453 60.5850   5
  12   6  -2 702.824 58.9066   2
 -12   6   2 855.369 59.8101   5
 -12   6   2 879.134 59.8648   2
  10  -6  -2 734.321 113.293   1
  10  -6  -2 730.225 50.7717   2
 -10  -6   2 659.122 49.3096   4
 -10  -6   2 723.940 50.0255   3
  10  -6  -2 757.004 50.9218   5
 -10   6   2 747.348 50.4401   2
  10   6  -2 604.223 49.5552   5
 -10   6   2 732.701 50.4647   5
  10   6  -2 614.426 49.5410   2
  10   6  -2 636.078 65.7378   1
 -10   6   2 784.468 179.500   1
  -8  -6   2 302.126 21.8954   3
   8  -6  -2 349.003 22.7392   5
   8  -6  -2 309.179 22.5085   2
  -8  -6   2 220.793 33.7505   1
  -8  -6   2 275.937 21.3481   4
   8  -6  -2 253.936 59.1676   1
   8   6  -2 304.662 46.9474   1
   8   6  -2 275.567 21.6043   2
  -8   6   2 323.444 69.9996   1
  -8   6   2 319.659 22.3662   2
   8   6  -2 252.390 21.5330   5
  -8   6   2 313.406 22.4700   5
   6  -6  -2 207.385 14.7904   5
  -6  -6   2 191.206 14.3752   3
   6  -6  -2 208.432 47.7481   1
   6  -6  -2 185.908 14.7900   2
   6  -6  -2 197.844 14.6037   4
  -6  -6   2 163.742 29.1972   1
  -6  -6   2 186.648 13.9932   4
  -6   6   2 190.524 14.9682   5
   6   6  -2 194.125 42.1519   1
  -6   6   2 164.327 53.4988   1
  -6   6   2 199.167 14.8719   2
   6   6  -2 183.594 14.2042   2
   6   6  -2 159.790 14.0714   5
  -4  -6   2 335.925 23.7288   4
   4  -6  -2 319.224 51.9615   1
   4  -6  -2 301.545 23.8964   2
  -4  -6   2 344.992 24.0344   3
   4  -6  -2 319.313 24.0657   4
   4  -6  -2 335.190 23.9235   5
  -4  -6   2 352.215 41.2498   1
  -4  -6   2 322.322 23.2395   5
   4   6  -2 318.075 49.8731   1
  -4   6   2 328.891 59.8102   1
   4   6  -2 313.078 23.7848   5
  -4   6   2 337.945 24.3552   2
  -4   6   2 319.585 24.4681   5
   4   6  -2 326.901 23.8372   2
  -2  -6   2 227.312 16.2480   4
   2  -6  -2 200.310 15.8736   5
  -2  -6   2 239.702 35.4499   1
   2  -6  -2 173.636 34.7826   1
   2  -6  -2 225.082 16.4066   4
  -2  -6   2 226.718 16.4376   3
  -2  -6   2 233.553 16.3910   5
   2   6  -2 227.517 16.2899   2
   2   6  -2 225.465 16.2604   5
   2   6  -2 213.991 44.9188   1
  -2   6   2 192.470 16.7146   5
  -2   6   2 228.473 46.3257   1
  -2   6   2 203.737 16.5481   2
   0  -6  -2 10.9932 17.3098   1
   0  -6  -2 19.6966 2.90917   4
   0  -6   2 22.6333 21.5617   1
   0  -6   2 23.2701 3.89995   5
   0  -6   2 17.2393 3.05730   4
   0  -6   2 26.2009 5.05283   2
   0   6  -2 17.7779 2.84557   5
   0   6   2 15.4276 3.26788   2
   0   6   2 22.8350 22.0119   1
   0   6  -2 18.5142 24.8771   1
   0   6  -2 21.2851 3.04244   2
   0   6   2 22.9425 3.69671   5
  -2  -6  -2 409.160 27.9303   3
  -2  -6  -2 342.329 39.3058   1
   2  -6   2 393.683 28.9284   5
   2  -6   2 392.102 29.0783   2
  -2  -6  -2 396.448 28.0133   4
   2  -6   2 345.235 51.0411   1
  -2   6  -2 319.849 55.9958   1
  -2   6  -2 388.680 28.0775   5
  -2   6  -2 402.025 28.1398   2
   2   6   2 376.957 41.2433   1
   2   6   2 367.354 27.9600   2
  -4  -6  -2 1093.24 77.2632   3
   4  -6   2 1085.34 78.4281   2
   4  -6   2 1063.26 102.560   1
  -4  -6  -2 1116.31 77.3538   4
   4  -6   2 1121.90 78.5092   5
   4   6   2 996.760 77.1422   2
  -4   6  -2 1128.02 77.5318   2
  -4   6  -2 1129.31 77.5598   5
  -4   6  -2 1003.96 108.296   1
  -6  -6  -2 777.085 60.3608   4
   6  -6   2 861.837 97.8033   1
   6  -6   2 871.597 61.9241   2
  -6  -6  -2 817.756 60.3707   3
   6  -6   2 921.563 61.9939   5
  -6   6  -2 951.492 60.7976   2
  -6   6  -2 923.638 60.7934   5
  -6   6  -2 711.111 95.1447   1
   6   6   2 724.469 60.0554   2
   8  -6   2 564.626 42.9281   2
   8  -6   2 590.465 42.8534   5
  -8  -6  -2 486.129 41.0226   4
  -8  -6  -2 511.296 41.1530   3
   8  -6   2 760.145 130.290   1
  -8   6  -2 617.139 41.5894   2
  -8   6  -2 602.182 103.440   1
  -8   6  -2 640.925 41.7023   5
  10  -6   2 819.012 130.724   1
  10  -6   2 923.213 67.2300   2
  10  -6   2 1007.04 67.2602   5
 -10  -6  -2 845.774 65.2877   4
 -10  -6  -2 866.066 65.5403   3
 -10   6  -2 957.564 65.8740   2
 -10   6  -2 960.494 145.169   1
  12  -6   2 1463.49 102.075   2
 -12  -6  -2 1247.59 99.9899   4
 -12  -6  -2 1346.66 100.438   3
  12  -6   2 1524.97 101.987   5
 -12   6  -2 1300.26 100.599   5
 -12   6  -2 1580.66 100.839   2
  14  -6   2 513.765 36.6461   5
 -14  -6  -2 441.425 34.9539   3
 -14  -6  -2 402.146 34.3351   4
  14  -6   2 505.865 36.7855   2
 -14   6  -2 481.220 35.1739   2
 -14   6  -2 501.647 35.2975   5
 -16  -6  -2 458.359 38.1527   4
  16  -6   2 537.272 40.3845   5
 -16  -6  -2 498.403 38.9030   3
  16  -6   2 559.605 40.7025   2
 -16   6  -2 538.950 39.1014   2
 -16   6  -2 563.605 39.1908   5
  18  -6   2 234.468 19.4111   5
 -18  -6  -2 192.769 17.2761   3
 -18  -6  -2 181.753 16.4910   4
  18  -6   2 218.326 19.3496   2
 -18   6  -2 209.694 17.4785   5
 -18   6  -2 229.652 17.3885   3
 -18   6  -2 215.729 17.7946   2
  20  -6   2 154.161 15.2587   2
  20  -6   2 138.870 15.3414   5
 -20  -6  -2 168.106 13.6735   3
 -20  -6  -2 131.857 12.7396   4
 -20   6  -2 147.201 13.4734   5
 -20   6  -2 150.942 13.1558   3
 -20   6  -2 136.136 14.1471   2
  22  -6   2 -0.4748 6.54033   5
 -22  -6  -2 10.1491 5.09031   3
  22  -6   2 11.4051 6.25091   2
 -22   6  -2 -0.0307 8.07690   2
 -22   6  -2 1.16714 4.93960   5
 -22   6  -2 3.50716 4.34940   3
  24  -6   2 6.65639 6.92124   2
  24  -6   2 14.0178 7.34730   5
 -24  -6  -2 4.80160 5.00117   3
 -24   6  -2 -0.5721 5.84984   5
 -24   6  -2 6.31479 5.64950   3
 -26  -6  -2 20.3368 6.08328   3
  26  -6   2 7.88314 6.99457   2
 -26   6  -2 12.0065 4.86909   3
  28  -6   2 13.0705 6.89834   2
 -28  -6  -2 21.0044 6.23448   3
 -28   6  -2 8.24292 6.30734   3
  27  -7  -2 -0.2376 6.40205   2
 -27  -7   2 -2.9788 4.81174   3
  25  -7  -2 27.0372 6.53374   4
 -25  -7   2 28.0794 6.47397   3
  25  -7  -2 20.1552 7.25542   2
 -23  -7   2 46.4827 7.76649   3
  23  -7  -2 48.0551 7.87445   4
  23  -7  -2 59.6138 9.63016   2
  23  -7  -2 62.4250 9.39346   5
 -23   7   2 57.3672 9.27244   5
 -23   7   2 40.1353 8.81744   2
  21  -7  -2 21.9462 5.91142   4
 -21  -7   2 28.3216 6.71110   3
  21  -7  -2 22.9988 7.31790   5
  21  -7  -2 38.3376 7.64812   2
 -21   7   2 45.6829 10.8604   3
 -21   7   2 30.1628 6.41200   5
 -21   7   2 23.6590 6.91766   2
 -19  -7   2 42.1036 6.98883   3
  19  -7  -2 52.5819 8.85116   2
  19  -7  -2 32.6583 7.34636   5
 -19   7   2 47.1399 7.23200   2
  19   7  -2 24.8100 6.34818   2
 -19   7   2 29.7571 5.89237   3
 -19   7   2 40.6938 6.61206   5
  17  -7  -2 107.566 11.9939   5
  17  -7  -2 101.790 12.4756   2
 -17  -7   2 101.083 10.6370   3
 -17   7   2 96.0573 10.1907   3
  17   7  -2 81.0603 10.1573   2
 -17   7   2 122.675 10.8943   2
 -17   7   2 110.913 10.8754   5
 -15  -7   2 154.021 14.2875   3
  15  -7  -2 183.401 16.1357   2
  15  -7  -2 175.035 15.6206   5
 -15   7   2 168.804 14.5938   5
  15   7  -2 149.588 13.8547   2
 -15   7   2 160.354 13.6996   3
 -15   7   2 185.240 14.7848   2
  13  -7  -2 418.757 30.7416   5
  13  -7  -2 388.214 30.5917   2
 -13  -7   2 390.193 29.7501   3
  13   7  -2 359.853 29.1434   2
 -13   7   2 397.753 30.0118   2
 -13   7   2 411.762 30.0959   5
  11  -7  -2 420.174 31.0594   4
  11  -7  -2 427.113 31.5083   5
 -11  -7   2 419.114 29.9364   4
 -11  -7   2 418.780 30.7573   3
  11  -7  -2 386.651 31.3729   2
 -11   7   2 396.881 31.0712   5
  11   7  -2 406.837 30.3322   2
 -11   7   2 418.490 31.1275   2
  -9  -7   2 142.098 11.8917   4
   9  -7  -2 163.596 12.9097   4
   9  -7  -2 166.314 13.2637   5
  -9  -7   2 156.313 12.5780   3
   9  -7  -2 143.902 13.4450   2
  -9   7   2 164.601 13.3534   5
   9   7  -2 138.560 12.6331   5
  -9   7   2 160.125 13.0678   2
   9   7  -2 153.419 12.3356   2
  -7  -7   2 58.5341 23.9928   1
   7  -7  -2 67.6813 7.92342   2
  -7  -7   2 72.2459 6.22181   4
   7  -7  -2 71.8416 7.02662   5
  -7  -7   2 72.3234 6.59118   3
   7  -7  -2 68.2952 6.86533   4
   7   7  -2 64.0010 6.83311   5
  -7   7   2 63.5731 7.56977   5
  -7   7   2 66.8303 7.28055   2
   7   7  -2 72.3197 6.61058   2
   7   7  -2 81.2297 40.3656   1
   5  -7  -2 27.0171 4.91798   2
   5  -7  -2 21.6733 3.46760   5
  -5  -7   2 23.5360 3.61007   3
  -5  -7   2 31.5897 27.9165   1
   5  -7  -2 22.5776 3.79113   4
  -5  -7   2 19.0394 3.37219   4
   5   7  -2 8.19162 39.0659   1
   5   7  -2 24.1920 3.64946   2
  -5   7   2 29.2600 4.78744   2
   5   7  -2 26.8983 3.81802   5
  -5   7   2 20.1870 4.31263   5
   3  -7  -2 267.316 18.4724   4
  -3  -7   2 234.734 48.9049   1
  -3  -7   2 253.730 18.1057   4
  -3  -7   2 229.847 18.2848   3
   3  -7  -2 248.452 17.7854   5
   3   7  -2 234.019 18.2106   2
  -3   7   2 242.574 19.0472   5
   3   7  -2 176.389 50.7990   1
  -3   7   2 256.005 18.8031   2
  -3   7   2 191.226 54.1153   1
   3   7  -2 221.014 18.1839   5
  -1  -7   2 255.368 18.9803   5
   1  -7  -2 264.166 19.2289   4
  -1  -7   2 279.439 19.1981   4
   1  -7  -2 206.296 41.3979   1
   1   7  -2 252.404 58.6732   1
  -1   7   2 246.628 19.8037   5
   1   7  -2 250.221 19.1608   2
  -1   7   2 259.061 19.5240   2
   1   7  -2 250.909 19.2129   5
  -1   7   2 204.545 48.3982   1
   1  -7   2 49.0573 5.50549   5
   1  -7   2 2.85356 33.2046   1
  -1  -7  -2 33.6484 24.9962   1
   1  -7   2 43.6608 8.56978   2
   1  -7   2 43.9786 4.83810   4
  -1  -7  -2 42.9656 4.55799   4
  -1   7  -2 44.9958 4.99203   5
   1   7   2 35.6604 5.34177   2
   1   7   2 24.1057 28.2917   1
  -1   7  -2 45.4865 46.7364   1
   1   7   2 38.8142 5.62250   5
  -1   7  -2 43.4296 4.82337   2
  -3  -7  -2 18.4939 21.3404   1
   3  -7   2 58.5658 8.01953   2
  -3  -7  -2 53.3097 5.42140   3
   3  -7   2 58.5267 6.87107   5
   3  -7   2 -17.476 38.1579   1
  -3  -7  -2 53.5082 5.35106   4
  -3   7  -2 43.1545 53.7226   1
   3   7   2 39.6078 7.10669   5
  -3   7  -2 61.4456 5.77340   2
  -3   7  -2 59.2412 5.96292   5
   3   7   2 62.2855 6.25664   2
  -5  -7  -2 32.6233 4.11830   4
   5  -7   2 27.2256 6.13618   2
   5  -7   2 36.6910 6.04261   5
  -5  -7  -2 36.7109 4.32198   3
  -5   7  -2 32.9210 4.71559   5
   5   7   2 31.0443 4.44494   2
  -5   7  -2 34.2004 4.43467   2
  -7  -7  -2 338.776 24.7715   3
   7  -7   2 306.243 26.3360   2
  -7  -7  -2 362.238 24.7579   4
   7  -7   2 322.328 26.2075   5
   7   7   2 334.434 24.5263   2
  -7   7  -2 328.582 25.1032   5
  -7   7  -2 336.460 25.0474   2
   9  -7   2 113.658 12.5267   2
  -9  -7  -2 121.477 10.1656   3
   9  -7   2 124.452 12.3245   5
  -9  -7  -2 128.834 9.90017   4
  -9   7  -2 104.039 10.2585   2
  11  -7   2 580.503 45.5195   2
  11  -7   2 630.342 45.5242   5
 -11  -7  -2 616.303 43.5631   4
 -11  -7  -2 597.337 43.8936   3
 -11   7  -2 597.263 44.2299   5
 -11   7  -2 582.540 44.1103   2
 -13  -7  -2 154.416 11.3195   4
  13  -7   2 117.146 13.6007   5
 -13  -7  -2 136.511 11.8513   3
  13  -7   2 117.398 14.2632   2
 -13   7  -2 121.234 11.9462   5
 -13   7  -2 131.859 11.9973   2
  15  -7   2 81.4887 11.2576   5
  15  -7   2 83.2521 11.8176   2
 -15  -7  -2 87.6914 9.54138   3
 -15  -7  -2 79.5666 8.38729   4
 -15   7  -2 97.4240 9.81944   5
 -15   7  -2 93.4738 9.48750   2
 -17  -7  -2 22.3974 4.64681   4
  17  -7   2 14.4343 6.25444   5
 -17  -7  -2 19.5231 5.17814   3
  17  -7   2 5.06028 6.23563   2
 -17   7  -2 15.4256 5.38839   2
 -17   7  -2 6.14047 4.47166   5
  19  -7   2 7.00196 6.54670   2
 -19  -7  -2 18.7642 5.08393   4
 -19  -7  -2 16.7557 5.69627   3
  19  -7   2 7.94685 6.15883   5
 -19   7  -2 5.31124 5.02952   5
 -19   7  -2 4.33896 5.49381   2
 -19   7  -2 11.0728 5.21450   3
 -21  -7  -2 101.453 10.5716   3
 -21  -7  -2 65.5269 10.5429   4
  21  -7   2 99.6406 12.9158   5
  21  -7   2 98.2424 12.5601   2
 -21   7  -2 81.4347 12.0247   2
 -21   7  -2 95.6186 9.82390   3
 -21   7  -2 85.4892 10.6851   5
 -23  -7  -2 62.0175 8.45638   3
  23  -7   2 37.1086 8.75075   5
  23  -7   2 59.4913 9.65029   2
 -23   7  -2 50.0483 7.74041   3
  25  -7   2 4.43679 7.00705   2
 -25  -7  -2 14.4287 6.36643   3
 -25   7  -2 7.87312 6.18151   3
 -27  -7  -2 3.51565 5.92332   3
  27  -7   2 -0.3352 6.73971   2
 -26  -8   2 40.1245 7.47455   3
 -24  -8   2 10.4314 5.48401   3
  24  -8  -2 8.86579 5.76607   4
  24  -8  -2 27.4175 8.47265   2
 -24   8   2 14.3122 9.00766   2
  22  -8  -2 13.2328 5.43815   4
  22  -8  -2 17.9313 7.93167   2
  22  -8  -2 3.04510 9.86145   5
 -22  -8   2 11.0065 5.49588   3
 -22   8   2 0.60795 6.06739   5
 -22   8   2 3.97011 6.57611   2
  20  -8  -2 14.5050 5.77161   4
  20  -8  -2 5.98516 7.63854   2
 -20  -8   2 16.5079 5.57749   3
 -20   8   2 6.57858 5.19287   5
 -20   8   2 5.76578 5.81282   2
  18  -8  -2 4.97772 6.32332   5
 -18  -8   2 -6.1100 3.80794   3
  18  -8  -2 3.76531 7.21876   2
  18  -8  -2 -0.9374 4.59695   4
 -18   8   2 -1.3511 4.97599   2
 -18   8   2 2.10396 4.70288   5
 -18   8   2 13.4548 11.0757   3
  16  -8  -2 92.9246 11.5465   5
  16  -8  -2 91.2261 10.3560   4
  16  -8  -2 85.3169 12.6042   2
 -16  -8   2 93.4302 10.0558   3
 -16   8   2 89.0342 10.2371   5
 -16   8   2 94.8812 10.4634   2
  16   8  -2 79.4559 10.2446   2
 -16   8   2 86.0744 9.90650   3
  14  -8  -2 552.606 40.9285   4
  14  -8  -2 494.541 41.2207   2
  14  -8  -2 550.113 41.3437   5
 -14  -8   2 553.912 40.6060   3
 -14   8   2 543.922 40.7789   2
  14   8  -2 549.312 39.7706   2
 -14   8   2 548.534 40.8405   5
  12  -8  -2 638.475 46.9864   5
  12  -8  -2 650.943 46.8129   4
  12  -8  -2 609.274 46.9241   2
 -12  -8   2 616.998 46.3836   3
 -12   8   2 606.322 46.7147   5
  12   8  -2 618.564 45.8068   2
 -12   8   2 667.743 46.8729   2
 -10  -8   2 1029.19 77.1637   3
  10  -8  -2 1126.92 77.6414   4
  10  -8  -2 916.135 77.1687   2
 -10  -8   2 1105.04 76.4317   4
  10  -8  -2 1110.59 77.5576   5
  10   8  -2 1076.50 76.8288   2
 -10   8   2 1139.13 77.8007   2
 -10   8   2 1077.24 77.7605   5
   8  -8  -2 2325.52 162.651   4
  -8  -8   2 2368.06 161.785   4
  -8  -8   2 2175.73 162.293   3
   8  -8  -2 2256.28 162.302   5
   8   8  -2 2373.31 162.161   2
  -8   8   2 2260.50 162.915   5
  -8   8   2 2244.46 162.788   2
  -6  -8   2 541.454 35.7320   4
   6  -8  -2 500.074 36.2782   4
   6  -8  -2 470.101 35.6995   5
  -6  -8   2 472.482 36.0558   3
  -6   8   2 470.619 36.8318   5
   6   8  -2 528.417 36.0604   2
  -6   8   2 458.860 36.4991   2
   6   8  -2 476.453 36.1288   5
   4  -8  -2 371.865 28.6005   5
   4  -8  -2 404.507 29.5183   4
  -4  -8   2 420.889 29.1223   4
  -4  -8   2 410.602 29.5040   3
   4   8  -2 386.322 29.5306   5
  -4   8   2 398.494 29.9113   2
  -4   8   2 370.642 30.1478   5
   4   8  -2 406.302 29.3934   2
   2  -8  -2 47.8558 5.45136   4
  -2  -8   2 53.2514 5.43421   4
  -2   8   2 49.5636 7.84059   5
   2   8  -2 51.2675 6.32389   5
  -2   8   2 48.0484 6.44283   2
   2   8  -2 48.9348 5.81254   2
   0  -8   2 36.8771 4.79476   5
   0  -8   2 35.7327 4.82811   4
   0  -8  -2 44.7760 4.85976   4
   0   8  -2 35.2024 5.56050   5
   0   8   2 41.8162 6.08706   2
   0   8  -2 39.1830 5.14320   2
   0   8   2 43.8497 6.47160   5
   2  -8   2 22.5923 3.93297   4
   2  -8   2 24.6081 4.47244   5
  -2  -8  -2 30.1683 4.15150   4
  -2   8  -2 22.9995 4.14210   2
  -2   8  -2 26.9218 4.61377   5
   2   8   2 31.0662 6.04069   5
   2   8   2 31.5542 4.98588   2
   4  -8   2 41.6613 6.87129   5
  -4  -8  -2 48.2098 5.26231   3
   4  -8   2 50.3178 5.64601   4
  -4   8  -2 33.7812 5.75653   5
  -4   8  -2 36.0697 5.41175   2
   4   8   2 49.4609 6.35475   2
   6  -8   2 216.337 19.5524   2
  -6  -8  -2 231.446 17.7398   3
   6  -8   2 228.512 19.1531   5
  -6   8  -2 219.512 18.0280   2
  -6   8  -2 217.418 18.2243   5
   6   8   2 260.563 17.9855   2
   8  -8   2 1041.18 79.0717   2
  -8  -8  -2 1078.23 77.8989   3
  -8  -8  -2 1170.66 77.8243   4
   8  -8   2 1104.03 79.2775   5
   8   8   2 1109.77 77.3589   2
  -8   8  -2 1011.72 78.1603   2
 -10  -8  -2 891.233 62.0128   4
 -10  -8  -2 816.745 62.2375   3
  10  -8   2 900.257 63.9386   5
  10  -8   2 816.323 63.7074   2
 -10   8  -2 917.948 62.7992   2
 -10   8  -2 827.089 62.7083   5
 -12  -8  -2 123.531 11.5015   3
  12  -8   2 128.440 13.8722   5
  12  -8   2 111.480 14.3434   2
 -12  -8  -2 130.021 10.7238   4
 -12   8  -2 115.588 11.7793   5
 -12   8  -2 125.332 11.6253   2
  14  -8   2 219.560 19.8623   5
 -14  -8  -2 221.470 17.0948   4
  14  -8   2 230.040 20.4287   2
 -14  -8  -2 207.729 17.9636   3
 -14   8  -2 215.340 18.1263   2
 -14   8  -2 205.594 18.1803   5
  16  -8   2 153.606 15.5710   2
 -16  -8  -2 102.747 11.4194   4
  16  -8   2 140.273 14.7658   5
 -16  -8  -2 117.308 12.4546   3
 -16   8  -2 133.988 12.8609   2
 -16   8  -2 128.106 12.7853   5
  18  -8   2 31.9502 8.24024   5
  18  -8   2 38.4173 8.91455   2
 -18   8  -2 27.1355 6.70554   2
 -18   8  -2 26.1801 5.38884   3
 -18   8  -2 34.6974 7.01822   5
  20  -8   2 21.4859 8.38422   2
 -20  -8  -2 25.4661 6.35134   3
  20  -8   2 6.15577 6.90993   5
 -20   8  -2 6.66807 5.84120   5
 -20   8  -2 8.83152 6.79008   2
 -20   8  -2 7.79140 5.38257   3
 -22  -8  -2 12.5703 5.50080   3
  22  -8   2 9.29490 7.93849   2
 -22   8  -2 0.23679 6.24330   3
 -22   8  -2 -0.4736 8.65257   2
 -24  -8  -2 11.9167 5.95806   3
  24  -8   2 18.5824 8.36511   2
 -24   8  -2 9.95904 5.85877   3
 -26  -8  -2 20.2068 6.36619   3
  26  -8   2 14.5386 12.5011   2
  26  -8   2 6.84611 5.61265   4
 -25  -9   2 16.9492 6.28730   3
  23  -9  -2 30.2068 7.11059   4
 -23  -9   2 38.3378 7.22696   3
 -23   9   2 18.4632 8.53808   2
  21  -9  -2 103.752 17.0125   2
 -21  -9   2 97.6197 11.1577   3
  21  -9  -2 90.5016 11.0371   4
 -21   9   2 94.0102 12.1358   2
  19  -9  -2 185.047 19.8279   2
  19  -9  -2 203.596 17.9266   5
  19  -9  -2 171.096 16.0429   4
 -19  -9   2 160.623 16.0339   3
 -19   9   2 161.524 16.4827   5
 -19   9   2 185.182 16.6150   2
  17  -9  -2 198.732 18.0446   4
 -17  -9   2 178.747 17.6373   3
  17  -9  -2 187.489 21.1060   2
  17  -9  -2 208.345 19.2453   5
 -17   9   2 212.380 18.2963   5
 -17   9   2 238.160 18.3603   2
 -15  -9   2 330.203 29.0974   3
  15  -9  -2 378.546 31.2044   2
  15  -9  -2 371.587 29.6089   4
  15  -9  -2 404.280 30.1667   5
 -15   9   2 400.453 29.7395   2
 -15   9   2 370.658 29.7507   5
  13  -9  -2 151.987 13.5631   4
  13  -9  -2 141.437 14.0709   5
 -13  -9   2 130.158 12.7712   3
 -13   9   2 142.690 14.3257   5
  13   9  -2 120.230 12.8759   2
 -13   9   2 154.287 13.8016   2
  11  -9  -2 82.5461 9.37513   4
  11  -9  -2 84.2268 9.98481   5
 -11  -9   2 80.5549 8.88463   3
  11   9  -2 66.4954 9.20473   2
 -11   9   2 90.6986 9.99318   2
 -11   9   2 86.3765 10.6261   5
   9  -9  -2 22.6048 4.97302   5
  -9  -9   2 17.3336 4.29588   3
  -9  -9   2 32.8804 4.70077   4
   9  -9  -2 23.6736 4.80021   4
  -9   9   2 30.3167 6.75227   5
  -9   9   2 29.2249 6.11672   2
   9   9  -2 26.0263 5.41553   2
   7  -9  -2 50.0774 6.61841   5
   7  -9  -2 54.5103 6.83895   4
  -7  -9   2 52.4934 6.61605   3
  -7  -9   2 52.9324 6.47508   4
  -7   9   2 56.6073 7.85990   2
  -7   9   2 65.9692 8.99524   5
   7   9  -2 47.8825 7.27535   2
   5  -9  -2 12.2452 2.89265   5
  -5  -9   2 19.8537 3.92123   4
   5  -9  -2 12.9626 3.48428   4
  -5   9   2 10.8668 4.59982   2
   5   9  -2 13.8929 6.79048   5
   5   9  -2 16.2073 4.38885   2
  -5   9   2 11.7239 6.13297   5
   3  -9  -2 95.0778 8.83533   4
  -3  -9   2 97.5796 8.70566   4
  -3   9   2 79.7786 11.6738   5
  -3   9   2 98.1783 10.1056   2
   3   9  -2 96.7670 9.18587   2
   3   9  -2 78.3732 10.6940   5
   1  -9  -2 45.7538 5.88410   4
  -1  -9   2 48.8333 6.00684   4
   1   9  -2 51.4203 8.07392   5
   1   9  -2 50.4979 6.37089   2
  -1   9   2 43.8456 7.36834   2
  -1   9   2 35.4554 7.96822   5
  -1  -9  -2 99.3592 9.17503   4
   1  -9   2 99.8546 9.29751   4
   1   9   2 96.0191 10.3552   2
  -1   9  -2 115.943 9.83351   2
   1   9   2 70.2276 12.9069   5
  -1   9  -2 105.901 10.6874   5
   3  -9   2 146.887 13.1646   5
  -3  -9  -2 158.806 13.0530   4
   3  -9   2 159.795 13.3895   4
  -3   9  -2 169.592 13.7081   2
  -3   9  -2 156.723 14.0506   5
   3   9   2 154.884 13.9799   2
  -5  -9  -2 246.447 21.0330   3
   5  -9   2 273.779 21.4920   4
   5  -9   2 289.329 21.7978   5
  -5  -9  -2 245.251 20.8904   4
  -5   9  -2 320.377 21.8393   2
   5   9   2 252.175 21.3659   2
  -5   9  -2 291.554 22.1257   5
  -7  -9  -2 109.131 10.0400   4
   7  -9   2 111.675 11.9899   5
  -7  -9  -2 101.295 10.2293   3
   7  -9   2 116.517 10.8402   4
  -7   9  -2 121.217 11.0118   2
   7   9   2 106.653 11.3619   2
  -9  -9  -2 188.115 16.8859   4
  -9  -9  -2 199.928 17.3544   3
   9  -9   2 214.730 17.8691   4
   9  -9   2 238.852 19.3140   5
  -9   9  -2 238.927 18.1789   2
  -9   9  -2 220.616 18.5643   5
  11  -9   2 361.429 30.3666   2
 -11  -9  -2 336.094 27.9970   3
 -11  -9  -2 321.834 27.4068   4
  11  -9   2 413.122 29.9408   5
 -11   9  -2 389.693 28.6131   2
 -11   9  -2 386.530 28.9028   5
  13  -9   2 125.287 13.8168   5
 -13  -9  -2 96.9666 10.6340   4
  13  -9   2 106.783 16.4381   2
 -13  -9  -2 112.935 11.5168   3
 -13   9  -2 126.148 11.6728   2
 -13   9  -2 96.5239 11.8090   5
  15  -9   2 51.6421 11.5083   2
 -15  -9  -2 49.0021 7.88141   3
  15  -9   2 58.2756 9.75483   5
 -15  -9  -2 38.4097 6.65632   4
 -15   9  -2 56.6843 9.65188   5
 -15   9  -2 54.1597 8.39788   2
 -17  -9  -2 101.895 12.5663   4
  17  -9   2 132.355 15.4765   5
 -17  -9  -2 118.155 12.8943   3
  17  -9   2 121.444 17.0505   2
 -17   9  -2 126.346 12.2377   3
 -17   9  -2 154.438 13.5656   2
 -17   9  -2 132.071 13.5668   5
 -19  -9  -2 97.6711 11.2826   3
  19  -9   2 80.4964 13.3588   2
  19  -9   2 77.9909 13.6248   5
 -19   9  -2 90.9303 11.5508   2
 -19   9  -2 88.4619 10.4772   3
 -19   9  -2 92.3575 12.0251   5
  21  -9   2 18.8885 6.51789   4
  21  -9   2 27.8308 10.0647   2
 -21  -9  -2 29.1968 7.58594   3
 -21   9  -2 40.6215 8.16864   3
 -21   9  -2 33.5803 8.67513   2
  23  -9   2 2.75254 5.67836   4
 -23  -9  -2 2.59479 6.35642   3
  23  -9   2 4.76408 9.26911   2
 -23   9  -2 -6.6123 7.73354   3
 -22 -10   2 10.0286 6.68102   3
  22 -10  -2 6.24330 5.95279   4
 -22  10   2 -1.1999 9.66492   2
 -20 -10   2 6.42033 6.11584   3
  20 -10  -2 -0.1742 5.42354   4
 -20  10   2 17.3274 6.99860   2
  18 -10  -2 11.7734 5.40999   4
 -18 -10   2 13.1375 6.42681   3
 -18  10   2 2.40234 5.87138   2
  16 -10  -2 4.73935 8.12303   5
 -16 -10   2 8.35397 5.72799   3
  16 -10  -2 14.7136 6.17160   4
 -16  10   2 0.79828 6.73053   5
 -16  10   2 14.6819 6.12558   2
  14 -10  -2 175.242 15.0350   4
  14 -10  -2 149.478 15.9810   5
 -14 -10   2 149.626 14.6160   3
 -14  10   2 145.181 16.0002   5
 -14  10   2 165.373 15.4970   2
 -12 -10   2 190.451 17.7800   3
  12 -10  -2 225.134 18.3029   4
  12 -10  -2 192.543 18.1949   5
 -12  10   2 247.010 19.0578   2
 -12  10   2 212.389 19.5746   5
  12  10  -2 206.037 17.9651   2
 -10 -10   2 47.1502 7.74950   3
  10 -10  -2 67.5833 8.23682   4
  10 -10  -2 56.7695 8.82110   5
 -10  10   2 64.1424 9.42658   2
  10  10  -2 56.6549 9.17568   2
 -10  10   2 68.5760 10.0777   5
  -8 -10   2 136.816 12.1835   4
   8 -10  -2 156.502 13.0435   4
  -8  10   2 154.458 14.1957   2
   8  10  -2 124.922 13.0374   2
  -8  10   2 128.235 15.4897   5
  -6 -10   2 25.0597 4.94421   4
   6 -10  -2 28.2867 5.38410   4
   6  10  -2 20.2526 5.49839   2
  -6  10   2 15.6291 7.76830   5
  -6  10   2 13.9329 5.86635   2
   4 -10  -2 207.667 16.5639   4
  -4 -10   2 201.681 16.1662   4
  -4  10   2 215.045 17.8527   2
  -4  10   2 183.879 19.5036   5
   4  10  -2 182.094 16.7940   2
   2 -10  -2 81.3538 8.38773   4
  -2 -10   2 72.9232 8.11852   4
  -2  10   2 77.1974 10.1365   2
   2  10  -2 81.8301 11.3554   5
   2  10  -2 81.7566 9.20825   2
  -2  10   2 78.2864 12.0890   5
   0 -10  -2 25.6937 4.63556   4
   0 -10   2 34.4310 5.84251   4
   0  10  -2 23.9076 7.11701   5
   0  10  -2 46.9035 7.15865   2
   0  10   2 25.5523 6.58124   2
   2 -10   2 19.0781 4.29842   4
  -2 -10  -2 14.6491 4.21508   4
   2  10   2 19.7941 6.44566   2
  -2  10  -2 15.3989 7.15799   5
  -2  10  -2 23.8690 5.52386   2
   4 -10   2 39.2768 6.27105   4
  -4 -10  -2 33.8590 5.78365   4
   4  10   2 44.0077 7.52286   2
  -4  10  -2 46.7749 7.55416   2
   6 -10   2 34.0670 6.75954   5
  -6 -10  -2 53.6003 6.73579   4
   6 -10   2 46.0479 7.02865   4
   6  10   2 56.6741 8.06857   2
  -6  10  -2 49.9819 7.48069   2
  -6  10  -2 38.8565 8.03416   5
  -8 -10  -2 44.1611 6.77632   3
   8 -10   2 23.9765 6.86814   5
  -8 -10  -2 50.4811 6.66426   4
   8 -10   2 49.0705 7.39454   4
  -8  10  -2 36.9677 6.93493   2
  -8  10  -2 38.8347 7.82622   5
 -10 -10  -2 84.1815 9.82987   3
  10 -10   2 91.2870 10.0562   4
 -10 -10  -2 82.2344 8.98335   4
  10 -10   2 66.6327 11.4675   5
 -10  10  -2 82.9896 11.6049   5
 -10  10  -2 88.7525 10.2358   2
 -12 -10  -2 70.0029 8.70931   4
  12 -10   2 52.6481 9.59318   5
 -12 -10  -2 61.9644 9.23256   3
  12 -10   2 65.8422 9.21802   4
 -12  10  -2 72.8989 9.27792   2
 -12  10  -2 63.1162 10.8933   5
 -14 -10  -2 21.2815 6.27005   3
 -14 -10  -2 14.7972 5.79136   4
  14 -10   2 20.9099 6.10031   4
  14 -10   2 12.5397 8.12273   5
 -14  10  -2 26.5302 6.69970   2
 -14  10  -2 24.1953 7.48906   5
  16 -10   2 9.46982 8.72933   5
  16 -10   2 8.09254 5.58789   4
 -16 -10  -2 11.4401 6.36197   3
 -16 -10  -2 15.7417 7.42838   4
 -16  10  -2 -0.1468 5.65814   2
 -16  10  -2 9.32220 6.89713   5
 -18 -10  -2 8.43842 7.17149   3
  18 -10   2 10.2479 5.96917   4
 -18  10  -2 8.56161 6.50302   2
 -18  10  -2 0.77335 5.87991   3
 -20 -10  -2 9.96918 6.92719   3
  20 -10   2 4.66950 5.59793   4
 -20  10  -2 7.49977 7.60886   3
 -20  10  -2 11.0262 7.67363   2
 -22 -10  -2 16.6514 7.40143   3
  22 -10   2 16.7972 6.74304   4
  19 -11  -2 21.3893 6.15799   4
 -19  11   2 16.2934 7.46815   2
  17 -11  -2 143.358 14.2109   4
 -17  11   2 151.740 14.9720   2
  15 -11  -2 165.291 15.0845   4
 -15  11   2 155.055 15.6511   2
  13 -11  -2 457.381 36.1910   4
 -13  11   2 488.219 36.8100   2
  11 -11  -2 299.684 23.8946   4
 -11  11   2 252.835 26.1583   5
 -11  11   2 322.693 24.8938   2
   9 -11  -2 521.625 39.2328   4
  -9  11   2 584.843 40.4721   2
   9  11  -2 518.233 39.1074   2
  -9  11   2 449.975 41.0465   5
  -7 -11   2 439.564 33.6257   4
   7 -11  -2 455.890 34.2661   4
  -7  11   2 483.500 35.5525   2
  -7  11   2 380.540 36.9685   5
   7  11  -2 483.923 34.6597   2
   5 -11  -2 177.079 15.8254   4
  -5 -11   2 195.630 15.6404   4
   5  11  -2 204.413 17.0515   2
  -5  11   2 149.470 21.6667   5
  -5  11   2 184.678 17.7022   2
  -3 -11   2 161.673 14.1219   4
   3 -11  -2 163.993 14.2424   4
   3  11  -2 161.468 15.4497   2
  -3  11   2 174.178 16.6119   2
   1 -11  -2 41.3849 6.62549   4
  -1 -11   2 41.5063 6.68577   4
  -1  11   2 41.7519 8.72758   2
   1  11  -2 54.0081 8.49804   2
  -1 -11  -2 22.1932 4.89463   4
   1 -11   2 21.1214 5.28591   4
  -1  11  -2 7.85598 11.8051   5
  -1  11  -2 19.4812 6.44229   2
   1  11   2 22.3123 7.25026   2
   3 -11   2 15.1247 5.03047   4
  -3 -11  -2 28.8877 5.29415   4
  -3  11  -2 6.42240 9.82237   5
  -3  11  -2 11.4201 5.41791   2
   3  11   2 20.7563 7.92644   2
  -5 -11  -2 261.160 19.0974   4
   5 -11   2 214.629 19.1124   4
  -5  11  -2 216.081 22.8854   5
   5  11   2 252.498 20.8561   2
  -5  11  -2 229.936 20.2729   2
  -7 -11  -2 446.238 31.4896   4
   7 -11   2 400.891 31.7725   4
  -7  11  -2 366.823 33.7755   5
  -7  11  -2 439.609 32.6196   2
  -9 -11  -2 343.507 25.8038   4
   9 -11   2 322.658 26.3933   4
  -9  11  -2 367.992 27.1331   2
  -9  11  -2 303.944 28.0979   5
  11 -11   2 255.383 20.0391   4
 -11 -11  -2 219.492 19.2562   4
 -11  11  -2 245.536 20.3268   2
 -11  11  -2 220.098 22.0443   5
  13 -11   2 179.584 16.0518   4
 -13  11  -2 165.653 16.2790   2
 -15 -11  -2 88.8655 12.3146   3
  15 -11   2 109.796 11.8400   4
 -15  11  -2 104.983 12.1800   2
 -17 -11  -2 23.7711 8.00627   3
  17 -11   2 47.2122 7.91846   4
 -17  11  -2 28.9427 9.04733   3
 -17  11  -2 47.8268 8.27256   2
 -19 -11  -2 2.68734 7.60677   3
  19 -11   2 7.49002 5.75908   4
 -19  11  -2 4.30034 7.76212   2
  16 -12  -2 72.6462 9.96933   4
 -16  12   2 67.0849 11.1731   2
  14 -12  -2 4.43583 5.74459   4
 -14  12   2 13.6838 7.16987   2
  12 -12  -2 14.5759 5.67761   4
 -12  12   2 11.0247 7.20663   2
  10 -12  -2 38.1361 6.87740   4
 -10  12   2 41.2239 8.93643   2
   8 -12  -2 19.5650 5.35464   4
   8  12  -2 36.7851 8.89226   2
  -8  12   2 19.2854 8.31560   2
   6 -12  -2 7.78454 4.80738   4
  -6  12   2 8.92096 7.79800   2
   6  12  -2 3.52579 7.18222   2
   4 -12  -2 -0.2008 4.20102   4
  -4 -12   2 5.02235 5.51917   4
  -4  12   2 -6.7794 7.46440   2
   4  12  -2 8.74517 6.95015   2
   2 -12  -2 40.6713 6.56486   4
  -2 -12   2 49.9715 8.10307   4
   2  12  -2 54.7349 9.20286   2
  -2  12   2 53.2238 10.0906   2
   0 -12  -2 12.9901 4.71517   4
   0 -12   2 13.2156 5.09122   4
   0  12   2 15.4212 8.38512   2
   0  12  -2 18.5742 7.31320   2
  -2 -12  -2 49.4518 7.95512   4
   2 -12   2 60.0528 8.58700   4
  -2  12  -2 64.8343 10.5004   2
   2  12   2 61.2182 10.6486   2
  -4 -12  -2 42.9523 7.03966   4
   4 -12   2 56.3792 8.42139   4
   4  12   2 59.9080 10.9339   2
  -4  12  -2 61.7816 9.91572   2
   6 -12   2 27.1534 6.23570   4
  -6  12  -2 37.6104 8.01847   2
   8 -12   2 42.3062 7.18607   4
  -8 -12  -2 37.3911 6.81095   4
  -8  12  -2 35.5100 7.92841   2
  10 -12   2 40.7598 7.06333   4
 -10  12  -2 41.0620 7.85963   2
 -12 -12  -2 18.3270 12.4961   4
  12 -12   2 5.00612 5.11280   4
 -12  12  -2 9.41149 6.25226   2
  14 -12   2 10.7468 6.10765   4
 -14  12  -2 -0.0295 6.51876   2
  16 -12   2 5.71608 6.42902   4
 -16  12  -2 9.67097 7.64171   2
  13 -13  -2 21.7870 10.6419   4
  11 -13  -2 -2.2485 5.08621   4
 -11  13   2 7.81469 8.14173   2
   9 -13  -2 2.55698 4.57520   4
  -9  13   2 -4.7662 8.17011   2
   7 -13  -2 19.8022 5.39507   4
  -7  13   2 13.8167 8.78640   2
   5 -13  -2 2.52209 4.73511   4
   5  13  -2 7.01040 9.37374   2
  -5  13   2 8.96765 9.33305   2
   3 -13  -2 5.19197 5.11436   4
  -3  13   2 1.00208 9.54267   2
   3  13  -2 5.76236 8.71049   2
   1 -13  -2 6.39373 4.59631   4
  -1 -13   2 -4.4014 5.90457   4
   1  13  -2 13.5543 8.68872   2
  -1  13   2 11.9740 10.0626   2
   1 -13   2 16.0533 6.07768   4
  -1 -13  -2 15.9061 5.41270   4
   1  13   2 5.93916 11.0393   2
  -1  13  -2 26.2167 8.41840   2
   3 -13   2 7.62579 5.63318   4
  -3 -13  -2 11.9114 5.32413   4
  -3  13  -2 10.4206 7.66016   2
  -5 -13  -2 26.6791 6.47031   4
   5 -13   2 15.5264 5.88835   4
  -5  13  -2 20.9381 8.16574   2
   7 -13   2 -0.4164 5.45949   4
  -7 -13  -2 -3.1119 6.65038   4
  -7  13  -2 -3.5874 7.03340   2
   9 -13   2 6.77667 6.00899   4
  -9  13  -2 3.72199 6.98207   2
  11 -13   2 -3.6637 5.95552   4
 -11  13  -2 -5.4038 7.30879   2
  32   0  -3 41.3553 7.24535   2
 -30   0   3 27.2213 5.93884   3
  30   0  -3 40.0329 7.05117   2
  28   0  -3 10.9856 5.19763   2
 -28   0   3 16.8513 4.81396   3
  26   0  -3 17.8660 7.33424   5
  26   0  -3 21.6791 5.68522   2
 -26   0   3 22.5787 4.71328   3
  24   0  -3 65.5077 8.19187   2
  24   0  -3 52.5405 8.67648   5
 -24   0   3 44.2204 6.48576   3
  22   0  -3 419.587 29.4163   2
  22   0  -3 352.871 28.9956   5
 -22   0   3 346.552 27.3864   5
 -22   0   3 379.879 27.9647   3
  20   0  -3 167.341 14.4771   5
 -20   0   3 155.109 13.0621   3
 -20   0   3 149.719 12.8617   5
  20   0  -3 184.437 14.7208   2
 -18   0   3 168.612 15.1955   3
  18   0  -3 212.614 16.7135   2
 -18   0   3 184.574 15.1887   5
  18   0  -3 234.622 16.7422   5
  16   0  -3 219.464 17.8916   5
 -16   0   3 232.424 16.9950   5
  16   0  -3 296.693 62.6566   1
  16   0  -3 234.751 18.1401   2
 -16   0   3 208.415 16.8560   3
 -16   0   3 213.631 17.2997   2
  14   0  -3 300.379 60.4037   1
  14   0  -3 306.416 22.4512   2
 -14   0   3 302.320 21.6233   5
 -14   0   3 292.219 21.4526   3
 -14   0   3 263.514 21.6751   2
  14   0  -3 283.588 22.2644   5
  14   0  -3 309.967 51.6716   1
 -12   0   3 123.126 9.86930   3
  12   0  -3 135.649 10.8133   2
 -12   0   3 122.645 10.3574   2
  12   0  -3 127.470 10.6881   5
  12   0  -3 144.105 31.2687   1
 -12   0   3 130.752 10.1619   5
  12   0  -3 111.103 31.7830   1
  10   0  -3 42.5195 16.9322   1
  10   0  -3 40.5801 4.68520   2
  10   0  -3 39.7921 20.3149   1
 -10   0   3 46.3222 4.24959   5
 -10   0   3 39.9581 3.79051   3
 -10   0   3 39.5201 4.58745   2
  10   0  -3 40.6477 4.54302   5
   8   0  -3 14.5389 2.46584   5
  -8   0   3 12.0228 1.78650   3
   8   0  -3 1.85472 11.5084   1
  -8   0   3 14.3799 2.72500   2
   8   0  -3 17.0365 10.4114   1
   8   0  -3 12.4181 2.39773   2
  -8   0   3 14.4872 2.37989   5
   6   0  -3 10.9098 9.79068   1
  -6   0   3 11.9227 2.31760   2
   6   0  -3 6.95311 1.65683   2
   6   0  -3 7.05725 6.87706   1
   6   0  -3 8.36016 1.51038   5
  -6   0   3 13.4279 2.01956   5
  -4   0   3 30.9140 3.57562   2
   4   0  -3 38.5691 9.85066   1
   4   0  -3 26.3888 8.60769   1
  -4   0   3 31.7633 3.20917   5
   4   0  -3 32.9952 3.04817   2
   4   0  -3 37.7745 3.09308   5
   2   0  -3 31.3610 2.61175   5
  -2   0   3 21.6800 6.68581   1
  -2   0   3 27.1968 3.71576   2
  -2   0   3 29.1206 2.79639   5
   2   0  -3 28.1840 7.78835   1
   0   0   3 59.4560 5.22426   5
   0   0  -3 70.9716 10.7065   1
   0   0   3 63.7973 11.2265   1
   0   0  -3 73.9508 5.11759   5
  -2   0  -3 248.781 23.2301   1
   2   0   3 239.391 18.0012   5
   2   0   3 268.428 24.5021   1
   4   0   3 228.268 17.9874   5
  -4   0  -3 271.135 17.7982   5
  -4   0  -3 251.198 23.9090   1
   4   0   3 235.879 18.1443   2
  -4   0  -3 243.204 18.0264   4
   4   0   3 273.551 25.3341   1
   6   0   3 206.704 23.3861   1
  -6   0  -3 201.971 21.4314   1
  -6   0  -3 196.349 14.6191   4
   6   0   3 190.889 14.6719   5
  -6   0  -3 208.968 14.3012   5
   6   0   3 189.647 14.8592   2
   8   0   3 142.446 22.9397   1
  -8   0  -3 162.863 11.1089   4
  -8   0  -3 153.892 10.6532   5
   8   0   3 139.370 11.2755   5
   8   0   3 144.345 11.4704   2
  -8   0  -3 133.952 10.9360   3
  -8   0  -3 109.321 19.6015   1
 -10   0  -3 187.528 14.3587   4
 -10   0  -3 176.829 14.3089   3
 -10   0  -3 196.468 13.9119   5
  10   0   3 194.609 14.8305   5
  10   0   3 207.862 31.3084   1
  10   0   3 191.929 15.0422   2
 -12   0  -3 184.493 13.6375   5
 -12   0  -3 213.080 14.3912   4
 -12   0  -3 129.332 28.6315   1
  12   0   3 201.099 36.9049   1
  12   0   3 194.164 15.1735   2
 -12   0  -3 172.604 14.1542   3
  12   0   3 182.206 14.9046   5
  14   0   3 131.269 11.3600   2
 -14   0  -3 107.495 9.83328   3
 -14   0  -3 113.865 9.12272   5
  14   0   3 132.843 11.3500   5
 -14   0  -3 133.793 10.0560   4
  16   0   3 142.308 12.5356   5
  16   0   3 152.736 12.4730   2
 -16   0  -3 110.629 9.62438   5
 -16   0  -3 145.081 11.0750   3
 -18   0  -3 83.5264 7.79737   3
  18   0   3 81.6077 9.49599   2
  18   0   3 71.4371 9.72091   5
  20   0   3 61.2845 9.25390   2
 -20   0  -3 70.4784 7.48408   3
 -22   0  -3 149.875 13.2844   3
  22   0   3 156.484 15.2591   2
 -24   0  -3 140.991 12.5898   3
  24   0   3 128.139 14.4267   2
  26   0   3 400.890 33.1024   2
 -26   0  -3 430.901 31.8188   3
  28   0   3 220.969 20.3859   2
  30   0   3 132.342 16.3128   2
 -30   0  -3 147.479 12.9008   3
 -32   0  -3 8.11799 7.13702   3
 -31  -1   3 17.3772 6.50523   3
  31  -1  -3 33.0018 6.77424   2
  31   1  -3 33.5745 6.95834   2
 -29  -1   3 29.4744 5.37737   3
  29  -1  -3 29.5545 6.63120   2
 -29   1   3 28.1928 5.74077   3
  29   1  -3 37.9845 6.88775   2
  27  -1  -3 31.4250 9.16228   5
 -27  -1   3 41.8527 5.96066   3
  27  -1  -3 41.1441 7.11669   2
 -27   1   3 32.3105 5.53687   3
  27   1  -3 45.3434 7.42192   2
  25  -1  -3 20.0759 5.70303   2
  25  -1  -3 22.0645 6.32499   5
  25   1  -3 22.6821 7.48776   5
 -25   1   3 36.8014 5.54060   3
  23  -1  -3 252.585 22.7698   5
  23  -1  -3 274.568 22.8364   2
 -23  -1   3 297.432 21.8998   3
 -23   1   3 274.477 21.4436   5
 -23   1   3 263.459 21.3821   3
  23   1  -3 331.055 23.4736   5
 -21  -1   3 1045.68 76.6298   3
  21  -1  -3 1103.19 77.6724   5
  21  -1  -3 945.680 77.4576   2
  21   1  -3 1128.25 77.5547   2
 -21   1   3 1060.14 76.4772   5
 -21   1   3 1071.96 76.4515   3
  21   1  -3 1118.22 77.5405   5
 -19  -1   3 101.008 8.69504   5
 -19  -1   3 108.997 9.31154   3
  19  -1  -3 113.727 10.8489   2
  19  -1  -3 106.368 10.6655   5
 -19   1   3 98.1361 8.97983   3
  19   1  -3 102.318 10.2854   5
 -19   1   3 111.759 9.30719   5
  19   1  -3 103.709 10.3200   2
  17  -1  -3 529.808 41.3229   2
 -17  -1   3 462.398 40.1668   3
 -17  -1   3 580.094 40.0540   5
  17  -1  -3 600.365 41.4998   5
  17   1  -3 527.500 41.0072   2
 -17   1   3 588.947 40.4034   5
 -17   1   3 579.866 40.2041   3
 -17   1   3 570.488 40.5903   2
 -15  -1   3 99.4106 10.2012   2
  15  -1  -3 124.141 10.2147   2
  15  -1  -3 97.6122 9.69785   5
  15  -1  -3 90.0805 40.3534   1
 -15  -1   3 101.441 8.46101   5
 -15  -1   3 93.0986 8.51117   3
  15   1  -3 101.099 9.40136   2
 -15   1   3 109.748 8.72917   5
  15   1  -3 98.8206 9.28027   5
 -15   1   3 98.4855 8.38653   3
  15   1  -3 111.262 38.0694   1
 -15   1   3 110.235 9.11443   2
  13  -1  -3 214.529 45.2768   1
  13  -1  -3 221.495 19.1847   5
 -13  -1   3 230.737 18.7475   2
  13  -1  -3 230.944 19.3676   2
 -13  -1   3 253.973 18.4884   5
 -13  -1   3 232.763 18.4126   3
 -13   1   3 283.040 18.7819   5
  13   1  -3 259.282 19.1075   2
  13   1  -3 253.006 18.9940   5
 -13   1   3 267.020 18.4173   3
  13   1  -3 208.965 41.9786   1
  13   1  -3 228.445 44.4764   1
 -13   1   3 265.941 18.8597   2
  11  -1  -3 59.1362 6.28872   2
 -11  -1   3 63.4499 5.13101   3
  11  -1  -3 56.6020 5.99438   5
 -11  -1   3 53.6420 5.80561   2
 -11  -1   3 69.5053 5.40145   5
  11  -1  -3 70.0085 24.4578   1
 -11   1   3 45.5779 4.90919   3
  11   1  -3 57.5541 20.2829   1
  11   1  -3 62.9949 5.80124   2
 -11   1   3 57.6019 5.70166   2
  11   1  -3 53.7771 5.49630   5
  11   1  -3 36.3931 18.8763   1
 -11   1   3 60.9191 5.51516   5
  -9  -1   3 289.625 21.4952   2
   9  -1  -3 315.952 21.7445   2
  -9  -1   3 293.148 21.2778   5
   9  -1  -3 316.431 21.7384   5
  -9  -1   3 280.400 21.0268   3
   9   1  -3 278.247 21.3363   2
   9   1  -3 275.251 21.2899   5
   9   1  -3 337.386 34.1195   1
  -9   1   3 264.764 20.9700   3
  -9   1   3 315.068 21.4778   5
   9   1  -3 301.408 36.3403   1
  -9   1   3 262.866 21.4091   2
  -7  -1   3 15.0480 2.27950   5
   7  -1  -3 21.4328 11.6954   1
  -7  -1   3 16.0103 2.72513   2
   7  -1  -3 16.8891 2.62870   2
   7  -1  -3 17.1613 2.48169   5
  -7  -1   3 13.6583 1.74080   3
   7   1  -3 12.1629 2.07853   5
   7   1  -3 13.3251 2.18553   2
   7   1  -3 19.1205 9.46362   1
   7   1  -3 9.23200 10.0356   1
  -7   1   3 14.3482 2.45310   5
  -7   1   3 18.6032 2.83876   2
  -5  -1   3 9.07488 2.12911   2
  -5  -1   3 6.24891 1.06815   3
  -5  -1   3 8.01984 1.71956   5
  -5  -1   3 3.15838 5.03214   1
   5  -1  -3 10.1595 1.68088   5
   5  -1  -3 11.3593 1.85711   2
   5  -1  -3 -0.5000 6.69514   1
  -5   1   3 6.47638 1.49954   5
   5   1  -3 7.94505 7.08344   1
   5   1  -3 4.70143 1.15630   5
  -5   1   3 7.61443 1.92531   2
   5   1  -3 10.9446 1.63014   2
  -3  -1   3 1456.42 103.673   1
  -3  -1   3 1406.28 96.6246   2
   3  -1  -3 1357.40 104.174   1
   3  -1  -3 1390.96 96.1852   5
  -3  -1   3 1340.87 96.3045   5
   3  -1  -3 1213.09 96.1474   2
  -3   1   3 1369.11 96.2886   5
   3   1  -3 1371.70 103.565   1
   3   1  -3 1403.89 96.1565   5
   3   1  -3 1462.59 96.1960   2
  -3   1   3 1230.08 96.3137   2
  -1  -1   3 1849.56 131.732   5
   1  -1  -3 1942.88 131.521   5
  -1  -1   3 1931.86 132.051   2
   1  -1  -3 1903.94 137.469   1
   1   1  -3 1764.62 131.570   2
   1   1  -3 2045.07 131.591   5
  -1   1   3 1757.38 132.216   2
  -1   1   3 1742.23 131.586   5
   1  -1   3 3106.03 229.559   2
   1  -1   3 3145.65 229.455   5
  -1  -1  -3 3401.48 234.043   1
   1   1   3 3103.12 229.235   5
   1   1   3 3548.43 235.343   1
   3  -1   3 6626.81 464.457   1
   3  -1   3 6582.29 456.944   2
  -3  -1  -3 5903.18 456.355   5
  -3  -1  -3 6106.85 456.501   4
  -3  -1  -3 7192.90 461.118   1
   3   1   3 6305.02 456.434   5
   3   1   3 7063.61 461.884   1
  -3   1  -3 5926.59 456.562   4
  -3   1  -3 6741.47 464.015   1
   5  -1   3 1135.57 83.6357   2
   5  -1   3 1183.77 83.4979   5
   5  -1   3 1275.83 93.5610   1
  -5  -1  -3 1246.70 87.8330   1
  -5  -1  -3 1154.19 83.1992   4
  -5  -1  -3 1121.61 83.2115   3
  -5   1  -3 1187.41 91.4867   1
  -5   1  -3 1183.74 83.1243   5
   5   1   3 1233.12 88.8590   1
  -5   1  -3 1060.48 83.1176   2
   5   1   3 1182.30 83.1100   5
  -5   1  -3 1193.60 83.3415   4
  -7  -1  -3 315.811 22.5632   4
   7  -1   3 308.634 23.2009   2
   7  -1   3 311.256 35.4726   1
  -7  -1  -3 316.578 28.4455   1
  -7  -1  -3 305.799 22.5994   3
   7  -1   3 307.025 22.9969   5
   7   1   3 331.514 22.7129   2
  -7   1  -3 303.720 22.7030   4
  -7   1  -3 313.385 22.4260   5
  -7   1  -3 313.658 32.3625   1
   7   1   3 322.430 22.5503   5
   7   1   3 331.656 30.1578   1
  -7   1  -3 283.905 22.4180   2
   9  -1   3 186.696 15.1763   2
  -9  -1  -3 178.134 22.7816   1
   9  -1   3 186.977 31.6315   1
   9  -1   3 182.080 14.8849   5
  -9  -1  -3 194.485 14.3540   3
  -9  -1  -3 215.611 14.3724   4
  -9   1  -3 209.235 14.5452   4
   9   1   3 186.414 14.4293   5
   9   1   3 191.393 14.6199   2
   9   1   3 226.958 25.4384   1
  -9   1  -3 170.632 14.1378   2
  -9   1  -3 170.040 26.0949   1
  11  -1   3 959.276 90.2696   1
 -11  -1  -3 1071.01 71.1155   4
  11  -1   3 1013.35 71.8969   2
 -11  -1  -3 1044.84 71.2056   3
  11  -1   3 993.070 71.7292   5
 -11  -1  -3 968.743 81.3859   1
 -11   1  -3 985.393 70.9008   5
 -11   1  -3 1074.65 71.2840   3
 -11   1  -3 880.247 85.4130   1
  11   1   3 1044.90 82.9340   1
  11   1   3 1023.01 71.4464   2
  11   1   3 1017.47 71.3337   5
 -11   1  -3 869.834 70.8164   2
  13  -1   3 80.9382 8.64881   5
  13  -1   3 54.5577 26.1319   1
  13  -1   3 85.5481 8.65815   2
 -13  -1  -3 94.6434 7.22805   4
 -13  -1  -3 80.1780 7.15906   3
  13   1   3 42.4662 21.3598   1
 -13   1  -3 70.5335 7.22281   2
  13   1   3 81.8223 8.09072   5
  13   1   3 87.4554 8.34629   2
 -13   1  -3 89.8941 6.89568   5
 -13   1  -3 85.6952 7.25574   3
 -13   1  -3 35.8537 21.3428   1
  15  -1   3 245.267 18.1644   2
  15  -1   3 234.057 18.0404   5
 -15  -1  -3 188.311 16.5312   3
 -15  -1  -3 195.175 16.5066   4
 -15   1  -3 226.065 16.8097   3
  15   1   3 234.416 17.6182   2
  15   1   3 179.249 17.3161   5
 -15   1  -3 244.154 16.3019   5
  17  -1   3 201.450 15.4846   2
 -17  -1  -3 171.960 13.9003   3
  17  -1   3 184.755 15.6098   5
 -17   1  -3 170.678 13.1624   5
  17   1   3 177.255 14.8355   2
  17   1   3 139.376 14.7911   5
  19  -1   3 91.1757 11.2520   5
  19  -1   3 103.267 10.9970   2
  19   1   3 109.876 11.8103   5
 -19   1  -3 101.283 9.20477   3
 -19   1  -3 88.0113 7.82882   5
  21  -1   3 57.4696 8.63459   2
 -21  -1  -3 48.7614 6.06865   3
  21  -1   3 28.8647 8.06093   5
 -21   1  -3 58.4518 6.52252   3
  21   1   3 32.7514 7.42395   2
 -23  -1  -3 24.2536 5.16800   3
  23  -1   3 37.1710 8.08407   2
  23  -1   3 26.3565 9.62973   5
 -23   1  -3 29.1168 5.18181   3
  23   1   3 30.1841 7.29942   2
 -25  -1  -3 262.808 21.3761   3
  25  -1   3 285.812 23.4263   2
  25  -1   3 230.691 29.0999   5
  25   1   3 258.778 22.7562   2
 -25   1  -3 293.132 21.6475   3
 -27  -1  -3 186.276 15.9029   3
  27  -1   3 210.702 18.3979   2
  27   1   3 172.806 17.8469   2
 -27   1  -3 187.293 15.9904   3
  29  -1   3 242.066 20.0378   2
 -29  -1  -3 192.078 17.2803   3
  29   1   3 186.755 19.8283   2
 -29   1  -3 221.417 17.4991   3
  31  -1   3 42.7251 9.97540   2
 -31  -1  -3 34.0897 6.45148   3
 -31   1  -3 40.5408 6.83465   3
  32  -2  -3 32.1860 6.78245   2
 -30  -2   3 51.3018 7.93616   3
  30  -2  -3 69.4909 9.00197   2
  30   2  -3 44.3624 7.72911   2
 -28  -2   3 77.2245 8.66698   3
  28  -2  -3 77.6691 9.41523   2
 -28   2   3 67.5476 8.95944   3
  28   2  -3 70.8857 9.44059   2
  26  -2  -3 73.7886 9.27875   2
  26  -2  -3 68.2170 10.4924   5
 -26  -2   3 63.6412 8.01222   3
 -26   2   3 58.9928 7.72724   3
  26   2  -3 62.1157 8.76279   2
  24  -2  -3 58.1363 8.48288   2
 -24  -2   3 44.8660 6.85160   3
  24  -2  -3 55.9521 9.08099   5
 -24   2   3 52.4569 6.26360   3
 -24   2   3 59.3695 7.40653   5
  24   2  -3 47.6748 7.70259   2
  22  -2  -3 117.815 12.1171   2
  22  -2  -3 109.694 12.0362   5
 -22  -2   3 125.551 10.8174   3
 -22   2   3 114.357 10.6897   5
 -22   2   3 124.288 10.4810   3
  22   2  -3 131.979 11.6542   2
  22   2  -3 107.801 12.3671   5
  20  -2  -3 380.890 26.8535   5
  20  -2  -3 352.395 26.6759   2
 -20  -2   3 340.965 25.4525   3
  20   2  -3 321.834 26.0127   5
 -20   2   3 342.705 25.3158   5
  20   2  -3 296.993 25.8031   2
 -20   2   3 327.730 25.6988   2
 -20   2   3 324.306 24.9238   3
  18  -2  -3 970.932 62.3281   5
  18  -2  -3 878.817 62.1479   2
 -18  -2   3 789.591 60.9148   3
 -18   2   3 788.465 60.8419   5
  18   2  -3 779.033 61.2213   5
 -18   2   3 825.201 61.0987   2
  18   2  -3 874.363 61.5067   2
 -18   2   3 870.239 60.6401   3
 -16  -2   3 544.749 40.8576   3
  16  -2  -3 580.606 42.0171   2
 -16  -2   3 553.086 40.1723   5
  16  -2  -3 594.960 41.9554   5
  16   2  -3 482.705 41.0036   5
 -16   2   3 567.693 41.0529   2
 -16   2   3 534.235 40.5138   3
 -16   2   3 616.553 41.0296   5
  16   2  -3 589.694 41.3610   2
  14  -2  -3 417.230 63.7329   1
 -14  -2   3 448.237 33.8801   3
  14  -2  -3 475.186 34.9496   2
  14  -2  -3 455.192 34.8146   5
 -14  -2   3 475.567 33.5485   5
 -14   2   3 451.267 34.0937   2
  14   2  -3 493.714 62.9071   1
 -14   2   3 457.065 33.6387   3
  14   2  -3 497.093 34.3343   2
 -14   2   3 478.659 65.6921   1
  14   2  -3 406.805 34.0122   5
 -14   2   3 528.891 34.2096   5
  12  -2  -3 226.975 18.4026   5
  12  -2  -3 218.230 45.3199   1
 -12  -2   3 227.833 17.5172   3
 -12  -2   3 238.898 17.4318   5
  12  -2  -3 223.525 18.4014   2
 -12   2   3 275.325 17.9949   5
 -12   2   3 233.220 46.4664   1
  12   2  -3 268.886 38.2324   1
 -12   2   3 237.172 17.9290   2
  12   2  -3 229.054 17.7892   2
  12   2  -3 218.878 39.8596   1
 -12   2   3 224.661 17.3224   3
  12   2  -3 232.564 17.7376   5
 -10  -2   3 339.722 22.3884   3
  10  -2  -3 315.417 23.1146   5
 -10  -2   3 327.207 22.4323   5
  10  -2  -3 281.529 43.1733   1
  10  -2  -3 323.344 23.1621   2
  10   2  -3 338.355 36.7877   1
  10   2  -3 312.597 39.0849   1
 -10   2   3 293.584 22.6351   5
 -10   2   3 272.322 22.1430   3
  10   2  -3 297.757 22.4239   5
 -10   2   3 399.345 62.7739   1
 -10   2   3 265.941 22.6264   2
   8  -2  -3 14.4121 2.86135   2
  -8  -2   3 15.1095 2.34500   5
   8  -2  -3 15.8368 15.8457   1
   8  -2  -3 18.7214 3.02069   5
  -8  -2   3 13.0866 1.95017   3
  -8   2   3 16.6769 2.73184   5
  -8   2   3 12.5482 2.16029   3
  -8   2   3 16.0290 2.91264   2
   8   2  -3 13.5521 2.12689   5
  -8   2   3 4.32817 14.4906   1
   8   2  -3 18.9598 12.0728   1
   8   2  -3 1.30573 10.3884   1
   8   2  -3 12.2122 2.09232   2
   6  -2  -3 19.3339 2.85881   2
  -6  -2   3 20.8209 2.62272   5
  -6  -2   3 19.5823 2.11516   3
   6  -2  -3 20.7974 2.71069   5
   6  -2  -3 15.3074 12.0283   1
   6   2  -3 19.4676 2.24399   5
  -6   2   3 19.5056 3.09889   2
   6   2  -3 17.0480 2.22021   2
  -6   2   3 20.6104 2.85346   5
   6   2  -3 26.1270 11.8290   1
  -6   2   3 39.8312 18.0825   1
   4  -2  -3 2065.64 146.823   4
   4  -2  -3 2127.46 158.883   1
  -4  -2   3 2203.66 147.109   5
   4  -2  -3 2152.56 146.979   5
  -4  -2   3 2200.65 146.833   3
   4  -2  -3 2007.82 146.935   2
   4   2  -3 2065.26 155.469   1
  -4   2   3 2060.73 157.930   1
  -4   2   3 2110.54 147.097   5
  -4   2   3 2001.59 147.121   2
   4   2  -3 1913.89 146.834   2
   4   2  -3 2087.42 146.839   5
  -2  -2   3 394.797 35.1625   1
   2  -2  -3 330.496 27.0419   4
  -2  -2   3 398.520 27.1423   3
  -2  -2   3 406.819 27.4522   5
  -2  -2   3 397.267 27.7705   2
   2  -2  -3 380.669 27.0864   5
   2  -2  -3 371.202 36.7929   1
   2   2  -3 386.009 27.1207   5
  -2   2   3 374.551 27.2687   5
   2   2  -3 383.703 27.1468   2
   2   2  -3 406.780 35.6871   1
  -2   2   3 342.726 27.3187   2
   0  -2   3 76.0490 5.71245   5
   0  -2  -3 67.2189 5.05789   4
   0  -2  -3 74.8799 11.2793   1
   0  -2  -3 82.8048 13.2066   1
   0  -2   3 49.6241 11.4610   1
   0  -2   3 66.8104 6.17484   2
   0   2  -3 58.0083 12.9605   1
   0   2   3 62.2042 5.14324   5
   0   2  -3 57.9754 5.07247   5
   0   2   3 63.3738 5.37738   2
  -2  -2  -3 479.850 37.7209   1
  -2  -2  -3 449.740 36.0736   1
  -2  -2  -3 438.565 32.2403   4
   2  -2   3 464.668 41.2995   1
  -2  -2  -3 480.718 31.9314   5
   2  -2   3 423.513 32.6391   5
   2  -2   3 438.909 32.9225   2
   2   2   3 436.616 32.1149   5
  -2   2  -3 453.339 40.7554   1
  -2   2  -3 470.842 32.3251   2
   4  -2   3 1793.60 122.412   2
   4  -2   3 1767.13 122.170   5
   4  -2   3 1639.75 131.924   1
  -4  -2  -3 1851.39 124.726   1
  -4  -2  -3 1685.89 121.599   3
  -4  -2  -3 1688.77 121.659   4
  -4   2  -3 1553.14 121.659   2
  -4   2  -3 1750.54 121.682   5
   4   2   3 1648.34 121.437   5
  -4   2  -3 1887.48 132.323   1
   6  -2   3 2841.11 204.411   2
  -6  -2  -3 2794.77 203.669   3
  -6  -2  -3 2888.68 203.665   4
   6  -2   3 2995.53 218.253   1
  -6  -2  -3 2911.75 206.110   1
   6  -2   3 2997.68 204.281   5
   6   2   3 2882.88 203.421   5
   6   2   3 3023.75 206.949   1
  -6   2  -3 2757.85 214.545   1
  -6   2  -3 2810.08 203.671   2
   8  -2   3 1743.66 124.216   5
   8  -2   3 1727.26 124.381   2
  -8  -2  -3 1650.35 126.831   1
  -8  -2  -3 1698.52 123.571   3
  -8  -2  -3 1687.75 123.470   4
   8  -2   3 1903.48 142.924   1
   8   2   3 1790.25 126.875   1
  -8   2  -3 1699.71 123.496   2
   8   2   3 1724.52 123.337   5
  -8   2  -3 1587.25 136.145   1
  -8   2  -3 2023.49 123.607   5
 -10  -2  -3 2925.63 193.880   3
  10  -2   3 2851.06 194.578   5
 -10  -2  -3 2560.94 197.626   1
  10  -2   3 2805.01 194.714   2
  10  -2   3 2683.46 215.042   1
 -10  -2  -3 2689.83 193.671   4
  10   2   3 2709.78 198.059   1
 -10   2  -3 2654.69 209.983   1
 -10   2  -3 2739.37 193.699   2
  10   2   3 2643.08 193.642   5
  10   2   3 2903.11 193.759   2
  12  -2   3 241.441 17.8055   5
  12  -2   3 229.325 17.8128   2
 -12  -2  -3 180.791 23.9669   1
 -12  -2  -3 217.294 16.4842   3
 -12  -2  -3 205.248 16.3108   4
  12  -2   3 278.133 53.1631   1
 -12   2  -3 261.604 16.5923   2
 -12   2  -3 177.643 38.7959   1
  12   2   3 172.213 25.9555   1
  12   2   3 240.617 16.9826   2
  12   2   3 186.127 16.6024   5
  14  -2   3 360.466 29.2319   5
 -14  -2  -3 415.926 28.0290   4
  14  -2   3 373.645 29.3469   2
 -14  -2  -3 426.411 28.3045   3
  14   2   3 374.939 28.4707   5
 -14   2  -3 353.203 28.2113   3
  14   2   3 415.400 28.6042   2
 -14   2  -3 328.826 27.9549   2
 -14   2  -3 391.808 28.0034   5
  16  -2   3 210.746 19.7268   5
 -16  -2  -3 272.592 18.6672   3
 -16  -2  -3 280.650 18.4766   4
  16  -2   3 228.477 19.8520   2
 -16   2  -3 202.559 18.5084   2
 -16   2  -3 236.839 18.2136   5
 -16   2  -3 239.952 18.6771   3
  16   2   3 267.496 19.2398   2
  16   2   3 229.363 19.1852   5
  18  -2   3 242.200 23.5102   5
 -18  -2  -3 318.145 22.5237   3
 -18  -2  -3 329.311 22.3393   4
  18  -2   3 259.858 23.6364   2
  18   2   3 311.279 23.1180   2
 -18   2  -3 291.314 22.5732   3
 -18   2  -3 298.697 22.0004   5
  20  -2   3 9.27034 6.20975   5
  20  -2   3 12.3647 5.47444   2
 -20  -2  -3 17.9549 4.04512   3
 -20   2  -3 13.0588 3.61788   3
 -20   2  -3 10.6797 3.28141   5
  20   2   3 16.6974 5.81085   2
  22  -2   3 116.193 15.4707   5
 -22  -2  -3 115.522 11.3714   3
  22  -2   3 138.177 13.9627   2
 -22   2  -3 143.434 11.9646   3
  22   2   3 123.972 13.0116   2
  24  -2   3 142.029 20.0185   5
 -24  -2  -3 193.351 15.6472   3
  24   2   3 183.621 17.3193   2
 -24   2  -3 209.740 16.0619   3
  26  -2   3 237.332 26.6073   5
  26  -2   3 284.055 23.3675   2
 -26  -2  -3 272.980 21.2013   3
  26   2   3 232.745 22.5222   2
 -26   2  -3 287.632 21.3446   3
  28  -2   3 297.887 23.8797   2
 -28  -2  -3 263.803 21.7174   3
 -28   2  -3 287.846 21.6829   3
  28   2   3 239.507 23.0446   2
  30  -2   3 99.7249 13.5800   2
 -30  -2  -3 110.663 10.7615   3
 -30   2  -3 91.6314 9.79899   3
  31  -3  -3 39.8414 6.90054   2
 -31  -3   3 21.3548 8.96083   3
  29  -3  -3 32.2037 6.39245   2
 -29  -3   3 40.2315 6.26031   3
  29   3  -3 47.6132 7.48420   2
 -27  -3   3 63.8406 8.25056   3
  27  -3  -3 67.8917 9.05689   2
  27  -3  -3 43.3570 9.49905   5
  27   3  -3 79.7429 9.23866   2
 -25  -3   3 44.1792 6.88861   3
  25  -3  -3 37.0034 7.28377   5
  25  -3  -3 51.0320 8.09764   2
  25   3  -3 50.0323 7.69813   2
 -25   3   3 32.7079 6.34842   5
 -25   3   3 45.2923 6.24696   3
  23  -3  -3 99.1810 10.7078   2
  23  -3  -3 91.1166 10.8115   5
 -23  -3   3 79.2823 9.17777   3
 -23   3   3 78.6592 8.73346   3
  23   3  -3 103.582 9.88037   2
 -23   3   3 89.5093 9.25051   5
  21  -3  -3 256.373 20.7377   2
  21  -3  -3 214.316 20.3678   5
 -21  -3   3 253.315 19.5728   3
 -21   3   3 249.415 20.0191   2
  21   3  -3 260.938 20.6259   5
 -21   3   3 244.104 18.7560   3
 -21   3   3 241.121 19.3083   5
  19  -3  -3 261.787 22.0189   2
 -19  -3   3 296.869 21.1182   3
  19  -3  -3 261.153 21.9598   5
 -19   3   3 257.886 21.0594   2
  19   3  -3 293.216 21.2838   2
 -19   3   3 270.933 20.8046   5
 -19   3   3 226.223 20.1081   3
  19   3  -3 285.382 21.3823   5
  17  -3  -3 557.412 43.0509   5
 -17  -3   3 616.887 42.2653   3
  17  -3  -3 510.606 42.9526   2
  17   3  -3 641.621 42.4728   2
 -17   3   3 568.690 41.5886   3
  17   3  -3 535.410 42.1358   5
 -17   3   3 620.948 42.2284   5
 -17   3   3 553.322 42.1640   2
 -15  -3   3 531.946 35.4625   3
  15  -3  -3 389.049 76.0789   1
  15  -3  -3 417.105 36.0559   2
  15  -3  -3 479.113 36.2930   5
  15   3  -3 479.459 35.3738   5
 -15   3   3 457.499 34.8213   3
 -15   3   3 535.064 35.5515   5
  15   3  -3 543.148 69.2760   1
 -15   3   3 597.862 127.684   1
  15   3  -3 486.963 35.4423   2
 -15   3   3 461.839 35.4336   2
 -13  -3   3 254.234 20.8453   5
  13  -3  -3 267.821 56.7125   1
  13  -3  -3 250.163 22.2971   2
 -13  -3   3 272.864 20.7110   5
 -13  -3   3 323.791 21.6289   3
  13  -3  -3 292.383 22.5474   5
 -13   3   3 270.398 21.0966   3
  13   3  -3 287.236 21.5259   5
  13   3  -3 354.522 49.7945   1
 -13   3   3 295.415 21.8264   2
  13   3  -3 322.839 21.7219   2
 -13   3   3 311.062 21.8218   5
 -11  -3   3 679.201 49.5189   3
 -11  -3   3 782.285 50.2370   5
  11  -3  -3 585.576 73.6798   1
 -11  -3   3 724.190 49.2600   5
  11  -3  -3 626.182 50.1992   2
  11  -3  -3 678.016 50.3359   5
  11   3  -3 685.200 49.5590   2
  11   3  -3 656.808 49.4886   5
 -11   3   3 673.575 49.2612   3
 -11   3   3 710.669 49.8839   5
 -11   3   3 590.207 75.7581   1
  11   3  -3 748.238 68.7609   1
 -11   3   3 706.046 49.9095   2
  11   3  -3 782.046 65.3056   1
   9  -3  -3 1103.84 80.8759   2
   9  -3  -3 1120.09 102.291   1
  -9  -3   3 1167.37 80.3273   3
  -9  -3   3 1157.48 80.2872   5
   9  -3  -3 1237.64 81.0846   5
   9   3  -3 1176.75 92.1988   1
  -9   3   3 1081.41 80.6383   5
   9   3  -3 1274.22 80.3978   2
  -9   3   3 1025.17 80.0465   3
  -9   3   3 1114.54 80.7019   2
   9   3  -3 965.283 80.1745   5
   9   3  -3 1182.20 94.8631   1
  -7  -3   3 4.50746 8.50663   1
   7  -3  -3 8.38657 2.25147   5
   7  -3  -3 7.57745 2.41072   2
  -7  -3   3 12.0266 2.13605   5
   7  -3  -3 0.74650 21.6551   1
  -7  -3   3 13.3030 2.03005   3
   7   3  -3 12.8854 1.95965   2
  -7   3   3 15.4030 16.1288   1
  -7   3   3 7.39716 2.34828   2
   7   3  -3 1.36005 12.2760   1
   7   3  -3 9.30761 1.71039   5
  -7   3   3 7.98080 2.25501   5
  -5  -3   3 108.091 8.83348   5
  -5  -3   3 115.442 8.46412   3
   5  -3  -3 126.109 8.82638   5
   5  -3  -3 115.636 8.53501   4
   5  -3  -3 155.020 27.5421   1
   5  -3  -3 109.995 8.74061   2
  -5  -3   3 129.969 18.9266   1
   5   3  -3 104.517 8.41662   5
  -5   3   3 106.878 9.01304   2
   5   3  -3 98.5484 8.40364   2
  -5   3   3 109.255 8.95163   5
   5   3  -3 98.0465 19.6852   1
  -5   3   3 118.454 23.6424   1
  -3  -3   3 42.0261 4.38750   5
   3  -3  -3 50.1869 3.85034   5
   3  -3  -3 39.9377 15.9418   1
   3  -3  -3 43.7949 3.87775   2
   3  -3  -3 44.4821 3.79131   4
  -3  -3   3 48.0495 3.82941   3
  -3  -3   3 42.5390 5.43064   2
  -3   3   3 44.2812 4.49946   2
   3   3  -3 37.5155 3.74216   2
   3   3  -3 44.7973 13.8141   1
   3   3  -3 36.6329 3.65762   5
  -3   3   3 44.7042 4.31926   5
  -3   3   3 39.7619 13.8245   1
   1  -3  -3 288.026 22.1790   4
  -1  -3   3 297.452 23.0500   2
   1  -3  -3 329.896 22.0461   5
  -1  -3   3 313.828 22.7170   5
  -1  -3   3 339.984 22.3426   3
   1  -3  -3 350.824 35.4239   1
  -1  -3   3 325.212 32.0088   1
   1   3  -3 281.257 22.1606   5
  -1   3   3 301.441 30.3696   1
   1   3  -3 308.529 32.7308   1
  -1   3   3 310.527 22.4782   2
   1   3  -3 276.393 22.1952   2
  -1   3   3 318.602 22.3997   5
   1  -3   3 17.1803 3.76151   2
  -1  -3  -3 28.4000 11.0355   1
   1  -3   3 17.5828 2.99263   5
  -1  -3  -3 23.8952 2.33815   4
   1  -3   3 27.9571 11.3643   1
  -1  -3  -3 28.6269 8.01726   1
  -1   3  -3 19.7754 2.35246   2
   1   3   3 20.0659 3.03567   2
  -1   3  -3 17.9297 2.24551   5
   1   3   3 21.6506 2.47015   5
  -1   3  -3 19.5681 10.8173   1
   3  -3   3 530.862 40.7983   2
   3  -3   3 561.126 40.6012   5
  -3  -3  -3 614.161 43.2688   1
  -3  -3  -3 591.364 39.9054   4
   3  -3   3 650.331 59.1980   1
  -3  -3  -3 541.254 39.6938   3
  -3  -3  -3 626.310 46.1071   1
  -3   3  -3 522.539 39.8689   5
  -3   3  -3 488.723 39.8836   2
   3   3   3 569.268 39.6624   5
  -3   3  -3 514.391 51.2106   1
  -5  -3  -3 883.976 55.4993   4
   5  -3   3 761.220 56.4930   2
   5  -3   3 743.307 70.5687   1
  -5  -3  -3 834.218 55.3709   3
   5   3   3 747.675 55.0424   5
  -5   3  -3 727.745 55.4963   2
  -5   3  -3 749.258 55.4715   5
   7  -3   3 829.684 58.8314   2
  -7  -3  -3 913.685 57.6862   3
   7  -3   3 686.906 75.8212   1
   7  -3   3 851.970 58.6338   5
  -7   3  -3 726.937 57.6218   5
  -7   3  -3 855.618 57.7249   2
  -7   3  -3 731.123 72.3756   1
   9  -3   3 735.276 55.4749   2
  -9  -3  -3 869.652 54.4300   3
   9  -3   3 775.876 55.3923   5
  -9   3  -3 641.664 54.1993   2
  -9   3  -3 750.849 54.3367   5
   9   3   3 791.331 53.9628   5
  11  -3   3 89.0016 9.75366   2
 -11  -3  -3 110.143 8.07884   4
  11  -3   3 87.1815 9.70780   5
  11  -3   3 53.1202 30.8910   1
 -11  -3  -3 95.7280 8.11881   3
  11   3   3 89.2125 8.43693   5
 -11   3  -3 106.765 8.32986   2
 -11   3  -3 49.4297 38.2299   1
  11   3   3 102.554 8.76666   2
  13  -3   3 57.6760 8.07661   2
  13  -3   3 58.0203 7.99910   5
 -13  -3  -3 74.4453 5.93134   4
 -13  -3  -3 65.7614 6.01379   3
  13   3   3 56.8619 7.00596   2
 -13   3  -3 49.4069 6.09035   2
 -13   3  -3 58.1093 6.07919   5
 -13   3  -3 66.8900 46.8000   1
  15  -3   3 44.4955 7.45649   2
 -15  -3  -3 54.1572 5.50611   3
  15  -3   3 29.6245 6.35667   5
 -15  -3  -3 56.1109 5.27066   4
  15   3   3 49.8869 6.82808   2
 -15   3  -3 43.9556 5.43140   5
 -15   3  -3 41.8289 5.94880   2
 -15   3  -3 44.8505 5.35391   3
 -17  -3  -3 52.5276 6.00222   3
  17  -3   3 56.6707 8.76285   5
  17  -3   3 60.3340 8.56424   2
 -17  -3  -3 49.9488 5.86056   4
  17   3   3 45.4488 6.84028   2
 -17   3  -3 62.0416 6.39960   3
 -17   3  -3 62.1134 6.32084   5
 -17   3  -3 45.0534 7.39708   2
  19  -3   3 145.998 13.2483   2
 -19  -3  -3 102.257 10.6052   4
  19  -3   3 123.942 13.3531   5
 -19  -3  -3 132.666 11.0554   3
 -19   3  -3 120.782 10.8046   5
  19   3   3 126.026 12.1803   2
 -19   3  -3 126.934 11.1885   3
  21  -3   3 223.297 21.7156   2
  21  -3   3 263.521 22.7316   5
  21   3   3 303.373 21.3272   2
 -21   3  -3 241.400 19.8088   5
 -21   3  -3 254.856 20.4900   3
 -23  -3  -3 212.554 16.3522   3
  23  -3   3 196.068 18.3349   2
  23  -3   3 139.300 18.7490   5
 -23   3  -3 197.517 16.4428   3
  23   3   3 201.205 17.5129   2
  25  -3   3 213.646 22.7905   2
 -25  -3  -3 290.780 21.4669   3
 -25   3  -3 255.558 21.3147   3
  25   3   3 298.324 22.5725   2
 -27  -3  -3 209.597 16.3562   3
  27  -3   3 161.114 18.2086   2
 -27   3  -3 188.369 16.0383   3
 -29  -3  -3 123.005 11.5752   3
  29  -3   3 107.261 14.1168   2
 -29   3  -3 99.3661 10.7612   3
 -31  -3  -3 39.8330 6.30448   3
  31  -3   3 16.4354 8.84251   2
 -31   3  -3 21.9487 5.96493   3
  30  -4  -3 22.0136 5.83039   2
 -28  -4   3 31.1332 6.23135   3
  28  -4  -3 29.1147 6.67064   2
  28   4  -3 49.4114 7.55173   2
 -26  -4   3 194.342 15.3247   3
  26  -4  -3 197.199 16.1748   2
  26  -4  -3 138.247 16.6009   5
  26   4  -3 189.963 15.5992   2
 -26   4   3 147.780 15.5504   5
  24  -4  -3 191.912 17.4637   2
  24  -4  -3 189.268 17.9098   5
 -24  -4   3 215.272 16.8010   3
 -24   4   3 181.216 15.8864   3
 -24   4   3 199.643 16.5792   5
  24   4  -3 195.508 16.5246   2
  22  -4  -3 79.0311 9.54543   2
  22  -4  -3 53.6296 9.40462   5
 -22  -4   3 71.4540 8.19215   3
  22   4  -3 54.5044 8.08801   2
 -22   4   3 72.2290 7.40807   3
 -22   4   3 68.0173 7.86327   5
 -22   4   3 55.8927 9.52281   2
  20  -4  -3 257.803 21.1455   2
  20  -4  -3 251.038 21.1132   5
 -20  -4   3 247.943 19.9895   3
 -20   4   3 246.669 19.1003   3
 -20   4   3 259.711 19.9129   5
 -20   4   3 246.596 20.2026   2
  20   4  -3 242.794 19.9046   2
 -18  -4   3 82.9851 8.95726   3
  18  -4  -3 105.238 10.7454   2
  18  -4  -3 106.933 10.6336   5
  18   4  -3 75.8152 9.99677   5
 -18   4   3 97.2666 9.46293   2
  18   4  -3 86.1636 9.09932   2
 -18   4   3 96.4464 8.42704   3
 -18   4   3 97.2797 9.05466   5
 -16  -4   3 50.7762 6.12796   3
  16  -4  -3 62.3810 8.07021   2
  16   4  -3 44.7539 6.20651   2
 -16   4   3 62.7234 6.77760   2
  16   4  -3 49.6150 6.88260   5
 -16   4   3 65.0409 6.48574   5
 -16   4   3 53.0884 5.73260   3
  14  -4  -3 66.0400 38.6778   1
 -14  -4   3 144.195 11.4784   3
  14  -4  -3 142.900 12.6029   5
  14  -4  -3 133.411 12.5502   2
 -14   4   3 141.329 10.9719   3
 -14   4   3 148.354 11.7560   5
 -14   4   3 143.962 11.8329   2
  14   4  -3 143.131 11.4416   2
  14   4  -3 128.691 11.4119   5
 -14   4   3 89.2219 43.9041   1
  14   4  -3 164.455 40.4259   1
  12  -4  -3 366.845 27.2662   5
 -12  -4   3 372.417 26.3219   3
  12  -4  -3 363.454 27.1997   2
  12  -4  -3 363.015 67.2952   1
 -12   4   3 387.156 80.0035   1
 -12   4   3 368.702 26.6192   5
  12   4  -3 347.516 26.1398   5
 -12   4   3 366.203 26.6589   2
 -12   4   3 325.997 25.8207   3
  12   4  -3 301.985 50.3249   1
  12   4  -3 353.458 26.1575   2
 -10  -4   3 66.1802 5.49240   3
  10  -4  -3 51.9648 6.31475   2
  10  -4  -3 63.5213 6.57098   5
  10  -4  -3 50.9365 34.6603   1
 -10   4   3 55.8668 5.97463   5
 -10   4   3 53.3213 55.4349   1
  10   4  -3 61.0924 5.40933   5
  10   4  -3 59.8127 20.4159   1
  10   4  -3 92.3219 25.0673   1
  10   4  -3 54.9614 5.33589   2
 -10   4   3 53.3978 5.97257   2
  -8  -4   3 8.54827 11.0096   1
   8  -4  -3 22.2447 3.67686   2
   8  -4  -3 2.34261 23.4920   1
  -8  -4   3 18.3364 2.74977   3
  -8  -4   3 17.8349 2.89671   5
  -8  -4   3 18.0275 2.99146   5
   8  -4  -3 24.5020 3.78320   5
   8   4  -3 15.9475 2.71601   5
   8   4  -3 17.9862 2.67638   2
   8   4  -3 21.1760 17.7642   1
  -8   4   3 12.1819 43.8566   1
  -8   4   3 19.8908 3.46656   2
  -8   4   3 18.8583 3.34166   5
   6  -4  -3 69.0755 6.33959   5
   6  -4  -3 77.4134 31.1537   1
   6  -4  -3 68.9618 6.35784   2
   6  -4  -3 60.8518 5.93181   4
  -6  -4   3 71.9230 6.39702   5
  -6  -4   3 114.229 21.0127   1
  -6  -4   3 79.4290 5.96744   3
  -6   4   3 68.9876 6.58112   5
   6   4  -3 74.9962 5.87123   5
   6   4  -3 62.1913 20.1752   1
  -6   4   3 51.7991 23.3464   1
   6   4  -3 74.3134 5.91273   2
  -6   4   3 66.3092 6.58984   2
  -4  -4   3 21.6673 12.1219   1
  -4  -4   3 16.0407 2.17702   4
   4  -4  -3 28.0090 18.9194   1
  -4  -4   3 19.9172 3.28719   5
   4  -4  -3 20.2260 2.90106   2
  -4  -4   3 18.6599 2.48033   3
   4  -4  -3 22.2044 2.60567   5
   4  -4  -3 19.9904 2.57743   4
  -4   4   3 20.5792 3.42922   5
   4   4  -3 17.4716 2.48586   2
  -4   4   3 24.9149 3.61898   2
   4   4  -3 12.3676 2.32135   5
   4   4  -3 12.3642 12.7276   1
  -4   4   3 14.8068 14.1452   1
  -2  -4   3 38.8943 4.92294   5
   2  -4  -3 17.4012 15.2114   1
   2  -4  -3 40.9479 3.67002   4
  -2  -4   3 40.1100 3.68955   3
   2  -4  -3 45.1471 3.43952   5
  -2  -4   3 37.7620 5.57016   2
   2   4  -3 34.8319 3.64490   2
  -2   4   3 31.3242 4.30808   2
   2   4  -3 41.6111 15.4139   1
   2   4  -3 36.2176 3.54415   5
  -2   4   3 36.8407 4.25586   5
  -2   4   3 31.9392 13.7298   1
   0  -4   3 457.129 44.7950   1
   0  -4   3 464.405 33.3112   5
   0  -4  -3 451.663 44.4543   1
   0  -4   3 387.667 33.3720   2
   0  -4  -3 517.602 32.3362   3
   0  -4  -3 466.518 32.0752   5
   0  -4  -3 482.055 32.5356   4
   0   4   3 433.064 32.6383   2
   0   4   3 430.871 32.6045   5
   0   4  -3 423.220 32.4690   2
   0   4  -3 462.910 32.4688   5
   0   4  -3 468.864 46.9534   1
   0   4   3 439.272 41.3111   1
   2  -4   3 257.057 20.0416   5
   2  -4   3 225.084 20.2624   2
  -2  -4  -3 247.336 27.0649   1
  -2  -4  -3 260.321 24.9440   1
   2  -4   3 246.563 33.1273   1
  -2  -4  -3 289.091 18.8724   3
  -2  -4  -3 279.324 19.0708   4
   2   4   3 243.034 19.0631   2
  -2   4  -3 282.998 19.1075   5
   2   4   3 259.562 19.0023   5
  -2   4  -3 255.585 19.0857   2
   4  -4   3 1866.25 140.477   2
   4  -4   3 1957.30 155.601   1
   4  -4   3 2035.82 140.415   5
  -4  -4  -3 2057.57 139.405   4
  -4  -4  -3 1969.72 139.211   3
   4   4   3 1898.78 139.142   2
  -4   4  -3 1947.65 139.470   2
   4   4   3 1963.88 139.083   5
  -4   4  -3 2060.76 139.476   5
   6  -4   3 1276.33 91.4919   5
   6  -4   3 1198.98 91.5754   2
   6  -4   3 1228.05 111.297   1
  -6  -4  -3 1203.67 90.2127   3
  -6  -4  -3 1283.50 90.3345   4
  -6   4  -3 1387.63 90.5335   5
  -6   4  -3 1328.03 90.4990   2
   8  -4   3 159.879 13.2694   5
  -8  -4  -3 150.030 11.3982   4
  -8  -4  -3 152.881 11.4430   3
   8  -4   3 148.498 13.3362   2
   8  -4   3 121.883 40.6666   1
  -8   4  -3 128.623 33.5759   1
  -8   4  -3 153.400 11.6492   5
  -8   4  -3 139.279 11.5284   2
 -10  -4  -3 398.925 28.9245   3
 -10  -4  -3 436.350 28.8729   4
  10  -4   3 373.169 30.4138   2
  10  -4   3 403.339 30.3423   5
 -10   4  -3 262.461 58.9069   1
 -10   4  -3 400.152 29.0579   5
 -10   4  -3 396.582 29.0361   2
 -12  -4  -3 44.5052 5.52127   3
 -12  -4  -3 46.8327 5.48868   4
  12  -4   3 72.0834 8.56907   2
  12  -4   3 64.7055 8.17569   5
  12  -4   3 37.9880 67.1707   1
 -12   4  -3 30.4198 43.8136   1
 -12   4  -3 67.2054 6.18183   5
 -12   4  -3 69.7218 6.28193   2
  14  -4   3 102.011 10.4302   5
 -14  -4  -3 78.5999 7.77908   4
 -14  -4  -3 80.8188 8.08493   3
  14  -4   3 101.262 10.5328   2
  14   4   3 81.1260 8.92251   2
 -14   4  -3 99.9811 8.64985   2
 -14   4  -3 99.5663 8.55218   5
 -16  -4  -3 109.497 11.1389   3
  16  -4   3 158.961 13.8211   2
  16  -4   3 151.966 13.7973   5
 -16  -4  -3 112.604 10.9499   4
  16   4   3 114.249 11.8514   2
 -16   4  -3 142.502 11.9691   2
 -16   4  -3 156.683 11.7931   5
 -16   4  -3 152.799 11.7994   3
  18  -4   3 139.617 13.5119   5
  18  -4   3 137.391 13.3084   2
 -18  -4  -3 116.912 11.1203   3
 -18   4  -3 132.677 11.4067   3
 -18   4  -3 130.481 11.3687   5
  18   4   3 96.6526 11.8623   2
 -18   4  -3 133.220 12.0164   2
 -20  -4  -3 35.8874 5.65562   4
  20  -4   3 26.2519 7.32865   5
 -20  -4  -3 38.5936 5.81151   3
  20  -4   3 25.3951 6.07116   2
 -20   4  -3 39.3151 6.34775   5
 -20   4  -3 22.4598 4.63074   3
  20   4   3 29.0553 6.66265   2
 -22  -4  -3 26.4404 5.04558   3
  22  -4   3 23.0107 7.57056   2
  22  -4   3 13.9822 7.81158   5
 -22   4  -3 15.1070 4.96746   5
 -22   4  -3 30.4485 6.12445   3
 -24  -4  -3 69.4701 8.05959   3
  24  -4   3 54.9216 11.0713   5
  24  -4   3 73.0387 11.1500   2
 -24   4  -3 61.8760 8.16687   3
 -24   4  -3 47.2691 7.63493   5
 -26  -4  -3 78.0861 9.11423   3
  26  -4   3 49.5145 12.2477   5
  26  -4   3 85.6789 12.0798   2
 -26   4  -3 73.1551 8.87978   3
  28  -4   3 69.0210 10.3295   2
 -28  -4  -3 59.7188 8.85911   3
 -28   4  -3 61.0181 8.30650   3
  30  -4   3 41.7407 8.83117   2
 -30  -4  -3 30.3942 6.33780   3
 -30   4  -3 36.2444 6.59223   3
  29  -5  -3 16.1563 6.26671   2
 -29  -5   3 15.4736 5.79050   3
  27  -5  -3 37.0854 7.51252   2
 -27  -5   3 47.4819 7.07879   3
  27   5  -3 34.8305 7.74288   2
  25  -5  -3 33.0337 7.93936   5
 -25  -5   3 48.3849 7.14537   3
  25  -5  -3 38.8192 7.36655   4
  25  -5  -3 58.7710 8.84234   2
  25   5  -3 29.9761 6.94479   2
 -25   5   3 32.3797 6.79559   5
  23  -5  -3 146.645 13.5571   2
 -23  -5   3 113.286 12.0968   3
  23  -5  -3 157.030 14.1193   5
  23  -5  -3 127.668 12.6191   4
 -23   5   3 117.973 13.6884   2
  23   5  -3 105.394 12.1156   2
 -23   5   3 127.829 12.2140   5
  21  -5  -3 235.418 18.2166   5
 -21  -5   3 188.754 16.5275   3
  21  -5  -3 204.998 17.7519   2
 -21   5   3 198.749 16.9135   2
  21   5  -3 159.825 16.0716   2
 -21   5   3 185.755 15.6501   3
 -21   5   3 198.928 16.4864   5
  19  -5  -3 350.245 26.5675   2
  19  -5  -3 357.853 26.6144   5
 -19  -5   3 308.596 25.3447   3
 -19   5   3 310.904 24.3728   3
 -19   5   3 326.242 25.2658   5
 -19   5   3 348.790 25.6473   2
  19   5  -3 291.902 24.9682   2
  17  -5  -3 279.660 20.9148   5
 -17  -5   3 232.190 19.4949   3
  17  -5  -3 260.722 20.8614   2
 -17   5   3 262.255 19.6514   5
  17   5  -3 214.029 19.1651   2
 -17   5   3 218.047 18.5978   3
 -17   5   3 268.253 19.8952   2
  15  -5  -3 215.836 16.1657   5
  15  -5  -3 194.285 16.1183   2
 -15  -5   3 169.091 14.5515   3
 -15   5   3 196.253 15.0479   2
  15   5  -3 145.487 14.6371   5
 -15   5   3 211.621 15.0693   5
  15   5  -3 156.700 14.3334   2
 -15   5   3 165.368 13.9073   3
  13  -5  -3 120.881 74.1982   1
  13  -5  -3 232.057 18.9835   2
  13  -5  -3 246.750 19.0023   5
 -13  -5   3 233.772 17.9404   3
 -13   5   3 226.760 18.2241   2
  13   5  -3 253.768 17.8129   2
 -13   5   3 217.245 17.3344   3
  13   5  -3 223.781 45.2155   1
  13   5  -3 205.764 17.7369   5
 -13   5   3 179.882 58.6941   1
 -13   5   3 255.157 18.3532   5
  11  -5  -3 122.241 10.4280   5
  11  -5  -3 34.8133 48.0286   1
  11  -5  -3 114.261 10.5004   2
 -11  -5   3 103.996 9.23888   3
 -11   5   3 114.373 9.90561   2
 -11   5   3 134.417 90.9086   1
  11   5  -3 99.6421 9.23680   5
 -11   5   3 120.162 10.0101   5
  11   5  -3 111.595 9.22708   2
  11   5  -3 133.110 34.7940   1
   9  -5  -3 122.788 10.1947   5
   9  -5  -3 113.606 10.2135   2
   9  -5  -3 113.820 56.4496   1
  -9  -5   3 107.404 8.74789   4
  -9  -5   3 116.244 9.38413   3
   9   5  -3 122.121 9.33850   2
  -9   5   3 115.405 9.99214   2
  -9   5   3 61.5375 44.2183   1
   9   5  -3 131.102 31.0770   1
   9   5  -3 114.627 9.30089   5
  -9   5   3 115.524 10.0807   5
   7  -5  -3 139.173 10.9754   2
  -7  -5   3 127.725 10.0389   5
  -7  -5   3 124.165 25.7814   1
   7  -5  -3 141.441 10.6657   4
  -7  -5   3 121.642 9.93675   5
   7  -5  -3 124.112 36.7980   1
  -7  -5   3 134.976 10.4812   3
   7  -5  -3 149.586 11.0179   5
  -7  -5   3 122.168 9.94609   4
   7   5  -3 120.962 10.3156   5
   7   5  -3 136.572 10.4024   2
  -7   5   3 148.295 11.2444   2
  -7   5   3 136.743 11.1842   5
  -7   5   3 171.399 65.6558   1
   7   5  -3 153.544 32.4301   1
  -5  -5   3 291.744 22.0012   5
  -5  -5   3 310.976 21.8920   3
   5  -5  -3 290.391 49.1254   1
   5  -5  -3 288.694 21.8787   2
  -5  -5   3 289.020 21.4469   4
   5  -5  -3 320.523 21.9726   5
   5  -5  -3 331.006 22.0306   4
  -5  -5   3 322.330 36.8048   1
  -5   5   3 280.084 49.2064   1
  -5   5   3 296.935 22.3171   2
   5   5  -3 278.733 41.0361   1
   5   5  -3 281.187 21.7322   2
  -5   5   3 299.355 22.3977   5
   5   5  -3 270.408 21.6656   5
   3  -5  -3 104.326 7.85515   4
  -3  -5   3 102.332 8.68798   5
   3  -5  -3 106.269 7.60734   5
  -3  -5   3 97.9495 7.80592   3
  -3  -5   3 77.0143 20.9039   1
  -3  -5   3 90.1722 7.51496   4
   3  -5  -3 109.016 8.25585   2
   3  -5  -3 91.1635 26.7635   1
  -3   5   3 101.488 25.0370   1
  -3   5   3 86.5897 8.35206   5
   3   5  -3 113.351 28.4052   1
  -3   5   3 97.1976 8.37763   2
   3   5  -3 86.3674 7.60683   5
   3   5  -3 87.5567 7.69100   2
  -1  -5   3 24.7055 5.08160   2
   1  -5  -3 15.0191 17.4755   1
  -1  -5   3 26.5442 4.40502   5
   1  -5  -3 20.0146 2.80246   4
   1  -5  -3 20.9891 2.23126   5
  -1   5   3 26.2640 3.70316   2
   1   5  -3 24.4997 2.92751   2
  -1   5   3 29.2371 16.7887   1
  -1   5   3 21.2666 3.48829   5
   1   5  -3 21.7586 2.91056   5
   1   5  -3 8.69752 18.1899   1
  -1  -5  -3 528.452 36.0590   4
   1  -5   3 494.432 53.8109   1
  -1  -5  -3 444.346 46.1169   1
   1  -5   3 470.491 37.1258   2
   1  -5   3 503.711 37.0912   5
  -1  -5  -3 539.649 35.8474   3
   1   5   3 450.788 36.0737   2
  -1   5  -3 542.516 36.0675   5
  -1   5  -3 527.875 36.1013   2
   1   5   3 473.136 36.1113   5
  -1   5  -3 509.613 56.1102   1
  -3  -5  -3 2498.19 172.099   3
   3  -5   3 2433.06 190.153   1
  -3  -5  -3 2292.19 176.636   1
  -3  -5  -3 2221.82 176.221   1
   3  -5   3 2407.08 173.490   2
   3  -5   3 2530.48 173.475   5
  -3  -5  -3 2360.46 172.256   4
  -3   5  -3 2757.79 172.490   2
   3   5   3 2404.34 172.155   5
  -3   5  -3 2494.17 193.080   1
   3   5   3 2245.66 172.152   2
  -3   5  -3 2633.22 172.418   5
   5  -5   3 1710.78 118.422   5
  -5  -5  -3 1617.53 117.049   4
  -5  -5  -3 1571.80 116.888   3
   5  -5   3 1702.25 141.008   1
   5  -5   3 1664.35 118.505   2
   5   5   3 1519.69 116.661   5
   5   5   3 1553.96 116.752   2
  -5   5  -3 1822.55 117.319   2
  -5   5  -3 1807.55 117.282   5
  -5   5  -3 1564.70 139.131   1
   7  -5   3 2143.07 137.501   5
   7  -5   3 1945.79 137.429   2
   7  -5   3 1922.31 166.440   1
  -7  -5  -3 1813.09 135.767   3
  -7  -5  -3 1858.26 135.831   4
  -7   5  -3 1608.72 158.180   1
  -7   5  -3 1946.83 136.057   2
  -7   5  -3 2055.50 136.131   5
   9  -5   3 358.615 69.6128   1
  -9  -5  -3 286.603 25.9795   3
   9  -5   3 347.603 28.0017   2
   9  -5   3 411.648 28.1230   5
  -9   5  -3 374.376 26.4549   5
  -9   5  -3 285.592 61.9356   1
  -9   5  -3 387.895 26.4559   2
 -11  -5  -3 142.941 13.0055   4
  11  -5   3 190.979 15.6267   5
  11  -5   3 188.358 15.7390   2
 -11  -5  -3 143.290 13.2235   3
  11  -5   3 186.668 69.9469   1
 -11   5  -3 200.163 74.7132   1
 -11   5  -3 201.300 13.7837   2
  13  -5   3 32.3713 6.52468   5
 -13  -5  -3 51.1925 5.63130   3
  13  -5   3 29.2549 6.50565   2
 -13  -5  -3 57.2146 5.39817   4
 -13   5  -3 50.5012 5.88183   5
 -13   5  -3 43.0058 5.80911   2
 -15  -5  -3 173.935 13.7200   3
  15  -5   3 153.562 15.5465   5
  15  -5   3 159.382 15.6508   2
 -15  -5  -3 193.032 13.4404   4
 -15   5  -3 152.573 13.8246   2
 -15   5  -3 152.973 13.7596   5
 -17  -5  -3 118.987 10.1239   3
  17  -5   3 94.6762 11.7575   2
 -17  -5  -3 128.299 9.75692   4
  17  -5   3 96.6276 12.0649   5
 -17   5  -3 89.0523 10.4144   2
 -17   5  -3 87.5485 9.67159   3
 -17   5  -3 108.888 10.2100   5
  19  -5   3 116.703 13.9161   2
 -19  -5  -3 152.218 11.9323   4
  19  -5   3 121.595 14.5421   5
 -19  -5  -3 144.203 12.4783   3
 -19   5  -3 135.921 12.4673   3
 -19   5  -3 130.942 13.3139   2
 -19   5  -3 147.058 12.6917   5
 -21  -5  -3 73.7005 9.37695   4
  21  -5   3 95.4705 13.4632   5
 -21  -5  -3 99.4659 10.0300   3
  21  -5   3 113.886 12.8935   2
 -21   5  -3 111.001 10.0698   3
 -21   5  -3 96.9875 10.2094   5
 -23  -5  -3 130.224 12.5981   3
  23  -5   3 136.756 16.3008   5
  23  -5   3 162.656 15.3954   2
 -23   5  -3 151.457 12.7246   3
 -23   5  -3 104.064 12.5816   5
  25  -5   3 153.400 20.2425   5
 -25  -5  -3 190.271 16.3965   3
  25  -5   3 205.648 18.6856   2
 -25   5  -3 194.836 16.1197   3
  27  -5   3 262.398 22.4433   2
 -27  -5  -3 239.869 20.5124   3
 -27   5  -3 258.836 20.3541   3
  29  -5   3 133.478 14.7853   2
 -29  -5  -3 120.930 12.7701   3
 -29   5  -3 137.744 12.2095   3
 -28  -6   3 15.0327 5.27329   3
  28  -6  -3 0.90947 5.75243   2
 -26  -6   3 9.96847 5.88521   3
  26  -6  -3 15.4484 5.88253   2
  26  -6  -3 8.70084 7.08464   4
 -24  -6   3 58.3260 8.08832   3
  24  -6  -3 36.1399 7.69362   5
  24  -6  -3 42.2977 7.35534   4
  24  -6  -3 40.0382 7.74292   2
 -24   6   3 51.1159 8.58895   5
 -24   6   3 33.1307 8.91402   2
  22  -6  -3 153.181 16.4941   5
 -22  -6   3 183.349 15.5949   3
  22  -6  -3 178.340 16.4135   2
  22  -6  -3 157.687 15.2677   4
 -22   6   3 186.135 16.2140   2
 -22   6   3 172.172 15.3385   5
  20  -6  -3 325.777 27.8693   4
  20  -6  -3 355.161 28.8801   2
  20  -6  -3 339.581 28.9600   5
 -20  -6   3 373.227 28.1822   3
 -20   6   3 382.089 28.2688   2
  20   6  -3 417.405 27.8059   2
 -20   6   3 355.449 27.8436   5
 -20   6   3 327.985 27.1012   3
 -18  -6   3 646.613 44.9707   3
  18  -6  -3 578.509 45.5342   5
  18  -6  -3 579.948 45.5788   2
  18   6  -3 685.493 44.4859   2
 -18   6   3 531.507 43.6445   3
 -18   6   3 592.506 44.8695   2
 -18   6   3 611.482 44.8038   5
  16  -6  -3 662.022 49.8181   5
  16  -6  -3 623.297 49.6142   2
 -16  -6   3 660.671 48.9635   3
  16   6  -3 764.865 48.7161   2
 -16   6   3 589.028 47.9013   3
 -16   6   3 710.000 49.2226   2
 -16   6   3 652.706 48.9653   5
  14  -6  -3 949.626 68.1058   5
  14  -6  -3 890.381 67.8835   2
 -14  -6   3 930.836 67.2465   3
 -14   6   3 994.161 67.6029   2
 -14   6   3 958.218 67.4585   5
  14   6  -3 1006.00 66.9761   2
 -14   6   3 787.989 66.2968   3
 -12  -6   3 853.284 58.8930   3
  12  -6  -3 774.965 59.3503   2
  12  -6  -3 796.664 59.4925   5
  12  -6  -3 830.667 59.0670   4
  12   6  -3 746.264 58.4750   5
  12   6  -3 874.391 58.6320   2
 -12   6   3 825.094 59.1841   2
 -12   6   3 810.206 59.1459   5
  10  -6  -3 200.599 16.5354   5
 -10  -6   3 184.486 15.8046   3
 -10  -6   3 193.791 15.1797   4
  10  -6  -3 211.489 16.1849   4
  10  -6  -3 201.938 16.5538   2
  10   6  -3 210.959 15.7857   2
  10   6  -3 196.378 15.7683   5
 -10   6   3 223.711 16.6165   5
 -10   6   3 220.291 16.5774   2
  10   6  -3 222.990 44.0459   1
   8  -6  -3 192.198 14.3555   4
   8  -6  -3 190.717 14.6119   2
  -8  -6   3 169.155 13.4779   4
   8  -6  -3 194.774 14.5894   5
  -8  -6   3 178.659 14.0500   3
  -8  -6   3 161.807 31.8290   1
  -8   6   3 173.817 62.9447   1
   8   6  -3 179.387 13.9655   2
   8   6  -3 181.230 42.2168   1
  -8   6   3 181.216 14.8196   5
   8   6  -3 161.475 13.9480   5
  -8   6   3 195.976 14.8609   2
   6  -6  -3 22.4158 36.2633   1
   6  -6  -3 6.86595 2.28562   5
   6  -6  -3 6.43617 2.29275   4
   6  -6  -3 7.29048 3.09126   2
  -6  -6   3 -5.0039 21.7808   1
  -6  -6   3 9.08510 2.06731   4
  -6  -6   3 8.20519 2.26955   3
   6   6  -3 -2.3071 29.8713   1
   6   6  -3 3.55127 2.12313   5
  -6   6   3 -16.755 42.9109   1
  -6   6   3 5.30502 2.70774   2
  -6   6   3 6.85490 3.02364   5
   6   6  -3 7.22991 2.29137   2
   4  -6  -3 17.5296 2.92532   5
   4  -6  -3 8.89563 31.3779   1
   4  -6  -3 15.8940 2.83946   4
   4  -6  -3 15.9102 3.37743   2
  -4  -6   3 20.1798 3.03218   3
  -4  -6   3 18.9299 3.20524   5
  -4  -6   3 13.3276 21.9871   1
  -4  -6   3 18.5902 2.84386   4
  -4   6   3 21.2627 4.15801   5
  -4   6   3 28.6054 31.9597   1
   4   6  -3 10.2654 25.9881   1
   4   6  -3 18.3256 3.18490   5
  -4   6   3 22.0046 4.02414   2
   4   6  -3 18.5617 3.11484   2
   2  -6  -3 47.1070 25.9649   1
  -2  -6   3 69.6658 6.26451   3
  -2  -6   3 49.0365 23.6866   1
  -2  -6   3 49.8801 6.88944   5
   2  -6  -3 74.3716 6.16584   4
  -2  -6   3 63.1157 6.01539   4
   2  -6  -3 78.0677 5.57521   5
  -2   6   3 71.6278 6.99450   2
  -2   6   3 49.7881 27.1968   1
  -2   6   3 72.1372 7.20617   5
   2   6  -3 37.8869 29.2861   1
   0  -6  -3 501.005 31.8927   4
   0  -6  -3 486.832 49.3506   1
   0  -6   3 443.167 32.7068   5
   0  -6   3 386.857 32.5905   2
   0   6   3 457.668 49.7527   1
   0   6  -3 404.482 60.9444   1
   0   6  -3 386.820 31.6309   5
   0   6  -3 397.023 31.6837   2
   0   6   3 454.322 32.1612   5
   0   6   3 470.374 32.1212   2
   2  -6   3 1005.07 102.330   1
   2  -6   3 1100.71 83.0967   2
  -2  -6  -3 1284.69 82.1804   4
  -2  -6  -3 1265.92 81.9389   3
   2  -6   3 1142.09 83.1801   5
  -2  -6  -3 1182.01 91.7078   1
  -2   6  -3 1098.52 82.1202   2
   2   6   3 1209.84 82.2033   5
  -2   6  -3 1056.13 82.0659   5
   2   6   3 1237.15 82.2262   2
  -2   6  -3 991.134 109.036   1
   4  -6   3 2006.69 149.592   2
  -4  -6  -3 2295.57 148.477   4
   4  -6   3 1744.03 171.573   1
   4  -6   3 2131.31 149.717   5
  -4  -6  -3 2139.00 148.214   3
  -4   6  -3 2080.99 148.539   2
  -4   6  -3 2006.30 148.475   5
   4   6   3 2222.56 148.293   2
   4   6   3 2154.80 148.202   5
   6  -6   3 1121.51 87.3444   2
  -6  -6  -3 1299.43 85.9676   4
   6  -6   3 1193.56 122.707   1
  -6  -6  -3 1214.46 85.7820   3
   6  -6   3 1220.63 87.4337   5
  -6   6  -3 974.826 118.012   1
  -6   6  -3 1200.91 86.1106   5
   6   6   3 1232.77 85.5651   2
  -6   6  -3 1289.59 86.1768   2
  -8  -6  -3 854.589 60.5825   3
   8  -6   3 798.742 62.2815   2
  -8  -6  -3 944.670 60.6927   4
   8  -6   3 878.940 62.4111   5
  -8   6  -3 773.279 60.7870   5
  -8   6  -3 817.961 60.8316   2
  -8   6  -3 886.430 129.377   1
  10  -6   3 86.7740 10.3774   5
  10  -6   3 79.9715 10.7695   2
 -10  -6  -3 94.6349 8.04048   3
  10  -6   3 216.943 163.070   1
 -10  -6  -3 103.717 7.84048   4
 -10   6  -3 77.7553 8.14432   5
 -10   6  -3 78.1325 8.16528   2
 -10   6  -3 11.5015 71.1362   1
 -12  -6  -3 145.109 10.8061   4
  12  -6   3 114.757 13.5142   2
 -12  -6  -3 144.222 11.2364   3
  12  -6   3 116.743 13.0915   5
 -12   6  -3 111.940 11.0824   2
 -12   6  -3 127.958 11.4618   5
 -14  -6  -3 229.195 19.5883   4
  14  -6   3 277.936 22.4485   2
  14  -6   3 275.108 22.1835   5
 -14  -6  -3 239.637 20.1431   3
 -14   6  -3 264.602 20.5558   5
 -14   6  -3 273.780 20.5059   2
  16  -6   3 63.3715 10.0518   5
  16  -6   3 72.8294 10.2749   2
 -16  -6  -3 45.4928 6.94786   4
 -16  -6  -3 70.2068 8.00134   3
 -16   6  -3 66.0896 8.10066   5
 -16   6  -3 61.3374 8.00848   2
 -18  -6  -3 26.7173 5.24004   3
  18  -6   3 35.4884 7.82226   2
  18  -6   3 14.1185 6.92389   5
 -18  -6  -3 22.5568 4.48569   4
 -18   6  -3 26.7474 6.11194   2
 -18   6  -3 21.4599 5.41676   5
 -18   6  -3 31.8610 5.94262   3
  20  -6   3 38.9449 9.09498   5
 -20  -6  -3 67.3982 8.49934   3
 -20  -6  -3 64.4783 7.82886   4
  20  -6   3 73.9665 11.0642   2
 -20   6  -3 52.7306 8.39812   5
 -20   6  -3 59.4877 7.90851   3
 -20   6  -3 36.7597 8.04488   2
 -22  -6  -3 117.751 10.9459   4
  22  -6   3 94.4730 14.0479   5
  22  -6   3 79.5253 13.0589   2
 -22  -6  -3 128.683 11.6936   3
 -22   6  -3 96.8249 11.5100   5
 -22   6  -3 109.886 10.8658   3
 -24   6  -3 240.280 19.6571   3
  26  -6   3 147.300 15.8212   2
 -26  -6  -3 166.629 14.3224   3
 -26   6  -3 137.117 13.4119   3
 -28  -6  -3 94.2600 10.6517   3
 -28   6  -3 70.4546 9.68001   3
 -27  -7   3 16.5545 6.06129   3
  27  -7  -3 2.41916 6.64746   2
  25  -7  -3 65.0473 9.19304   4
 -25  -7   3 81.9600 9.47704   3
  25  -7  -3 59.2289 9.74277   2
  23  -7  -3 148.542 14.4916   2
  23  -7  -3 132.568 13.1931   4
 -23  -7   3 152.792 13.6075   3
  23  -7  -3 127.224 14.6057   5
 -23   7   3 130.200 13.6415   5
 -23   7   3 129.728 14.7046   2
  21  -7  -3 156.629 15.9284   5
  21  -7  -3 147.319 14.2231   4
 -21  -7   3 141.782 14.3167   3
  21  -7  -3 178.606 15.7131   2
 -21   7   3 163.498 14.5634   5
 -21   7   3 157.138 14.7684   2
  21   7  -3 129.001 14.2276   2
  19  -7  -3 104.681 12.3641   5
 -19  -7   3 96.0919 11.0923   3
  19  -7  -3 105.254 12.6650   2
  19  -7  -3 93.2407 10.8884   4
  19   7  -3 79.7748 10.8121   2
 -19   7   3 123.057 11.4394   2
 -19   7   3 106.545 10.9821   5
  17  -7  -3 24.1442 7.04331   2
  17  -7  -3 29.1687 7.07431   5
  17  -7  -3 31.1188 6.35700   4
 -17  -7   3 29.5394 6.25381   3
 -17   7   3 27.1404 5.92598   2
  17   7  -3 40.3837 6.35913   2
 -17   7   3 22.1287 5.37916   5
 -15  -7   3 62.2507 7.64617   3
  15  -7  -3 49.9417 8.65397   5
  15  -7  -3 54.0588 8.49328   2
  15  -7  -3 60.3702 7.74955   4
 -15   7   3 44.9085 7.44571   2
  15   7  -3 66.7517 7.56303   2
 -15   7   3 47.2309 6.99459   3
 -15   7   3 59.6593 7.95703   5
 -13  -7   3 47.0645 6.34644   3
  13  -7  -3 43.9196 7.05698   5
  13  -7  -3 36.1548 6.24249   4
  13  -7  -3 38.4300 7.08928   2
  13   7  -3 41.9485 6.18911   2
 -13   7   3 43.4857 6.67692   2
 -13   7   3 41.4962 6.54511   5
 -13   7   3 35.9322 5.66342   3
  11  -7  -3 48.8176 7.01862   2
  11  -7  -3 44.0930 5.95843   4
 -11  -7   3 38.9048 5.46332   3
  11  -7  -3 41.3816 6.66376   5
 -11   7   3 48.7467 6.97689   5
  11   7  -3 37.4993 5.66171   2
 -11   7   3 40.0070 6.37446   2
  -9  -7   3 23.2707 4.08523   4
   9  -7  -3 28.4513 4.62805   4
   9  -7  -3 28.0073 5.32156   2
   9  -7  -3 29.8131 4.69543   5
  -9  -7   3 19.9400 3.72117   3
   9   7  -3 29.2723 4.30109   2
   9   7  -3 21.7627 4.27976   5
  -9   7   3 23.3701 4.48206   2
  -9   7   3 24.7813 4.85996   5
  -7  -7   3 61.6850 6.01745   3
   7  -7  -3 58.4478 6.23367   4
  -7  -7   3 57.9368 5.60722   4
   7  -7  -3 61.8411 6.16976   5
   7  -7  -3 53.3092 7.05269   2
  -7   7   3 57.1907 6.82890   2
   7   7  -3 62.3690 6.09044   2
  -7   7   3 61.9284 7.38677   5
   7   7  -3 51.2434 6.39371   5
  -5  -7   3 245.406 18.8881   3
   5  -7  -3 241.640 18.4606   5
  -5  -7   3 259.870 18.4706   4
   5  -7  -3 242.097 18.9074   4
   5   7  -3 247.016 18.8207   5
  -5   7   3 247.618 19.7551   5
   5   7  -3 251.622 18.8081   2
  -5   7   3 250.185 19.5320   2
   3  -7  -3 33.3928 4.06267   4
   3  -7  -3 -35.164 50.2227   1
  -3  -7   3 33.7797 4.16761   5
  -3  -7   3 30.3876 4.07565   4
  -3  -7   3 8.07165 35.5841   1
   3  -7  -3 27.9103 3.26813   5
   3   7  -3 29.3719 4.29029   5
  -3   7   3 31.3818 5.17223   2
   3   7  -3 29.3839 4.09805   2
  -3   7   3 31.1924 5.42507   5
   1  -7  -3 299.572 55.9710   1
   1  -7  -3 332.539 23.3397   4
  -1  -7   3 316.774 23.2010   4
  -1  -7   3 322.170 23.6238   5
  -1   7   3 300.064 23.8687   5
  -1   7   3 313.298 23.7415   2
   1   7  -3 308.707 23.2550   2
   1   7  -3 239.898 74.2987   1
   1   7  -3 300.728 23.2678   5
  -1   7   3 341.996 59.3477   1
   1  -7   3 201.495 15.3151   4
  -1  -7  -3 155.823 33.6202   1
   1  -7   3 204.745 16.2442   5
  -1  -7  -3 206.676 15.2625   4
   1  -7   3 177.895 17.2347   2
  -1   7  -3 213.413 15.4657   2
  -1   7  -3 206.513 15.4227   5
   1   7   3 183.002 15.6072   2
   1   7   3 191.897 15.8998   5
   3  -7   3 98.3362 11.9285   2
  -3  -7  -3 113.904 8.84832   3
  -3  -7  -3 74.7179 23.4955   1
   3  -7   3 106.456 10.7529   5
  -3  -7  -3 113.350 8.93074   4
  -3   7  -3 111.706 9.20956   2
   3   7   3 106.903 9.59538   2
  -3   7  -3 104.856 9.23026   5
   3   7   3 90.9003 9.94250   5
   5  -7   3 7.11135 4.61160   5
  -5  -7  -3 22.7106 3.60986   4
   5  -7   3 18.6219 6.33491   2
  -5  -7  -3 16.9082 3.20383   3
   5   7   3 18.6881 4.18135   2
  -5   7  -3 15.0602 3.23116   5
  -7  -7  -3 20.8887 3.49013   3
   7  -7   3 16.6347 5.36471   5
   7  -7   3 9.78639 5.88589   2
  -7  -7  -3 13.4345 2.90577   4
   7   7   3 12.5267 4.07655   2
  -7   7  -3 6.28162 2.97695   5
  -7   7  -3 9.78797 2.99889   2
   9  -7   3 93.2521 10.7618   5
  -9  -7  -3 80.2162 7.62190   4
   9  -7   3 97.5097 11.5972   2
  -9  -7  -3 85.3237 8.06607   3
  -9   7  -3 82.6180 8.25997   2
  -9   7  -3 87.4291 8.47498   5
 -11  -7  -3 16.4051 4.11597   3
 -11  -7  -3 14.3311 3.33305   4
  11  -7   3 6.51846 5.80784   2
  11  -7   3 8.71824 5.22613   5
 -11   7  -3 12.8489 3.85317   2
  13  -7   3 325.214 28.1843   5
  13  -7   3 310.777 28.3622   2
 -13  -7  -3 404.383 26.2893   4
 -13  -7  -3 373.738 26.7108   3
 -13   7  -3 329.929 26.6834   2
 -13   7  -3 331.906 26.8709   5
 -15  -7  -3 74.4595 9.00187   3
  15  -7   3 73.8084 11.6153   2
 -15  -7  -3 84.9311 8.16392   4
  15  -7   3 66.3853 11.1951   5
 -15   7  -3 77.9653 9.22606   2
 -15   7  -3 70.1211 8.96673   5
 -17  -7  -3 78.9549 8.52350   4
  17  -7   3 67.2869 11.5046   5
  17  -7   3 73.0340 11.9306   2
 -17  -7  -3 79.8774 9.25103   3
 -17   7  -3 64.2866 9.32905   5
 -17   7  -3 72.0477 9.71521   2
 -19  -7  -3 5.85474 5.29595   3
  19  -7   3 17.3729 7.21026   2
  19  -7   3 10.2311 6.87536   5
 -19  -7  -3 4.62899 4.45469   4
 -19   7  -3 11.0646 6.07783   2
 -19   7  -3 10.4034 5.12308   5
 -19   7  -3 12.1591 4.65076   3
  21  -7   3 21.6495 8.69259   5
 -21  -7  -3 36.1719 7.15265   3
 -21  -7  -3 32.8323 6.37024   4
  21  -7   3 25.0748 8.06961   2
 -21   7  -3 14.4366 8.07376   2
 -21   7  -3 23.5583 6.51162   5
 -21   7  -3 44.3994 7.21213   3
  23  -7   3 22.9053 12.3537   5
  23  -7   3 21.9554 8.22085   2
 -23   7  -3 19.6916 5.38327   3
 -25  -7  -3 37.8555 6.81467   3
  25  -7   3 23.0362 8.12337   2
 -25   7  -3 26.9338 6.36951   3
 -27  -7  -3 27.4766 6.71288   3
  27  -7   3 14.9265 8.00421   2
 -26  -8   3 15.2959 6.24580   3
  24  -8  -3 48.8540 9.94850   2
 -24  -8   3 41.2314 7.24512   3
  24  -8  -3 52.4629 8.03051   4
 -24   8   3 29.4881 9.69052   2
  22  -8  -3 87.7736 13.5359   2
 -22  -8   3 82.7935 10.4336   3
  22  -8  -3 83.9240 10.7203   4
 -22   8   3 96.7562 11.8201   2
  20  -8  -3 119.753 13.9645   5
  20  -8  -3 113.339 11.7715   4
 -20  -8   3 107.867 11.9156   3
  20  -8  -3 110.209 14.4426   2
 -20   8   3 101.723 12.2023   5
 -20   8   3 116.278 12.4699   2
  18  -8  -3 176.609 16.1620   5
  18  -8  -3 161.865 16.7522   2
  18  -8  -3 154.307 14.8068   4
 -18  -8   3 127.084 14.2933   3
 -18   8   3 153.089 14.9344   5
 -18   8   3 175.586 15.2402   2
 -16  -8   3 69.3052 9.42045   3
  16  -8  -3 76.8760 9.51366   4
  16  -8  -3 99.8735 11.1316   5
  16  -8  -3 95.5697 12.3538   2
 -16   8   3 77.7533 9.92900   5
 -16   8   3 86.8615 9.92307   2
  16   8  -3 56.9539 9.49010   2
  14  -8  -3 67.9492 9.89058   2
 -14  -8   3 56.5237 7.97099   3
  14  -8  -3 61.6506 8.31531   4
  14  -8  -3 62.2042 9.40780   5
 -14   8   3 63.6265 9.06959   5
 -14   8   3 78.0719 8.93806   2
  14   8  -3 56.7419 8.33138   2
  12  -8  -3 122.914 13.5929   2
  12  -8  -3 131.301 12.8093   5
 -12  -8   3 133.046 12.1034   3
  12  -8  -3 139.426 12.5405   4
  12   8  -3 138.627 12.0281   2
 -12   8   3 138.712 13.1407   5
 -12   8   3 135.511 12.7912   2
  10  -8  -3 67.2423 7.93792   5
  10  -8  -3 76.4046 7.93385   4
 -10  -8   3 64.2044 7.45179   3
 -10   8   3 69.7727 8.52898   2
  10   8  -3 62.8125 7.65515   2
 -10   8   3 77.5756 9.26521   5
   8  -8  -3 654.543 45.3518   4
  -8  -8   3 571.209 44.2667   4
  -8  -8   3 584.129 45.0376   3
   8  -8  -3 639.641 44.8526   5
  -8   8   3 604.678 45.8495   5
   8   8  -3 668.520 45.0538   2
  -8   8   3 641.780 45.8618   2
   8   8  -3 566.920 44.9913   5
   6  -8  -3 36.9098 4.77302   5
   6  -8  -3 32.5896 5.05010   4
  -6  -8   3 37.8478 4.80994   4
  -6  -8   3 35.3914 5.05297   3
   6   8  -3 29.1915 5.34833   5
  -6   8   3 45.2770 6.59043   2
   6   8  -3 37.8734 5.39137   2
  -6   8   3 41.8257 6.66632   5
   4  -8  -3 5.75642 2.75833   4
   4  -8  -3 6.38959 2.06102   5
  -4  -8   3 10.4826 3.00608   4
  -4   8   3 10.0726 4.13993   2
  -4   8   3 7.56321 4.62105   5
   4   8  -3 7.48276 3.47243   5
   4   8  -3 9.61374 3.01377   2
  -2  -8   3 29.2886 4.34657   4
   2  -8  -3 26.6482 4.42064   4
  -2  -8   3 25.8240 3.53624   5
  -2   8   3 31.6618 5.69547   2
   2   8  -3 32.2043 4.73923   2
  -2   8   3 28.9271 6.19515   5
   2   8  -3 31.0862 5.20943   5
   0  -8   3 45.6059 6.04653   5
   0  -8   3 47.5495 5.75637   4
   0  -8  -3 51.0207 5.58345   4
   0   8   3 51.8068 8.51412   5
   0   8  -3 47.0092 6.24714   5
   0   8   3 53.5608 7.15274   2
   0   8  -3 50.8902 5.92548   2
  -2  -8  -3 105.125 9.05883   4
   2  -8   3 106.904 10.1498   5
   2  -8   3 100.048 9.29376   4
  -2   8  -3 105.127 9.71855   5
   2   8   3 106.987 10.1756   2
  -2   8  -3 113.494 9.43000   2
   2   8   3 79.1396 11.1511   5
  -4  -8  -3 98.4329 9.84446   3
  -4  -8  -3 114.544 10.0633   4
   4  -8   3 134.355 11.9715   5
  -4   8  -3 126.079 10.4476   2
  -4   8  -3 121.984 10.7079   5
   4   8   3 118.139 10.8759   2
   6  -8   3 97.0246 12.3915   2
  -6  -8  -3 73.8160 7.93152   4
   6  -8   3 109.628 11.0517   5
  -6  -8  -3 74.2433 8.02656   3
   6   8   3 80.9968 9.00948   2
  -6   8  -3 96.1399 8.68679   2
  -6   8  -3 99.7328 9.04126   5
   8  -8   3 369.063 30.1902   2
   8  -8   3 404.567 30.0105   5
  -8  -8  -3 339.596 27.7022   4
  -8  -8  -3 324.441 27.8045   3
  -8   8  -3 394.146 28.6001   5
  -8   8  -3 417.342 28.5131   2
  10  -8   3 169.662 16.5471   2
 -10  -8  -3 134.058 12.3453   3
  10  -8   3 155.861 15.0645   5
 -10  -8  -3 118.581 11.7038   4
 -10   8  -3 158.139 12.7691   2
 -12  -8  -3 38.0703 6.62261   3
  12  -8   3 40.1066 9.65784   2
  12  -8   3 44.7105 8.43267   5
 -12   8  -3 52.8868 7.17164   2
 -12   8  -3 45.8668 7.53105   5
 -14  -8  -3 18.7743 5.59507   3
  14  -8   3 17.1246 8.09730   2
 -14  -8  -3 15.7836 4.21800   4
  14  -8   3 16.4273 6.65578   5
 -14   8  -3 20.8757 5.43576   5
 -14   8  -3 19.1346 5.16022   2
  16  -8   3 88.9287 12.9421   5
 -16  -8  -3 101.534 10.7330   3
  16  -8   3 79.4170 13.4617   2
 -16  -8  -3 104.458 9.86241   4
 -16   8  -3 90.5673 11.0121   5
 -16   8  -3 85.3646 10.6892   2
 -18  -8  -3 6.61031 4.93125   4
  18  -8   3 -1.9993 6.53747   5
  18  -8   3 0.56489 7.71917   2
 -18  -8  -3 6.07190 5.35909   3
 -18   8  -3 3.24071 5.32841   5
 -18   8  -3 5.40506 4.09768   3
 -18   8  -3 -2.2872 5.50330   2
  20  -8   3 11.7403 7.89514   5
  20  -8   3 18.3445 8.53048   2
 -20   8  -3 7.30260 7.08457   2
 -20   8  -3 8.29421 6.09309   5
 -20   8  -3 4.86482 4.99895   3
 -22  -8  -3 25.0867 7.24262   3
  22  -8   3 22.4489 8.51027   2
 -22   8  -3 28.4687 10.5263   2
 -22   8  -3 14.9442 5.65780   3
  24  -8   3 39.4567 9.47546   2
 -24  -8  -3 38.5354 7.96706   3
 -24   8  -3 22.2549 6.01318   3
 -26  -8  -3 75.7937 10.7040   3
 -25  -9   3 24.5603 8.72893   3
  23  -9  -3 74.5696 9.91953   4
 -23  -9   3 79.4305 10.0754   3
  21  -9  -3 165.936 15.9441   4
 -21  -9   3 176.153 16.2256   3
 -21   9   3 185.257 16.8347   2
  19  -9  -3 281.277 26.3027   5
  19  -9  -3 332.960 30.1095   2
 -19  -9   3 319.337 25.6069   3
  19  -9  -3 321.443 25.5409   4
 -19   9   3 358.937 25.9887   2
 -19   9   3 289.262 25.7180   5
  17  -9  -3 446.883 34.8688   4
 -17  -9   3 434.612 34.8046   3
  17  -9  -3 458.224 41.0215   2
  17  -9  -3 433.858 35.2555   5
 -17   9   3 484.628 35.1814   2
 -17   9   3 457.067 35.1642   5
  15  -9  -3 367.540 29.3610   4
  15  -9  -3 349.346 29.4997   5
 -15  -9   3 375.043 29.2946   3
 -15   9   3 371.718 29.8597   5
  15   9  -3 391.120 28.7082   2
 -15   9   3 392.640 29.7221   2
  13  -9  -3 536.411 38.4778   4
  13  -9  -3 492.004 38.2039   5
 -13  -9   3 466.330 38.0825   3
  13   9  -3 517.251 37.6911   2
 -13   9   3 525.605 38.8296   2
 -13   9   3 498.097 38.8401   5
  11  -9  -3 380.823 29.2245   4
 -11  -9   3 359.828 29.0118   3
  11  -9  -3 370.798 28.8136   5
 -11   9   3 372.728 29.8646   5
  11   9  -3 375.324 28.6783   2
 -11   9   3 410.063 29.9047   2
   9  -9  -3 279.351 20.8533   4
   9  -9  -3 252.699 20.0379   5
  -9  -9   3 240.227 20.4712   3
   9   9  -3 261.631 20.4955   2
  -9   9   3 243.651 21.8854   5
  -9   9   3 274.670 21.5959   2
   7  -9  -3 119.326 10.4784   4
  -7  -9   3 109.716 9.85714   4
   7  -9  -3 95.0073 9.44413   5
  -7   9   3 107.746 12.6897   5
   7   9  -3 116.587 10.6884   2
  -7   9   3 123.286 11.7483   2
  -5  -9   3 11.0533 3.64035   4
   5  -9  -3 13.9749 3.75912   4
  -5   9   3 19.4189 6.68635   5
   5   9  -3 13.6917 5.89357   5
   5   9  -3 20.2163 4.48619   2
  -5   9   3 16.0038 5.24125   2
   3  -9  -3 232.329 16.3942   4
  -3  -9   3 198.978 15.8548   4
   3   9  -3 166.221 16.8974   5
  -3   9   3 221.797 17.4404   2
  -3   9   3 195.527 18.3548   5
   3   9  -3 183.612 16.2547   2
   1  -9  -3 352.686 24.3846   4
  -1  -9   3 310.665 24.0081   4
  -1   9   3 311.447 25.9336   5
   1   9  -3 292.046 24.2972   2
  -1   9   3 351.919 25.2580   2
   1   9  -3 287.894 24.8501   5
   1  -9   3 519.710 41.7953   5
   1  -9   3 615.378 42.4640   4
  -1   9  -3 589.380 42.6795   2
  -1   9  -3 514.181 42.6693   5
   1   9   3 661.905 43.1597   2
   3  -9   3 824.892 64.3490   5
   3  -9   3 944.858 64.5550   4
  -3  -9  -3 1000.22 64.4911   4
  -3   9  -3 781.947 64.5665   5
  -3   9  -3 851.616 64.5325   2
   3   9   3 941.962 64.5446   2
  -5  -9  -3 1079.47 73.3253   4
   5  -9   3 1023.84 73.5759   4
   5  -9   3 953.183 73.8358   5
  -5   9  -3 948.257 73.6588   5
  -5   9  -3 1055.03 73.7120   2
   5   9   3 1047.25 73.1180   2
  -7  -9  -3 902.273 63.4872   4
   7  -9   3 899.128 64.7810   5
   7  -9   3 905.055 64.0266   4
  -7  -9  -3 802.515 63.3614   3
   7   9   3 833.297 63.0913   2
  -7   9  -3 934.833 64.1411   2
  -9  -9  -3 185.016 14.9003   4
   9  -9   3 174.231 17.5834   5
  -9  -9  -3 171.209 15.1828   3
   9  -9   3 167.426 18.9210   2
  -9   9  -3 195.483 15.7856   2
  -9   9  -3 192.202 16.5701   5
 -11  -9  -3 147.448 12.1150   4
  11  -9   3 128.353 15.0458   5
  11  -9   3 117.363 17.0129   2
 -11  -9  -3 140.779 12.9634   3
 -11   9  -3 142.757 13.1406   2
 -11   9  -3 131.691 13.7461   5
 -13  -9  -3 1.75165 5.23270   3
  13  -9   3 4.34479 6.89389   5
 -13  -9  -3 7.39872 4.33070   4
  13  -9   3 14.2780 9.68737   2
 -13   9  -3 6.22329 5.23173   5
 -13   9  -3 4.93192 4.88721   2
 -15  -9  -3 3.77426 4.70689   4
  15  -9   3 1.47956 9.79973   2
  15  -9   3 6.77882 7.29538   5
 -15  -9  -3 1.79269 6.21244   3
 -15   9  -3 7.13339 5.23690   2
 -15   9  -3 4.61136 5.72370   5
  17  -9   3 10.5218 10.2513   2
  17  -9   3 1.91289 7.40713   5
 -17  -9  -3 2.33074 6.01854   3
 -17  -9  -3 1.68965 5.70733   4
 -17   9  -3 7.48564 6.02510   2
 -17   9  -3 4.58945 6.14454   5
 -19  -9  -3 6.54827 7.22794   4
 -19  -9  -3 16.0149 6.84415   3
  19  -9   3 27.8177 10.7114   2
  19  -9   3 -0.6845 9.30320   5
 -19   9  -3 4.98795 4.65913   3
 -19   9  -3 14.7839 6.91216   2
 -19   9  -3 8.90209 7.92029   5
 -21  -9  -3 33.6710 8.11381   3
  21  -9   3 4.08117 10.3174   2
 -21   9  -3 16.2197 6.36010   3
 -21   9  -3 9.24180 8.82998   2
 -23  -9  -3 29.9695 7.68175   3
  23  -9   3 11.8698 6.50652   4
  23  -9   3 11.3009 10.2169   2
 -23   9  -3 12.5266 6.27445   3
 -22 -10   3 20.1720 6.79080   3
  20 -10  -3 18.2426 5.75658   4
 -20 -10   3 6.90854 5.74425   3
 -20  10   3 13.6032 6.92640   2
 -18 -10   3 28.9915 7.06093   3
  18 -10  -3 39.8162 7.53166   4
 -18  10   3 42.7536 8.00052   2
 -16 -10   3 69.0080 9.87580   3
  16 -10  -3 77.9533 9.80021   4
 -16  10   3 76.3209 10.7670   2
 -16  10   3 75.5081 11.1551   5
 -14 -10   3 9.32108 5.13211   3
  14 -10  -3 10.6797 5.49082   4
  14 -10  -3 2.35792 7.05398   5
 -14  10   3 11.8304 6.07869   2
 -14  10   3 7.29132 7.25161   5
  14  10  -3 -2.0815 7.01559   2
  12 -10  -3 60.5211 10.0746   5
 -12 -10   3 53.3265 8.39223   3
  12 -10  -3 75.6263 8.79143   4
 -12  10   3 80.9089 10.3939   2
 -12  10   3 51.7843 9.49781   5
  12  10  -3 63.5972 9.89877   2
  10 -10  -3 8.53220 6.69668   5
  10 -10  -3 8.06275 4.46017   4
  10  10  -3 9.92556 5.65178   2
 -10  10   3 2.37260 7.02002   5
 -10  10   3 8.18506 5.84550   2
   8 -10  -3 9.49918 4.40581   4
  -8  10   3 11.0720 7.98102   5
  -8  10   3 9.53734 5.86993   2
   8  10  -3 11.0205 5.09006   2
   6 -10  -3 134.747 12.1725   4
  -6 -10   3 126.253 11.6939   4
  -6  10   3 129.539 16.2752   5
  -6  10   3 137.568 13.8727   2
   6  10  -3 139.551 12.7194   2
   4 -10  -3 300.409 23.8306   4
  -4 -10   3 332.153 23.5837   4
  -4  10   3 310.893 25.2448   2
  -4  10   3 266.505 26.6242   5
   4  10  -3 310.724 24.1883   2
  -2 -10   3 28.7655 5.17067   4
   2 -10  -3 27.1107 5.19224   4
   2  10  -3 24.0342 7.88745   5
   2  10  -3 34.5603 6.41183   2
  -2  10   3 36.8720 7.61739   2
   0 -10  -3 30.5830 5.34258   4
   0 -10   3 36.9517 5.66154   4
   0  10  -3 26.2928 7.66452   5
   0  10  -3 46.9564 7.11537   2
   0  10   3 38.2974 7.79025   2
   2 -10   3 21.3880 4.78381   4
  -2 -10  -3 21.8979 4.56964   4
  -2  10  -3 17.6513 5.14032   2
   2  10   3 21.0061 6.77373   2
   4 -10   3 0.64855 3.76021   4
   4 -10   3 2.25166 4.91337   5
  -4 -10  -3 10.1220 3.63489   4
  -4  10  -3 3.04506 5.92901   5
  -4  10  -3 2.84545 3.89861   2
   4  10   3 9.85836 6.65196   2
  -6 -10  -3 204.532 16.2920   4
   6 -10   3 173.388 17.1356   5
   6 -10   3 202.990 16.7436   4
  -6  10  -3 215.729 17.2595   2
   6  10   3 190.153 17.5622   2
  -8 -10  -3 16.8483 4.35302   4
   8 -10   3 6.03082 6.42759   5
   8 -10   3 13.6000 5.18682   4
  -8  10  -3 11.4508 5.08035   2
  -8  10  -3 12.5967 6.67518   5
  10 -10   3 25.8323 6.12146   4
 -10 -10  -3 17.6869 6.18969   3
  10 -10   3 19.1468 7.61885   5
 -10 -10  -3 10.7658 4.44375   4
 -10  10  -3 27.5008 7.06855   5
 -10  10  -3 19.4687 5.59165   2
 -12 -10  -3 39.7587 7.88780   3
  12 -10   3 17.1720 8.50565   5
 -12 -10  -3 50.7103 7.37108   4
  12 -10   3 39.7189 7.28076   4
 -12  10  -3 35.1655 7.10604   2
 -12  10  -3 25.5509 7.17212   5
  14 -10   3 13.5875 8.34143   5
 -14 -10  -3 30.4414 6.06065   4
 -14 -10  -3 22.5831 7.59600   3
  14 -10   3 10.8403 5.28297   4
 -14  10  -3 14.2434 5.81227   2
 -14  10  -3 13.0700 7.07028   5
 -16 -10  -3 27.8015 7.04392   4
  16 -10   3 36.2313 23.8951   2
  16 -10   3 15.9737 15.2446   5
  16 -10   3 16.0310 5.84020   4
 -16 -10  -3 12.5080 6.73427   3
 -16  10  -3 3.13051 6.19407   2
 -16  10  -3 25.6720 9.01991   5
  18 -10   3 11.6260 5.99159   4
 -18 -10  -3 2.20080 7.05739   3
 -18  10  -3 4.59605 6.72623   2
 -18  10  -3 6.63412 6.39291   3
  20 -10   3 2.82977 6.19372   4
 -20  10  -3 1.76720 6.32334   3
  22 -10   3 18.7483 6.53799   4
  19 -11  -3 26.8406 6.83602   4
 -19  11   3 34.7677 7.95926   2
  17 -11  -3 21.5899 6.00901   4
 -17  11   3 21.9191 7.41506   2
  15 -11  -3 66.7398 9.37972   4
 -15  11   3 69.6906 10.7913   2
  13 -11  -3 76.0197 9.73695   4
 -13  11   3 84.4761 11.7633   2
  11 -11  -3 49.4330 8.08633   4
 -11  11   3 35.7582 8.31306   2
  11  11  -3 68.4489 9.01666   2
 -11  11   3 53.5198 12.6098   5
   9 -11  -3 49.3156 7.82129   4
   9  11  -3 58.1422 8.73700   2
  -9  11   3 48.3282 9.05831   2
  -9  11   3 33.4237 11.5606   5
   7 -11  -3 8.27932 4.72214   4
   7  11  -3 9.68129 6.21036   2
  -7  11   3 9.65410 6.86785   2
  -7  11   3 16.4122 11.7831   5
   5 -11  -3 4.71439 3.74831   4
  -5 -11   3 5.80980 5.14343   4
  -5  11   3 3.05766 6.83284   2
   5  11  -3 -0.5966 5.60560   2
  -3 -11   3 0.32397 4.35973   4
   3 -11  -3 1.73480 3.82089   4
  -3  11   3 1.57675 7.00580   2
   3  11  -3 3.95568 5.52889   2
  -1 -11   3 12.3340 4.95377   4
   1 -11  -3 20.2559 5.02966   4
  -1  11   3 32.4142 8.16230   2
   1  11  -3 21.9239 6.36917   2
  -1 -11  -3 21.8218 4.76117   4
   1 -11   3 14.4509 4.81179   4
   1  11   3 8.59121 7.69776   2
  -1  11  -3 13.8945 5.71403   2
  -3 -11  -3 8.29753 4.00390   4
   3 -11   3 6.30526 4.66466   4
  -3  11  -3 10.8320 5.86088   2
   3  11   3 9.20166 7.86782   2
   5 -11   3 6.15964 4.51593   4
  -5 -11  -3 12.9600 4.56935   4
   5  11   3 13.9177 8.40258   2
  -5  11  -3 8.02483 9.18980   5
  -5  11  -3 9.16706 5.40113   2
   7 -11   3 15.9455 5.40716   4
  -7 -11  -3 31.7625 5.48494   4
  -7  11  -3 17.9209 8.54430   5
  -7  11  -3 21.8225 6.45359   2
   9 -11   3 10.6800 5.07740   4
   9 -11   3 -8.0249 11.1349   5
  -9 -11  -3 13.2949 5.02900   4
  -9  11  -3 14.1616 6.26501   2
  -9  11  -3 1.87088 7.66736   5
  11 -11   3 0.39795 4.96940   4
  11 -11   3 -1.0093 11.8092   5
 -11 -11  -3 4.05951 5.21515   4
 -11  11  -3 6.60911 8.16929   5
 -11  11  -3 9.65913 6.12514   2
 -13 -11  -3 13.5565 6.26185   4
  13 -11   3 6.64388 5.48758   4
 -13  11  -3 7.34123 5.92099   2
 -15 -11  -3 9.92897 8.42622   4
  15 -11   3 19.3995 6.40917   4
 -15  11  -3 19.5499 7.12563   2
  17 -11   3 9.36975 6.29902   4
 -17  11  -3 5.48001 6.55936   3
 -17  11  -3 3.02984 7.12703   2
  19 -11   3 2.67917 6.49859   4
  16 -12  -3 241.093 20.9177   4
 -16  12   3 273.327 22.6469   2
  14 -12  -3 29.2748 6.38977   4
 -14  12   3 31.4102 8.11413   2
  12 -12  -3 42.1769 7.49949   4
 -12  12   3 39.5796 8.86678   2
  10 -12  -3 31.9640 7.25585   4
 -10  12   3 52.5130 9.47802   2
   8 -12  -3 32.6274 5.90297   4
   8  12  -3 35.1654 8.57734   2
  -8  12   3 33.8911 9.05860   2
   6 -12  -3 60.8209 8.40138   4
  -6  12   3 75.2702 11.2724   2
   6  12  -3 55.4429 9.63263   2
   4 -12  -3 157.744 14.1256   4
  -4  12   3 156.392 17.0799   2
   4  12  -3 152.560 15.8961   2
  -2 -12   3 180.067 18.4610   4
   2 -12  -3 240.141 18.6724   4
  -2  12   3 251.745 21.0549   2
   2  12  -3 231.500 20.0506   2
   0 -12  -3 290.834 22.2626   4
   0 -12   3 244.101 22.0359   4
   0  12   3 312.722 24.1781   2
   0  12  -3 278.294 23.5561   2
   2 -12   3 188.552 16.8852   4
  -2 -12  -3 198.401 16.6320   4
  -2  12  -3 212.968 18.5918   2
   2  12   3 198.264 19.3892   2
  -4 -12  -3 167.361 14.5429   4
   4 -12   3 156.687 14.8932   4
  -4  12  -3 177.492 16.4008   2
  -6 -12  -3 310.443 24.9103   4
   6 -12   3 308.481 25.1247   4
  -6  12  -3 351.035 26.6278   2
   8 -12   3 149.141 13.6585   4
  -8 -12  -3 132.878 13.5062   4
  -8  12  -3 156.413 14.9329   2
  10 -12   3 64.3110 9.23822   4
 -10 -12  -3 58.5843 9.76655   4
 -10  12  -3 70.8351 10.4771   2
  12 -12   3 29.5233 6.82530   4
 -12 -12  -3 35.6564 8.22556   4
 -12  12  -3 39.2298 8.07354   2
  14 -12   3 31.1410 7.06478   4
 -14  12  -3 27.7087 7.83421   2
  16 -12   3 0.78524 6.63869   4
  11 -13  -3 2.81698 5.04632   4
 -11  13   3 -0.2949 8.27559   2
   9 -13  -3 -0.3745 4.92713   4
  -9  13   3 -6.4455 8.52813   2
   7 -13  -3 17.9475 5.60545   4
  -7  13   3 9.70531 9.32872   2
   5 -13  -3 24.7570 5.38509   4
  -5  13   3 30.9885 9.81427   2
   5  13  -3 23.2828 9.83453   2
   3 -13  -3 16.7817 4.99865   4
   3  13  -3 34.0680 9.20836   2
  -3  13   3 25.1685 10.3483   2
   1 -13  -3 17.4464 5.52745   4
   1  13  -3 1.96595 8.28114   2
  -1  13   3 -10.884 10.0440   2
   1 -13   3 10.0893 6.75361   4
  -1 -13  -3 24.5309 5.77231   4
   1  13   3 3.58867 11.7265   2
  -1  13  -3 8.27548 8.07358   2
  -3 -13  -3 17.5931 5.82325   4
   3 -13   3 20.0052 6.96957   4
  -3  13  -3 25.6372 8.23086   2
  -5 -13  -3 6.61923 5.62545   4
   5 -13   3 6.33877 6.21720   4
  -5  13  -3 23.7672 7.81564   2
  -7 -13  -3 66.3833 9.77892   4
   7 -13   3 76.4567 10.1233   4
  -7  13  -3 75.0004 11.9056   2
   9 -13   3 20.8003 6.89890   4
  -9  13  -3 12.9157 7.18067   2
 -11  13  -3 2.13584 7.21118   2
  32   0  -4 80.6265 10.1712   2
  30   0  -4 108.519 11.5325   2
  28   0  -4 37.0114 6.71029   2
 -28   0   4 39.6395 6.43428   3
  26   0  -4 259.997 19.5286   2
  26   0  -4 204.332 20.2807   5
 -26   0   4 221.329 18.3672   3
 -24   0   4 341.920 25.2397   3
  24   0  -4 285.097 26.3053   5
  24   0  -4 367.627 26.5967   2
 -22   0   4 1502.56 108.343   3
 -22   0   4 1460.44 107.990   5
  22   0  -4 1587.11 109.555   2
  22   0  -4 1529.93 109.370   5
  20   0  -4 2022.85 136.645   2
 -20   0   4 1871.50 135.281   5
 -20   0   4 1827.10 135.359   3
 -18   0   4 1168.07 79.3027   3
  18   0  -4 1060.65 80.2095   2
  18   0  -4 1048.12 80.0685   5
 -18   0   4 1152.47 79.3168   5
 -16   0   4 1446.27 109.365   2
  16   0  -4 1482.65 109.923   5
 -16   0   4 1668.56 109.382   5
  16   0  -4 1650.05 110.243   2
 -16   0   4 1435.11 109.051   3
  14   0  -4 1998.44 177.782   1
 -14   0   4 2216.07 146.549   5
  14   0  -4 2146.57 147.016   5
  14   0  -4 1984.54 146.944   2
 -14   0   4 2009.09 146.163   3
  14   0  -4 2134.90 173.533   1
 -14   0   4 1970.79 146.528   2
  12   0  -4 727.575 54.6121   2
  12   0  -4 779.562 54.6750   5
 -12   0   4 758.740 53.9628   3
  12   0  -4 750.433 76.7537   1
 -12   0   4 741.085 54.3288   5
 -12   0   4 786.601 54.5561   2
  12   0  -4 740.309 81.0165   1
 -10   0   4 391.380 27.9796   2
  10   0  -4 430.230 46.3110   1
  10   0  -4 394.595 27.8894   2
  10   0  -4 360.422 27.7699   5
 -10   0   4 365.450 27.2312   3
 -10   0   4 369.712 27.7282   5
  10   0  -4 369.505 49.9320   1
   8   0  -4 235.664 18.9848   2
   8   0  -4 251.529 35.6142   1
  -8   0   4 266.958 19.1496   5
   8   0  -4 232.448 32.0884   1
   8   0  -4 263.117 19.0589   5
  -8   0   4 255.209 19.3159   2
  -8   0   4 277.701 18.5797   3
   6   0  -4 2703.49 191.829   5
   6   0  -4 2514.59 191.796   2
  -6   0   4 2888.03 192.039   5
   6   0  -4 2810.11 202.933   1
   6   0  -4 2698.32 204.093   1
  -6   0   4 2714.33 192.137   2
   4   0  -4 539.154 37.0693   2
   4   0  -4 520.699 46.9156   1
   4   0  -4 504.765 37.0209   5
  -4   0   4 526.359 37.2185   5
  -4   0   4 506.203 37.3788   2
  -2   0   4 4373.05 325.672   2
  -2   0   4 4889.50 334.836   1
   2   0  -4 4399.38 333.197   1
  -2   0   4 4584.18 325.570   5
   2   0  -4 4876.60 325.466   2
   2   0   4 9202.11 685.665   1
  -2   0  -4 9999.99 685.332   1
   2   0   4 9712.19 678.127   2
   4   0   4 19.1098 2.48702   5
  -4   0  -4 17.1611 1.96347   5
   4   0   4 19.4936 2.90397   2
   4   0   4 19.5019 9.64909   1
  -4   0  -4 11.7836 8.01489   1
  -4   0  -4 16.4784 2.45844   4
   6   0   4 357.552 25.5838   5
  -6   0  -4 361.072 25.1626   5
  -6   0  -4 346.313 25.4945   4
   6   0   4 368.678 36.3455   1
   6   0   4 345.603 25.7645   2
  -6   0  -4 333.649 33.7259   1
  -8   0  -4 809.024 57.0062   3
   8   0   4 783.653 69.6263   1
  -8   0  -4 856.516 56.6652   5
   8   0   4 747.363 57.1318   5
   8   0   4 808.311 57.3707   2
  -8   0  -4 782.286 66.7159   1
  -8   0  -4 799.198 57.0249   4
 -10   0  -4 760.056 53.0912   4
  10   0   4 746.285 53.5823   2
 -10   0  -4 709.691 53.0322   3
 -10   0  -4 732.291 65.4930   1
  10   0   4 714.508 68.7014   1
  10   0   4 740.883 53.4018   5
 -10   0  -4 771.503 52.6204   5
  12   0   4 9.10418 3.54741   5
  12   0   4 27.9304 22.9067   1
 -12   0  -4 6.07331 17.8875   1
 -12   0  -4 11.9122 2.62260   4
 -12   0  -4 6.48253 1.80486   3
  12   0   4 11.7031 4.10711   2
 -12   0  -4 17.0518 2.12127   5
 -14   0  -4 26.4121 3.75849   3
  14   0   4 27.8513 5.26389   5
  14   0   4 29.5761 5.70978   2
 -14   0  -4 28.8644 4.11138   4
 -14   0  -4 28.7268 2.84379   5
  16   0   4 930.700 65.6707   5
  16   0   4 954.550 65.7615   2
 -16   0  -4 818.007 64.6188   3
  18   0   4 421.185 30.7897   2
 -18   0  -4 414.790 29.4955   3
  18   0   4 342.791 30.6274   5
 -20   0  -4 536.452 38.8102   3
  20   0   4 527.522 40.0222   2
  20   0   4 505.742 40.3824   5
 -22   0  -4 911.644 67.4249   3
  22   0   4 949.512 68.6036   2
  24   0   4 528.280 42.0506   2
 -24   0  -4 564.398 40.8169   3
 -26   0  -4 417.467 31.8086   3
  26   0   4 419.693 33.5982   2
 -28   0  -4 14.4637 4.13724   3
  28   0   4 6.60761 8.39454   2
  30   0   4 59.6608 11.3626   2
 -30   0  -4 54.1734 7.71826   3
  31  -1  -4 11.2406 5.72530   2
  31   1  -4 5.28288 5.52728   2
 -29  -1   4 16.3643 5.89662   3
  29  -1  -4 30.1658 6.22651   2
  29   1  -4 13.8304 5.54724   2
  27  -1  -4 53.8796 8.13003   2
 -27  -1   4 56.4457 7.30697   3
  27  -1  -4 69.0722 9.81732   5
 -27   1   4 38.6000 6.66638   3
  27   1  -4 32.6588 6.66527   2
  25  -1  -4 57.0912 8.23057   2
 -25  -1   4 49.8585 6.84817   3
  25  -1  -4 49.9953 8.45173   5
 -25   1   4 51.6338 7.16955   3
  25   1  -4 49.6433 7.86548   2
  23  -1  -4 254.158 18.9526   5
 -23  -1   4 183.012 17.0735   3
  23  -1  -4 257.025 18.7545   2
  23   1  -4 178.489 18.4565   5
 -23   1   4 209.304 17.1744   5
 -23   1   4 229.354 17.1727   3
  23   1  -4 198.054 18.0071   2
 -21  -1   4 101.720 10.3546   5
  21  -1  -4 123.988 12.3583   2
  21  -1  -4 119.839 12.4233   5
 -21  -1   4 137.316 11.3284   3
  21   1  -4 159.016 12.7083   5
 -21   1   4 111.928 10.7694   3
 -21   1   4 133.405 11.0794   5
  21   1  -4 138.573 12.3843   2
  19  -1  -4 54.1170 7.74957   2
 -19  -1   4 55.2227 6.26668   3
  19  -1  -4 59.2891 7.86190   5
 -19  -1   4 50.8100 5.85091   5
  19   1  -4 50.9627 7.24218   2
 -19   1   4 56.8612 7.89471   2
  19   1  -4 50.2226 7.61252   5
 -19   1   4 58.3559 6.07740   3
 -19   1   4 53.8156 6.14685   5
 -17  -1   4 63.2117 6.58400   3
 -17  -1   4 59.9012 6.36251   5
  17  -1  -4 78.7268 8.22091   5
  17  -1  -4 79.5227 8.36253   2
 -17   1   4 66.7331 7.39750   2
 -17   1   4 60.8293 6.35982   3
 -17   1   4 71.1206 6.79322   5
  17   1  -4 54.1832 7.36126   5
  17   1  -4 63.0207 7.40290   2
 -15  -1   4 24.2490 3.54500   3
 -15  -1   4 21.9464 4.90509   2
 -15  -1   4 25.7932 3.71089   5
  15  -1  -4 20.6188 4.52304   2
  15  -1  -4 -17.633 46.9181   1
  15  -1  -4 15.7912 3.91782   5
  15   1  -4 20.3757 4.21156   5
  15   1  -4 17.9741 3.99175   2
 -15   1   4 25.8998 3.95718   5
  15   1  -4 30.5890 38.6656   1
 -15   1   4 25.3561 3.63747   3
 -15   1   4 30.4891 4.65105   2
  13  -1  -4 47.5245 5.98364   2
  13  -1  -4 46.7775 5.87222   5
 -13  -1   4 46.7234 5.89854   2
 -13  -1   4 56.2100 5.19468   5
  13  -1  -4 72.4959 39.1609   1
  13  -1  -4 24.5096 30.7849   1
 -13  -1   4 49.3304 4.78459   3
  13   1  -4 38.0506 5.32247   5
 -13   1   4 47.4170 5.66010   2
  13   1  -4 47.4236 29.6333   1
  13   1  -4 64.8458 29.1380   1
  13   1  -4 47.5359 5.45740   2
 -13   1   4 41.0677 4.54607   3
 -13   1   4 50.1473 5.21119   5
  11  -1  -4 1114.65 84.3522   5
  11  -1  -4 1164.45 105.899   1
 -11  -1   4 1221.89 84.2449   2
 -11  -1   4 1228.67 83.7502   3
 -11  -1   4 1244.27 84.1088   5
  11  -1  -4 1176.04 84.4098   2
 -11   1   4 1184.80 84.2615   2
  11   1  -4 948.729 101.928   1
  11   1  -4 1138.70 100.546   1
  11   1  -4 1206.59 84.1643   5
  11   1  -4 1312.29 84.3095   2
 -11   1   4 1026.02 83.5433   3
 -11   1   4 1293.68 84.2435   5
   9  -1  -4 626.511 47.2946   2
   9  -1  -4 607.866 63.3689   1
  -9  -1   4 714.399 47.2960   5
  -9  -1   4 676.237 46.8092   3
  -9  -1   4 663.384 47.4141   2
   9  -1  -4 710.214 47.4269   5
   9  -1  -4 739.610 75.8676   1
  -9   1   4 600.639 46.6321   3
   9   1  -4 675.702 47.1799   2
   9   1  -4 705.652 47.1814   5
   9   1  -4 598.364 60.0891   1
  -9   1   4 632.923 47.2433   5
  -9   1   4 618.478 47.3318   2
   9   1  -4 634.215 63.9910   1
   7  -1  -4 42.1940 4.18163   2
  -7  -1   4 48.1219 4.94748   2
  -7  -1   4 43.5586 3.70844   3
   7  -1  -4 65.5177 24.0728   1
  -7  -1   4 45.1099 4.35431   5
   7  -1  -4 64.4150 20.7860   1
   7  -1  -4 43.0289 4.18631   5
   7   1  -4 42.7726 4.00776   5
   7   1  -4 47.8441 14.6205   1
  -7   1   4 44.4139 4.40363   5
   7   1  -4 43.6153 4.08549   2
   7   1  -4 70.0444 18.7310   1
  -7   1   4 39.0135 4.65264   2
  -5  -1   4 215.723 24.5553   1
   5  -1  -4 176.944 13.7914   5
  -5  -1   4 205.008 14.3608   2
  -5  -1   4 178.258 13.5339   3
   5  -1  -4 182.323 13.8113   2
  -5  -1   4 194.533 14.0495   5
   5   1  -4 186.726 13.7759   2
   5   1  -4 180.297 24.6623   1
  -5   1   4 158.189 14.0706   2
   5   1  -4 214.188 13.8270   5
  -5   1   4 180.522 13.9641   5
  -3  -1   4 819.157 62.7672   1
   3  -1  -4 683.699 49.7957   5
   3  -1  -4 710.195 49.8292   2
  -3  -1   4 716.790 50.2559   2
   3  -1  -4 705.700 59.2039   1
  -3  -1   4 702.500 50.0554   5
  -3   1   4 687.749 49.9535   5
  -3   1   4 671.240 50.0669   2
   3   1  -4 665.142 49.7898   5
   1  -1  -4 5076.00 369.008   4
  -1  -1   4 5640.34 378.670   1
  -1  -1   4 5107.78 369.314   5
  -1  -1   4 5423.25 369.520   2
   1  -1  -4 5133.27 376.370   1
   1   1  -4 5283.06 377.812   1
  -1   1   4 5206.70 369.283   2
   1   1  -4 5109.89 369.119   2
   1  -1   4 603.637 45.0213   2
  -1  -1  -4 582.660 50.7422   1
   1  -1   4 624.171 44.8677   5
  -1  -1  -4 561.812 44.5355   4
   1  -1   4 734.828 55.3234   1
  -1  -1  -4 614.013 44.4659   5
   1   1   4 625.459 52.7399   1
  -1   1  -4 679.211 53.5529   1
  -1   1  -4 646.994 44.7337   4
   1   1   4 585.477 44.7157   2
  -1   1  -4 684.922 44.6347   5
   1   1   4 600.002 44.6147   5
  -1   1  -4 666.743 44.6714   2
   3  -1   4 1212.37 82.8552   5
  -3  -1  -4 1218.30 88.8523   1
   3  -1   4 1081.66 91.6744   1
  -3  -1  -4 1262.18 82.3368   5
  -3  -1  -4 1129.42 82.5418   4
   3   1   4 1143.62 82.5988   2
   3   1   4 1271.21 90.7627   1
  -3   1  -4 1055.71 82.5750   4
   3   1   4 1129.95 82.5101   5
  -3   1  -4 1268.60 92.4081   1
  -3   1  -4 1000.50 82.4712   2
  -3   1  -4 1265.64 82.5236   5
   5  -1   4 500.771 36.5784   5
   5  -1   4 473.149 47.4271   1
  -5  -1  -4 551.517 35.9054   5
  -5  -1  -4 529.342 36.2800   4
  -5  -1  -4 481.805 35.9795   5
  -5  -1  -4 569.109 43.4649   1
   5  -1   4 507.698 36.8249   2
  -5  -1  -4 514.398 36.2575   3
   5   1   4 544.267 44.7889   1
  -5   1  -4 452.168 36.3119   4
  -5   1  -4 458.487 36.0953   5
  -5   1  -4 614.850 51.2692   1
   5   1   4 510.024 36.3106   2
  -5   1  -4 457.673 36.1377   2
   5   1   4 515.247 36.2196   5
   7  -1   4 364.747 43.9866   1
   7  -1   4 444.655 30.8678   5
   7  -1   4 423.411 31.0674   2
  -7  -1  -4 436.966 30.4305   3
  -7  -1  -4 467.165 30.4547   4
  -7  -1  -4 459.928 38.2175   1
   7   1   4 430.235 30.4029   5
   7   1   4 495.270 41.1511   1
  -7   1  -4 427.535 30.2427   5
  -7   1  -4 379.729 30.1968   2
  -7   1  -4 367.405 30.4578   4
  -7   1  -4 359.711 40.4492   1
  -9  -1  -4 674.150 59.8583   1
   9  -1   4 721.348 52.1571   2
  -9  -1  -4 749.137 51.4913   3
   9  -1   4 603.263 67.4061   1
  -9  -1  -4 828.144 51.5448   4
   9  -1   4 738.692 52.0119   5
  -9   1  -4 704.766 51.5689   4
   9   1   4 744.117 51.7140   2
  -9   1  -4 668.340 51.2010   2
  -9   1  -4 708.014 51.2210   5
   9   1   4 829.630 63.8798   1
  -9   1  -4 601.216 63.5176   1
   9   1   4 727.936 51.5463   5
 -11  -1  -4 297.137 20.6546   3
  11  -1   4 229.911 44.9618   1
  11  -1   4 288.507 21.7132   2
 -11  -1  -4 226.435 32.6765   1
 -11  -1  -4 300.716 20.5994   4
  11  -1   4 265.574 21.3469   5
 -11   1  -4 212.406 38.1493   1
  11   1   4 284.334 21.0319   5
 -11   1  -4 241.510 20.3000   2
 -11   1  -4 294.621 20.3678   5
  11   1   4 258.320 37.4886   1
 -11   1  -4 280.596 20.6736   3
  11   1   4 290.134 21.2136   2
 -11   1  -4 297.491 20.7841   4
  13  -1   4 353.418 30.4316   5
 -13  -1  -4 419.450 29.7240   3
 -13  -1  -4 392.771 29.5630   4
  13  -1   4 408.656 30.8267   2
  13   1   4 379.187 30.2011   5
 -13   1  -4 443.072 29.3766   5
  13   1   4 422.493 30.4818   2
 -13   1  -4 376.598 29.4239   2
 -13   1  -4 448.522 29.9297   3
 -15  -1  -4 35.4683 4.43013   4
  15  -1   4 29.9970 5.76849   5
 -15  -1  -4 32.3236 4.35499   3
  15  -1   4 21.3615 5.30139   2
 -15   1  -4 32.2535 4.49305   3
  15   1   4 46.7108 7.36932   5
  15   1   4 34.1048 6.02692   2
 -15   1  -4 34.5172 3.92010   5
  17  -1   4 134.971 14.3412   5
 -17  -1  -4 177.839 12.4218   4
 -17  -1  -4 164.565 12.5346   3
  17  -1   4 140.758 14.2366   2
 -17   1  -4 134.644 11.4059   5
 -17   1  -4 126.243 12.2086   3
  17   1   4 169.502 14.0931   2
  17   1   4 154.206 14.6275   5
  19  -1   4 129.151 14.5857   5
 -19  -1  -4 150.019 11.7920   3
  19  -1   4 129.819 13.7636   2
  19   1   4 141.047 14.6530   5
  19   1   4 141.220 13.5088   2
 -19   1  -4 114.670 11.5853   3
 -21  -1  -4 235.376 17.4640   3
  21  -1   4 193.951 18.8533   2
  21  -1   4 188.832 20.2755   5
  21   1   4 223.722 18.8741   2
 -21   1  -4 218.254 17.4189   3
 -23  -1  -4 607.453 45.3772   3
  23  -1   4 592.977 46.9435   2
 -23   1  -4 643.894 45.6392   3
  25  -1   4 90.6801 13.4302   2
 -25  -1  -4 115.638 10.8627   3
 -25   1  -4 103.535 10.7964   3
  25   1   4 116.897 13.9731   2
  27  -1   4 44.5848 9.91296   2
 -27  -1  -4 46.3885 7.01249   3
 -27   1  -4 32.6865 5.63347   3
  27   1   4 58.1820 9.75758   2
 -29  -1  -4 9.04688 5.57543   3
  29  -1   4 15.8515 8.73322   2
  29   1   4 9.52018 10.1674   2
 -29   1  -4 10.9571 4.43733   3
 -31  -1  -4 8.65912 5.59895   3
 -31   1  -4 1.39041 4.73727   3
  30  -2  -4 41.4557 6.81474   2
 -30  -2   4 24.4845 6.38291   3
 -28  -2   4 23.0002 5.66751   3
  28  -2  -4 19.9701 5.58136   2
  26  -2  -4 61.2248 8.86347   2
  26  -2  -4 48.1333 8.78262   5
 -26  -2   4 76.7580 8.31274   3
 -26   2   4 65.0956 8.74348   3
  26   2  -4 71.5720 8.89298   2
  24  -2  -4 177.970 16.6926   2
 -24  -2   4 189.629 15.8454   3
 -24   2   4 163.878 15.2070   3
  24   2  -4 217.119 16.7105   2
 -24   2   4 185.715 15.8141   5
  24   2  -4 209.970 18.1919   5
  22  -2  -4 52.6277 8.34017   2
 -22  -2   4 51.0348 7.08786   3
  22  -2  -4 49.7517 8.68243   5
 -22   2   4 62.4936 7.22168   5
 -22   2   4 55.7237 6.63287   3
  22   2  -4 68.5443 8.18901   2
  22   2  -4 55.6187 8.45111   5
 -20  -2   4 234.368 16.4291   3
  20  -2  -4 192.837 17.2358   5
  20  -2  -4 176.318 17.0722   2
  20   2  -4 220.813 17.2502   5
 -20   2   4 195.757 16.0441   5
 -20   2   4 187.816 15.5250   3
 -20   2   4 184.138 16.5596   2
 -18  -2   4 478.950 34.3129   3
  18  -2  -4 474.652 35.4536   2
  18  -2  -4 506.055 35.4932   5
 -18  -2   4 442.428 33.3480   5
 -18   2   4 473.369 34.2593   5
 -18   2   4 438.320 34.4042   2
 -18   2   4 464.677 33.7989   3
  18   2  -4 386.663 34.4732   2
  18   2  -4 509.171 34.8554   5
  16  -2  -4 104.765 10.5577   5
  16  -2  -4 84.7923 10.4638   2
 -16  -2   4 108.648 9.01604   5
 -16  -2   4 107.252 9.39206   3
  16   2  -4 112.741 10.1125   2
 -16   2   4 112.771 9.05786   3
  16   2  -4 113.666 10.0480   5
 -16   2   4 115.522 9.62265   5
 -16   2   4 115.865 10.0315   2
 -14  -2   4 193.217 14.1646   5
  14  -2  -4 121.095 41.2928   1
  14  -2  -4 184.155 15.3130   5
  14  -2  -4 177.796 15.3285   2
 -14  -2   4 173.755 14.2041   3
  14   2  -4 150.422 14.4513   2
  14   2  -4 192.868 14.6760   5
  14   2  -4 174.493 43.1800   1
 -14   2   4 198.648 14.8624   2
 -14   2   4 173.526 13.8878   3
 -14   2   4 220.256 14.7866   5
  12  -2  -4 144.785 11.7421   5
 -12  -2   4 129.646 11.6494   2
  12  -2  -4 146.804 11.7723   2
  12  -2  -4 109.518 35.9526   1
 -12  -2   4 125.552 10.6038   3
 -12  -2   4 137.153 10.8261   5
  12   2  -4 157.494 32.7936   1
  12   2  -4 143.336 11.0276   5
  12   2  -4 116.860 10.8662   2
  12   2  -4 92.5219 28.1175   1
 -12   2   4 151.441 11.2662   5
 -12   2   4 131.031 10.4188   3
 -12   2   4 144.404 11.3512   2
 -10  -2   4 169.722 14.2418   3
  10  -2  -4 221.127 15.2641   5
 -10  -2   4 170.212 15.0087   2
  10  -2  -4 200.600 15.1053   2
  10  -2  -4 192.985 41.0242   1
 -10  -2   4 196.845 14.6675   5
  10   2  -4 185.136 31.6357   1
 -10   2   4 183.315 14.1120   3
  10   2  -4 199.952 14.5878   5
  10   2  -4 167.864 36.0901   1
  10   2  -4 189.280 14.5833   2
 -10   2   4 213.924 15.0125   5
 -10   2   4 186.635 14.9913   2
   8  -2  -4 19.3793 2.59145   4
  -8  -2   4 22.5714 2.59235   3
  -8  -2   4 28.0695 4.25342   2
   8  -2  -4 24.4678 3.45410   5
   8  -2  -4 45.1408 18.9882   1
  -8  -2   4 22.2548 3.32977   5
   8  -2  -4 21.7324 3.41789   2
  -8   2   4 21.3432 3.50192   5
   8   2  -4 23.4772 15.8682   1
   8   2  -4 22.6878 2.86848   5
  -8   2   4 26.2526 3.74178   2
   8   2  -4 22.4687 2.83085   2
   8   2  -4 33.0431 15.2903   1
   6  -2  -4 41.4377 3.92264   2
   6  -2  -4 36.7394 3.48124   4
   6  -2  -4 36.9404 18.1948   1
  -6  -2   4 34.1349 3.47092   3
  -6  -2   4 28.5301 4.93719   2
  -6  -2   4 60.5298 16.7374   1
   6  -2  -4 52.7192 17.6364   1
  -6  -2   4 40.2882 4.16305   5
   6  -2  -4 42.1997 3.93743   5
   6   2  -4 49.8096 3.79115   2
   6   2  -4 18.7269 12.1202   1
  -6   2   4 36.9756 4.22289   5
  -6   2   4 38.3891 4.60087   2
   6   2  -4 42.1678 3.69990   5
  -4  -2   4 229.393 16.9736   3
  -4  -2   4 238.966 17.7784   2
  -4  -2   4 250.841 28.4371   1
   4  -2  -4 247.123 30.6109   1
   4  -2  -4 214.908 17.0502   2
   4  -2  -4 257.619 17.1457   5
   4  -2  -4 223.336 16.9276   4
  -4  -2   4 240.351 17.4327   5
   4  -2  -4 239.519 29.5119   1
   4   2  -4 237.274 17.0646   5
   4   2  -4 235.113 28.1249   1
   4   2  -4 241.280 17.0984   2
  -4   2   4 215.646 17.4364   2
  -4   2   4 231.324 17.3512   5
  -2  -2   4 416.921 30.0619   5
   2  -2  -4 405.724 29.6441   2
  -2  -2   4 398.659 39.2037   1
   2  -2  -4 460.043 29.6702   5
   2  -2  -4 454.943 39.8508   1
   2  -2  -4 418.244 40.4686   1
  -2  -2   4 432.119 29.7112   3
   2  -2  -4 396.793 29.6090   4
  -2   2   4 434.154 29.8824   5
   2   2  -4 381.963 39.3900   1
   2   2  -4 408.446 29.6985   5
   2   2  -4 374.365 29.6989   2
  -2   2   4 412.694 29.9888   2
   0  -2   4 23.4383 14.2307   1
   0  -2   4 23.6866 3.18623   5
   0  -2  -4 29.9391 2.29056   5
   0  -2  -4 28.3658 10.0805   1
   0  -2  -4 27.9782 9.51078   1
   0  -2   4 20.8448 3.59194   2
   0  -2  -4 18.8218 2.41862   4
   0   2  -4 24.5167 2.71487   2
   0   2   4 21.3257 3.03109   2
   0   2  -4 17.3843 15.3411   1
   0   2   4 23.0542 2.62431   5
   0   2  -4 26.8491 2.60910   5
   2  -2   4 19.9972 3.45212   2
  -2  -2  -4 16.8621 2.11875   4
  -2  -2  -4 16.7136 1.96342   5
   2  -2   4 15.9171 9.53049   1
  -2  -2  -4 15.0838 8.40505   1
  -2  -2  -4 23.7084 7.60720   1
   2  -2   4 24.7340 3.21409   5
  -2   2  -4 5.79383 9.14154   1
   2   2   4 17.1519 2.08185   5
  -2   2  -4 16.9747 2.29108   2
  -2   2  -4 16.4423 2.14831   5
   2   2   4 18.7258 2.50335   2
  -4  -2  -4 864.743 64.8727   1
  -4  -2  -4 837.988 59.7143   3
   4  -2   4 780.846 71.8264   1
   4  -2   4 878.445 60.6548   2
  -4  -2  -4 842.412 59.8044   4
   4  -2   4 868.905 60.3677   5
  -4   2  -4 822.521 70.9403   1
   4   2   4 816.490 59.6450   5
   4   2   4 829.370 59.7182   2
  -4   2  -4 910.596 59.8507   5
  -4   2  -4 802.089 59.8318   2
  -6  -2  -4 635.055 51.3301   1
   6  -2   4 656.694 47.2291   5
   6  -2   4 650.630 47.4686   2
   6  -2   4 651.517 62.7367   1
  -6  -2  -4 625.339 46.5549   3
  -6  -2  -4 625.709 46.5651   4
   6   2   4 631.931 46.4547   2
  -6   2  -4 704.880 46.6726   2
   6   2   4 656.847 46.4184   5
  -6   2  -4 715.884 46.6366   5
   6   2   4 657.632 53.4708   1
  -6   2  -4 612.895 58.9517   1
   8  -2   4 35.0156 5.71014   2
  -8  -2  -4 36.5571 3.92421   4
   8  -2   4 48.7705 22.0371   1
  -8  -2  -4 38.9609 4.16779   3
   8  -2   4 39.8446 5.43654   5
  -8  -2  -4 33.4986 10.0264   1
  -8   2  -4 30.3861 17.3625   1
   8   2   4 39.2100 12.3907   1
  -8   2  -4 41.8892 4.06258   2
   8   2   4 46.1115 4.31739   5
  -8   2  -4 46.5637 4.07803   5
  10  -2   4 201.667 16.8461   5
 -10  -2  -4 206.162 15.7346   4
 -10  -2  -4 186.150 24.3498   1
  10  -2   4 242.528 47.4191   1
  10  -2   4 211.616 17.1655   2
 -10  -2  -4 223.968 15.9326   3
 -10   2  -4 229.477 15.8241   5
 -10   2  -4 192.683 15.7309   2
  10   2   4 228.999 16.2425   2
  10   2   4 190.762 25.7377   1
 -10   2  -4 190.665 36.1016   1
  10   2   4 211.883 16.0321   5
 -12  -2  -4 190.493 14.0795   3
  12  -2   4 190.937 15.6315   2
  12  -2   4 192.558 15.4651   5
 -12  -2  -4 129.202 24.7725   1
 -12  -2  -4 173.571 13.8818   4
  12  -2   4 206.610 49.2269   1
  12   2   4 144.508 26.7436   1
 -12   2  -4 185.233 14.0286   2
 -12   2  -4 206.906 14.0493   5
 -12   2  -4 115.963 33.6194   1
  12   2   4 169.730 14.6077   5
  12   2   4 192.028 14.7799   2
 -14  -2  -4 179.083 14.3235   4
  14  -2   4 208.152 16.4237   2
 -14  -2  -4 196.789 14.5910   3
  14  -2   4 183.743 16.1166   5
 -14   2  -4 194.592 14.4118   5
 -14   2  -4 170.003 14.6199   2
  14   2   4 168.952 15.3772   5
  14   2   4 172.274 15.4285   2
 -14   2  -4 204.914 14.8221   3
 -16  -2  -4 43.1023 5.29208   3
  16  -2   4 51.7516 8.31108   2
 -16  -2  -4 41.4312 5.36748   4
  16  -2   4 53.0798 8.56435   5
  16   2   4 32.2421 6.63373   2
 -16   2  -4 49.8453 5.31961   5
 -16   2  -4 52.9786 5.81498   3
 -18  -2  -4 136.478 10.4408   4
 -18  -2  -4 118.216 10.3704   3
  18  -2   4 113.763 12.5550   2
  18  -2   4 116.811 13.1479   5
  18   2   4 116.099 11.9764   2
 -18   2  -4 107.178 9.89771   5
 -18   2  -4 111.848 10.5053   3
  20  -2   4 196.119 18.9902   5
 -20  -2  -4 190.944 16.0659   3
  20   2   4 205.906 17.4580   2
 -20   2  -4 200.477 15.3986   5
 -22  -2  -4 170.744 15.0193   3
 -22   2  -4 195.288 15.6080   3
  22   2   4 170.388 16.9472   2
  24  -2   4 163.693 15.9778   2
 -24  -2  -4 122.584 12.4375   3
 -24   2  -4 159.156 13.2074   3
  24   2   4 125.253 15.3790   2
  26  -2   4 26.1092 8.42790   2
 -26  -2  -4 19.8057 5.33158   3
  26   2   4 15.1942 9.08180   2
 -26   2  -4 27.1351 5.91304   3
  28  -2   4 14.8883 8.19135   2
 -28  -2  -4 15.3369 4.66830   3
 -28   2  -4 24.8877 5.92029   3
  28   2   4 12.7370 10.2955   2
 -30  -2  -4 12.3135 5.43163   3
  30  -2   4 12.8965 8.81497   2
 -30   2  -4 9.52809 4.90312   3
  31  -3  -4 125.220 12.4991   2
  29  -3  -4 182.337 15.2215   2
 -29  -3   4 150.338 14.5629   3
  29   3  -4 171.388 15.3386   2
 -27  -3   4 186.500 15.9475   3
  27  -3  -4 191.711 17.9779   5
  27   3  -4 188.049 16.3048   2
  25  -3  -4 310.418 24.3200   5
 -25  -3   4 270.412 22.8483   3
  25  -3  -4 312.402 23.9690   2
 -25   3   4 281.504 23.0664   5
  25   3  -4 287.167 23.2309   2
 -23  -3   4 548.495 41.8293   3
  23  -3  -4 592.808 42.9699   2
  23  -3  -4 575.353 42.9109   5
  23   3  -4 558.031 42.1152   2
 -23   3   4 542.559 41.7581   5
 -23   3   4 570.969 41.2175   3
  21  -3  -4 666.260 48.8868   5
  21  -3  -4 669.620 48.9496   2
 -21  -3   4 645.779 47.8270   3
  21   3  -4 593.554 48.2330   5
 -21   3   4 694.737 48.2347   2
 -21   3   4 695.116 47.8279   5
  21   3  -4 595.087 47.9423   2
 -21   3   4 648.196 47.1044   3
  19  -3  -4 887.382 61.3484   2
  19  -3  -4 900.262 61.3334   5
 -19  -3   4 788.219 60.0943   3
  19   3  -4 759.495 60.2654   2
 -19   3   4 833.697 60.3232   2
  19   3  -4 787.558 60.3798   5
 -19   3   4 881.716 60.1787   5
 -19   3   4 798.571 59.4206   3
  17  -3  -4 407.370 31.8443   5
 -17  -3   4 368.218 30.6858   3
  17  -3  -4 397.962 31.8583   2
 -17   3   4 429.659 30.2510   3
  17   3  -4 417.798 31.0976   2
  17   3  -4 388.858 30.9971   5
 -17   3   4 429.478 31.1268   2
 -17   3   4 465.985 31.0736   5
 -15  -3   4 462.172 32.9463   5
 -15  -3   4 466.137 33.8022   3
  15  -3  -4 446.697 34.7236   2
  15  -3  -4 445.492 97.8227   1
  15  -3  -4 426.969 34.6198   5
 -15   3   4 501.264 34.0952   5
  15   3  -4 493.632 34.0487   5
 -15   3   4 444.297 33.2353   3
 -15   3   4 462.009 34.0797   2
  15   3  -4 429.620 33.8991   2
  13  -3  -4 392.972 31.8368   2
 -13  -3   4 436.370 31.0778   3
  13  -3  -4 426.517 31.9989   5
 -13  -3   4 444.453 30.7750   5
  13  -3  -4 469.134 85.2174   1
  13   3  -4 419.596 31.1750   5
 -13   3   4 458.772 31.5497   5
 -13   3   4 383.406 30.6019   3
  13   3  -4 402.266 62.0792   1
 -13   3   4 401.417 82.2137   1
 -13   3   4 436.411 31.5494   2
 -11  -3   4 849.782 61.6137   3
  11  -3  -4 873.258 62.4043   5
  11  -3  -4 883.751 62.3623   2
 -11  -3   4 877.623 61.6403   5
  11   3  -4 752.548 78.1092   1
 -11   3   4 761.166 90.8724   1
  11   3  -4 827.589 82.9551   1
  11   3  -4 860.897 61.7470   2
 -11   3   4 891.465 62.1879   2
  11   3  -4 926.053 61.7796   5
 -11   3   4 925.578 62.1849   5
 -11   3   4 819.143 61.2712   3
   9  -3  -4 644.054 48.6503   4
  -9  -3   4 592.076 48.7502   5
   9  -3  -4 790.458 76.0830   1
  -9  -3   4 689.094 48.6739   3
   9  -3  -4 755.539 49.3008   2
   9  -3  -4 705.043 49.2712   5
   9   3  -4 636.484 48.6853   2
   9   3  -4 730.524 65.1885   1
   9   3  -4 650.943 48.6918   5
  -9   3   4 764.113 49.3378   5
  -9   3   4 686.768 49.2537   2
   9   3  -4 654.347 66.5993   1
  -9   3   4 578.601 72.1656   1
   7  -3  -4 4124.94 285.362   5
   7  -3  -4 4037.63 285.287   2
  -7  -3   4 4209.67 285.392   5
  -7  -3   4 4097.74 285.008   3
   7  -3  -4 4177.82 306.351   1
  -7  -3   4 3821.35 285.514   2
   7  -3  -4 3891.31 285.012   4
   7   3  -4 3912.96 285.074   2
  -7   3   4 4309.24 285.579   5
   7   3  -4 4113.38 285.074   5
  -7   3   4 3970.99 285.522   2
   7   3  -4 3951.96 299.526   1
  -7   3   4 3970.36 305.750   1
  -5  -3   4 1753.07 129.089   2
  -5  -3   4 1826.75 128.850   5
   5  -3  -4 1768.06 128.419   4
   5  -3  -4 1932.71 147.847   1
   5  -3  -4 1971.01 128.618   5
  -5  -3   4 1875.34 140.401   1
  -5  -3   4 1862.81 128.453   3
   5  -3  -4 1751.00 128.508   2
   5   3  -4 1919.72 128.490   5
   5   3  -4 1750.05 141.337   1
  -5   3   4 1689.10 128.847   2
   5   3  -4 1688.78 128.444   2
  -5   3   4 1876.07 128.874   5
  -3  -3   4 2077.08 149.606   1
   3  -3  -4 1992.35 137.752   5
  -3  -3   4 2085.72 138.333   5
   3  -3  -4 2050.29 154.573   1
  -3  -3   4 1922.62 138.544   2
  -3  -3   4 2009.35 137.842   3
   3  -3  -4 1845.38 137.710   2
   3  -3  -4 1796.72 137.740   4
  -3   3   4 1930.62 138.063   5
  -3   3   4 1884.35 138.143   2
   3   3  -4 1999.63 137.824   5
   3   3  -4 1983.37 150.376   1
   3   3  -4 1846.50 137.813   2
   1  -3  -4 2221.68 169.852   1
  -1  -3   4 2441.11 173.263   1
  -1  -3   4 2381.00 161.541   5
   1  -3  -4 2282.47 160.756   5
   1  -3  -4 2166.18 160.915   4
   1  -3  -4 2286.19 173.987   1
  -1  -3   4 2247.59 161.759   2
   1   3  -4 2216.37 161.002   2
   1   3  -4 2478.45 161.029   5
   1   3  -4 2351.88 173.791   1
  -1   3   4 2211.58 161.052   5
  -1   3   4 2125.61 161.129   2
  -1  -3  -4 484.256 35.4871   4
   1  -3   4 501.163 36.1487   5
  -1  -3  -4 473.762 42.3013   1
  -1  -3  -4 506.794 46.8283   1
  -1  -3  -4 495.127 35.1169   5
   1  -3   4 504.678 36.5515   2
   1   3   4 465.444 35.5445   2
  -1   3  -4 545.690 35.5754   5
  -1   3  -4 507.198 35.5999   2
   1   3   4 482.254 35.4504   5
   3  -3   4 1343.08 94.0661   2
   3  -3   4 1369.73 107.615   1
   3  -3   4 1378.59 93.7852   5
  -3  -3  -4 1295.34 93.0231   4
  -3  -3  -4 1224.66 92.7701   3
  -3  -3  -4 1334.99 101.054   1
  -3  -3  -4 1209.50 97.4800   1
   3   3   4 1201.29 92.7973   5
  -3   3  -4 1446.57 93.1776   2
  -3   3  -4 1460.09 93.1296   5
   3   3   4 1216.50 92.8766   2
   5  -3   4 654.757 42.8065   5
  -5  -3  -4 579.983 47.2187   1
  -5  -3  -4 554.777 41.5979   3
  -5  -3  -4 564.257 41.7449   4
  -5  -3  -4 569.258 45.1158   1
   5  -3   4 618.385 43.0269   2
   5  -3   4 669.110 61.0220   1
  -5   3  -4 611.052 41.8525   5
   5   3   4 529.526 41.4902   2
   5   3   4 549.219 41.4569   5
  -7  -3  -4 790.146 60.8020   3
   7  -3   4 937.804 84.7624   1
   7  -3   4 880.426 61.9186   5
   7  -3   4 860.642 62.1538   2
  -7  -3  -4 823.076 60.8749   4
  -7   3  -4 873.331 60.9874   5
  -7   3  -4 828.492 77.7984   1
   7   3   4 816.953 60.5928   2
  -7   3  -4 958.603 61.0715   2
   7   3   4 822.403 60.5715   5
   9  -3   4 41.9348 6.03405   5
   9  -3   4 27.3862 33.9254   1
   9  -3   4 39.4858 6.58643   2
  -9  -3  -4 38.9005 4.10596   3
  -9  -3  -4 36.4763 3.96879   4
  -9   3  -4 10.1944 35.1773   1
   9   3   4 42.4436 4.82501   5
  11  -3   4 433.726 78.7232   1
 -11  -3  -4 590.380 42.0245   3
 -11  -3  -4 617.842 41.9553   4
  11  -3   4 589.149 43.4505   2
  11  -3   4 589.118 43.2542   5
 -11   3  -4 511.044 41.9072   2
 -11   3  -4 630.118 42.1010   5
  11   3   4 558.202 41.9549   5
  11   3   4 616.510 42.0819   2
 -13  -3  -4 33.6155 3.96995   4
  13  -3   4 19.2419 5.14360   5
 -13  -3  -4 24.1959 3.87734   3
  13  -3   4 13.0060 5.07607   2
  13   3   4 24.5064 5.28067   2
 -13   3  -4 28.2863 4.16996   5
 -15  -3  -4 31.7724 4.13697   4
  15  -3   4 21.0204 5.88857   5
 -15  -3  -4 27.7322 4.19224   3
  15  -3   4 22.1999 5.73149   2
 -15   3  -4 15.9745 3.72856   5
  15   3   4 27.3916 5.57174   2
 -15   3  -4 18.1256 4.34998   2
 -15   3  -4 26.9779 4.75542   3
  17  -3   4 307.176 25.0257   5
 -17  -3  -4 297.769 22.9359   3
  17  -3   4 317.023 25.0286   2
 -17  -3  -4 265.825 22.6193   4
 -17   3  -4 249.230 23.0295   2
  17   3   4 318.325 23.5420   2
 -17   3  -4 326.736 23.3888   3
 -17   3  -4 337.791 22.9968   5
  19  -3   4 319.062 26.4803   5
  19  -3   4 333.890 26.4635   2
 -19  -3  -4 317.940 24.3126   3
  19   3   4 291.938 24.8026   2
 -19   3  -4 313.944 23.9860   5
 -19   3  -4 329.615 24.6531   3
 -21  -3  -4 1023.31 71.4076   3
  21  -3   4 1053.93 73.3164   5
  21  -3   4 1034.02 73.1586   2
 -21   3  -4 921.840 70.6349   5
 -21   3  -4 1051.48 71.7407   3
  21   3   4 853.816 71.2297   2
  23  -3   4 658.823 55.3998   5
  23  -3   4 797.728 55.4773   2
 -23  -3  -4 689.697 53.2467   3
 -23   3  -4 769.871 53.6240   3
  23   3   4 723.333 53.5835   2
  25  -3   4 240.902 27.0782   5
 -25  -3  -4 264.392 21.6172   3
  25  -3   4 306.540 24.3909   2
 -25   3  -4 274.871 21.8434   3
 -27  -3  -4 54.5592 8.08364   3
  27  -3   4 47.4702 9.96740   2
 -27   3  -4 43.1850 7.46590   3
  29  -3   4 13.0431 8.19438   2
 -29  -3  -4 14.3464 5.68087   3
 -31  -3  -4 7.50716 6.49158   3
 -30  -4   4 15.7612 8.05519   3
  30  -4  -4 19.8220 6.32214   2
  28  -4  -4 12.7394 5.58737   2
 -28  -4   4 11.7423 5.35883   3
  28   4  -4 14.7123 6.07900   2
  26  -4  -4 22.4104 7.16988   5
 -26  -4   4 36.7611 6.54175   3
  26  -4  -4 29.9903 6.69622   2
 -26   4   4 20.8454 6.82962   5
  26   4  -4 41.8681 6.90959   2
  24  -4  -4 41.6831 8.01598   5
  24  -4  -4 58.9541 8.77157   2
 -24  -4   4 49.8334 7.90542   3
  24   4  -4 71.2762 8.57670   2
 -24   4   4 57.4456 8.24422   5
  22  -4  -4 30.4015 6.82694   5
  22  -4  -4 32.5353 6.36869   4
  22  -4  -4 43.7712 7.80639   2
 -22  -4   4 50.1881 7.13504   3
 -22   4   4 41.8841 6.20841   5
 -22   4   4 35.4285 7.12171   2
  20  -4  -4 36.0350 6.86454   5
  20  -4  -4 41.5867 7.79122   2
 -20  -4   4 51.7427 7.17250   3
 -20   4   4 52.0116 6.72675   5
  20   4  -4 55.1988 7.12236   2
 -20   4   4 41.0584 6.52345   3
 -20   4   4 46.2599 7.14741   2
  18  -4  -4 12.6853 5.03922   2
  18  -4  -4 8.32351 4.20971   5
 -18  -4   4 7.45251 4.05225   3
 -18   4   4 6.03184 4.00691   2
 -18   4   4 9.28690 3.53515   5
  18   4  -4 7.89557 4.75709   5
  18   4  -4 3.58668 3.54852   2
 -18   4   4 8.80032 3.54966   3
 -16  -4   4 6.44851 3.07593   3
  16  -4  -4 8.76466 4.59100   2
  16  -4  -4 6.39577 4.03775   5
  16   4  -4 4.89705 3.54435   5
  16   4  -4 3.15259 3.04399   2
 -16   4   4 -1.1927 2.48522   5
 -16   4   4 3.31562 2.80714   3
 -16   4   4 4.45928 3.43849   2
  14  -4  -4 101.943 41.4736   1
 -14  -4   4 160.078 12.7626   3
  14  -4  -4 158.539 13.8080   5
  14  -4  -4 136.754 13.6886   2
 -14   4   4 146.601 12.0992   3
  14   4  -4 150.707 12.8081   5
  14   4  -4 177.772 12.8447   2
 -14   4   4 169.065 13.1836   5
 -14   4   4 4.13692 105.263   1
 -14   4   4 159.425 13.2065   2
  12  -4  -4 291.612 22.3814   2
  12  -4  -4 297.128 22.4280   5
 -12  -4   4 288.312 20.8161   5
  12  -4  -4 401.455 79.5619   1
 -12  -4   4 295.849 21.5569   3
 -12   4   4 337.569 78.0097   1
  12   4  -4 264.605 55.7737   1
 -12   4   4 296.815 22.1167   2
  12   4  -4 278.978 21.4960   5
 -12   4   4 263.449 21.0060   3
 -12   4   4 316.984 22.1352   5
  12   4  -4 254.777 21.4144   2
  10  -4  -4 43.3001 4.77227   4
  10  -4  -4 44.4496 5.59336   5
 -10  -4   4 46.0989 4.68678   3
  10  -4  -4 46.1034 5.72920   2
  10  -4  -4 98.0896 44.8560   1
 -10  -4   4 52.4455 4.86330   5
  10   4  -4 47.8633 4.81966   2
  10   4  -4 45.7633 4.81713   5
 -10   4   4 36.4653 4.59474   3
 -10   4   4 46.6856 5.60590   5
  10   4  -4 63.6457 28.6708   1
 -10   4   4 51.7010 5.69182   2
 -10   4   4 21.3740 36.2170   1
  -8  -4   4 54.6807 18.7834   1
   8  -4  -4 38.9824 4.19427   4
   8  -4  -4 39.8265 4.76108   2
   8  -4  -4 9.83828 47.2075   1
  -8  -4   4 42.3723 4.17623   3
  -8  -4   4 36.7393 4.58434   5
   8  -4  -4 39.1455 4.72724   5
  -8   4   4 38.6509 5.09117   2
  -8   4   4 39.6441 5.02130   5
   8   4  -4 41.1425 21.6430   1
   8   4  -4 42.2848 4.21743   2
   8   4  -4 44.0652 4.24795   5
  -8   4   4 52.6703 31.6942   1
   6  -4  -4 74.5270 28.4338   1
  -6  -4   4 47.0427 5.35531   5
  -6  -4   4 51.8893 7.43747   2
   6  -4  -4 54.1225 4.95198   5
   6  -4  -4 46.5237 4.91852   2
  -6  -4   4 54.8016 4.68883   3
  -6  -4   4 65.3687 19.8074   1
   6  -4  -4 49.7117 4.72684   4
   6   4  -4 74.2775 22.1880   1
   6   4  -4 55.7944 4.71946   5
  -6   4   4 44.8118 5.69046   2
  -6   4   4 38.6853 23.5535   1
   6   4  -4 54.4357 4.73454   2
  -6   4   4 41.9323 5.38817   5
   4  -4  -4 222.113 14.9730   5
  -4  -4   4 170.753 16.1857   2
  -4  -4   4 213.657 15.0277   3
  -4  -4   4 206.198 15.6529   5
   4  -4  -4 213.664 14.9487   2
   4  -4  -4 200.033 14.9615   4
   4  -4  -4 249.893 40.9214   1
  -4  -4   4 166.429 14.9101   4
  -4   4   4 206.595 33.2897   1
  -4   4   4 225.647 15.7166   2
  -4   4   4 222.852 15.6060   5
   4   4  -4 167.725 14.8612   2
   4   4  -4 174.076 32.2695   1
   2  -4  -4 1535.17 119.642   1
  -2  -4   4 1415.77 101.689   5
   2  -4  -4 1549.30 100.833   5
  -2  -4   4 1369.81 101.945   2
  -2  -4   4 1361.68 114.164   1
  -2  -4   4 1498.21 101.165   3
   2  -4  -4 1377.11 101.020   4
   2   4  -4 1341.04 100.989   5
  -2   4   4 1442.71 101.418   2
   2   4  -4 1344.44 101.041   2
   2   4  -4 1428.80 116.564   1
  -2   4   4 1480.36 101.332   5
   0  -4   4 666.544 52.2221   2
   0  -4  -4 762.568 50.7194   5
   0  -4  -4 720.034 60.7327   1
   0  -4  -4 749.188 51.1822   4
   0  -4  -4 717.824 65.7657   1
   0  -4   4 765.173 52.0818   5
   0  -4   4 675.840 64.7866   1
   0   4   4 729.893 51.2481   5
   0   4  -4 653.205 51.0900   5
   0   4  -4 719.240 66.8048   1
   0   4  -4 698.888 51.2011   2
   0   4   4 738.590 51.4129   2
  -2  -4  -4 568.533 52.3437   1
   2  -4   4 582.333 43.1639   2
  -2  -4  -4 611.059 41.8936   4
   2  -4   4 597.336 42.8737   5
   2  -4   4 565.672 58.4671   1
  -2  -4  -4 586.910 41.5675   3
  -2  -4  -4 556.623 48.3800   1
  -2   4  -4 574.234 41.8780   5
   2   4   4 607.520 41.9112   2
  -2   4  -4 544.807 58.6654   1
   2   4   4 589.837 41.7389   5
  -2   4  -4 596.245 41.9473   2
  -4  -4  -4 206.309 20.3309   1
   4  -4   4 170.325 37.1489   1
   4  -4   4 216.858 17.7030   2
  -4  -4  -4 208.191 15.5992   3
   4  -4   4 231.054 17.2836   5
  -4  -4  -4 229.789 15.9158   4
  -4  -4  -4 196.220 22.3762   1
  -4   4  -4 213.661 15.9540   2
   4   4   4 219.295 15.7263   2
   4   4   4 206.128 15.5599   5
  -4   4  -4 163.003 34.0121   1
  -4   4  -4 226.753 15.9923   5
   6  -4   4 4.24590 45.4782   1
   6  -4   4 4.92873 3.89907   2
  -6  -4  -4 9.53470 2.08266   3
   6  -4   4 10.0368 3.90794   5
  -6  -4  -4 8.48372 1.94160   4
  -6   4  -4 -6.9845 17.3338   1
   6   4   4 5.68840 2.08398   2
   6   4   4 8.31654 1.99403   5
  -6   4  -4 9.03628 2.10267   5
  -6   4  -4 7.03684 2.11881   2
   8  -4   4 242.493 74.6975   1
  -8  -4  -4 186.459 14.7454   4
  -8  -4  -4 184.509 14.6981   3
   8  -4   4 209.164 16.8961   2
   8  -4   4 206.227 16.5491   5
  -8   4  -4 202.833 15.0156   5
  -8   4  -4 192.016 14.9356   2
  -8   4  -4 228.874 54.4043   1
 -10  -4  -4 652.059 47.9109   4
 -10  -4  -4 589.918 47.8909   3
  10  -4   4 672.274 49.4147   5
  10  -4   4 661.175 49.6216   2
  10  -4   4 619.263 94.3747   1
 -10   4  -4 702.429 48.1889   5
 -10   4  -4 681.792 97.0605   1
 -10   4  -4 738.646 48.2180   2
  12  -4   4 206.712 88.4679   1
 -12  -4  -4 160.436 12.5003   4
 -12  -4  -4 158.677 12.5983   3
  12  -4   4 148.903 14.7423   2
  12  -4   4 164.961 14.5498   5
 -12   4  -4 156.056 12.7556   2
  14  -4   4 85.3803 10.0870   2
 -14  -4  -4 72.3855 7.21215   3
  14  -4   4 87.0616 10.0727   5
 -14  -4  -4 69.2036 7.03275   4
 -14   4  -4 83.6173 7.78359   5
 -14   4  -4 72.7310 7.80242   2
  16  -4   4 40.1281 8.15152   2
 -16  -4  -4 68.1274 6.52716   3
 -16  -4  -4 63.7508 6.23122   4
  16  -4   4 39.9858 8.30232   5
 -16   4  -4 51.9873 7.42949   2
  16   4   4 61.8710 8.92315   2
 -16   4  -4 55.5703 6.70891   5
  18  -4   4 189.229 18.9195   5
 -18  -4  -4 215.144 16.8773   3
 -18  -4  -4 217.933 16.5590   4
  18  -4   4 191.954 18.6942   2
  18   4   4 250.873 20.6430   2
 -18   4  -4 225.989 17.2484   3
 -18   4  -4 198.835 16.7024   5
 -18   4  -4 188.151 17.2893   2
 -20  -4  -4 212.174 16.4016   3
 -20  -4  -4 219.256 16.0738   4
  20  -4   4 194.679 18.3213   2
  20  -4   4 157.183 18.5585   5
 -20   4  -4 186.876 16.0909   5
  22  -4   4 585.193 43.6747   2
  22  -4   4 474.083 43.4974   5
 -22  -4  -4 584.625 41.1418   4
 -22  -4  -4 652.580 41.9014   3
 -22   4  -4 505.795 41.0422   5
 -22   4  -4 556.669 41.7575   3
  24  -4   4 233.712 21.8812   2
 -24  -4  -4 273.561 19.7682   3
  24  -4   4 190.285 23.4001   5
 -24   4  -4 243.380 19.6379   3
 -26  -4  -4 69.6372 9.21913   3
  26  -4   4 77.9106 12.3815   2
 -26   4  -4 76.8719 9.03967   3
  28  -4   4 9.16420 7.53866   2
 -28  -4  -4 11.3560 5.45560   3
 -28   4  -4 6.88056 5.03176   3
 -30  -4  -4 3.01925 5.27220   3
  30  -4   4 -1.4833 8.27591   2
 -29  -5   4 3.95607 5.49347   3
  29  -5  -4 3.21702 5.79665   2
 -27  -5   4 43.6322 7.34759   3
  27  -5  -4 37.1725 7.41553   2
  27   5  -4 56.0437 8.20530   2
  25  -5  -4 96.0199 13.4161   5
 -25  -5   4 130.795 12.1639   3
  25  -5  -4 126.143 12.7545   2
  25   5  -4 154.668 12.6253   2
 -25   5   4 101.284 12.6183   5
  23  -5  -4 136.829 14.5835   5
  23  -5  -4 130.095 13.4353   4
 -23  -5   4 146.756 13.4014   3
  23  -5  -4 154.093 14.1505   2
 -23   5   4 135.717 14.4511   2
 -23   5   4 136.420 13.0550   5
  21  -5  -4 560.900 42.9784   2
  21  -5  -4 554.329 42.9770   5
  21  -5  -4 492.002 41.7736   4
 -21  -5   4 565.404 42.2238   3
 -21   5   4 577.615 42.3910   2
  21   5  -4 625.212 42.1222   2
 -21   5   4 576.926 42.0681   5
  19  -5  -4 278.390 23.7560   4
 -19  -5   4 295.984 23.9913   3
  19  -5  -4 285.542 24.8122   2
  19  -5  -4 304.974 24.9893   5
 -19   5   4 298.779 23.9156   5
  19   5  -4 342.070 24.0264   2
 -19   5   4 331.683 24.3040   2
  17  -5  -4 515.308 37.4338   5
 -17  -5   4 452.081 36.1971   3
  17  -5  -4 515.381 37.3817   2
  17  -5  -4 461.449 36.1967   4
  17   5  -4 520.400 36.2750   2
 -17   5   4 484.074 35.3813   3
  17   5  -4 414.607 36.3573   5
 -17   5   4 505.097 36.5837   2
 -17   5   4 509.571 36.4660   5
  15  -5  -4 398.399 31.0291   2
  15  -5  -4 396.746 30.1300   4
 -15  -5   4 394.350 30.0655   3
  15  -5  -4 420.690 31.1595   5
 -15   5   4 367.095 29.2286   3
  15   5  -4 418.394 30.0341   2
 -15   5   4 442.218 30.6323   2
  15   5  -4 362.568 29.9783   5
 -15   5   4 415.285 30.3908   5
  13  -5  -4 42.2211 6.90157   2
 -13  -5   4 38.2279 5.29060   3
  13  -5  -4 39.8562 5.39608   4
  13  -5  -4 39.9265 6.38618   5
 -13   5   4 38.7199 5.05390   3
  13   5  -4 42.4950 5.87645   5
 -13   5   4 41.4639 6.12365   2
  13   5  -4 39.6500 5.28006   2
 -13   5   4 50.4078 6.18785   5
  11  -5  -4 89.7192 8.94612   5
 -11  -5   4 89.6115 8.23054   3
  11  -5  -4 94.3740 8.37241   4
  11  -5  -4 97.6850 9.13826   2
  11  -5  -4 88.6110 43.3039   1
  11   5  -4 86.3899 8.23393   5
 -11   5   4 85.9495 7.78629   3
  11   5  -4 100.217 8.23825   2
 -11   5   4 101.738 9.07444   5
 -11   5   4 92.6962 8.93276   2
 -11   5   4 29.1559 46.9112   1
  11   5  -4 67.6321 39.6326   1
   9  -5  -4 2.00333 2.76686   2
  -9  -5   4 4.25280 2.09434   5
   9  -5  -4 11.8150 30.9007   1
  -9  -5   4 8.06351 2.39546   3
   9  -5  -4 5.26612 2.21988   4
   9  -5  -4 1.74303 2.22187   5
   9   5  -4 0.79467 29.4537   1
  -9   5   4 3.54699 2.82682   5
  -9   5   4 -23.782 40.5420   1
   9   5  -4 3.86348 2.00349   2
   9   5  -4 2.39484 1.99819   5
  -9   5   4 1.17184 2.70614   2
  -7  -5   4 74.3866 6.08088   4
   7  -5  -4 92.4704 39.5097   1
  -7  -5   4 76.7855 7.11417   5
   7  -5  -4 76.1931 6.71398   4
  -7  -5   4 81.4590 6.66539   3
  -7  -5   4 74.0812 21.4111   1
   7  -5  -4 82.1289 6.92750   5
   7  -5  -4 62.3842 6.82581   2
   7   5  -4 74.5483 28.8240   1
   7   5  -4 75.4546 6.63917   2
  -7   5   4 71.9055 7.47543   2
  -7   5   4 59.0272 36.5720   1
   7   5  -4 85.9063 6.74381   5
  -7   5   4 73.5440 7.53490   5
  -5  -5   4 59.5333 6.18819   5
   5  -5  -4 35.9678 28.0762   1
  -5  -5   4 60.4844 5.11042   3
   5  -5  -4 54.7539 5.30126   2
  -5  -5   4 48.2241 4.55779   4
   5  -5  -4 53.8461 4.96677   5
   5  -5  -4 57.3353 5.05070   4
  -5  -5   4 74.9970 22.6854   1
  -5   5   4 44.9274 5.95261   5
   5   5  -4 66.9472 24.7032   1
  -5   5   4 48.4072 5.94228   2
   5   5  -4 52.3686 5.01859   2
  -5   5   4 49.4768 27.7752   1
   5   5  -4 50.5739 4.99411   5
   3  -5  -4 231.764 43.8644   1
  -3  -5   4 252.592 17.5104   3
  -3  -5   4 236.213 18.2965   5
  -3  -5   4 235.629 18.9473   2
   3  -5  -4 241.969 17.3829   4
  -3  -5   4 237.308 17.0766   4
   3  -5  -4 256.761 17.0731   5
   3   5  -4 222.150 17.2840   5
  -3   5   4 207.154 37.8594   1
  -3   5   4 219.089 17.9090   2
  -3   5   4 216.445 17.8327   5
   3   5  -4 216.986 17.3205   2
   3   5  -4 221.602 40.5863   1
   1  -5  -4 1431.88 95.6864   4
   1  -5  -4 1437.49 95.1020   5
   1  -5  -4 1244.00 95.3002   5
  -1  -5   4 1328.50 112.302   1
   1  -5  -4 1340.69 112.743   1
  -1  -5   4 1308.30 96.7092   2
  -1  -5   4 1438.10 96.6530   5
  -1   5   4 1396.64 95.9004   5
   1   5  -4 1345.87 115.994   1
   1   5  -4 1308.00 95.6327   2
  -1   5   4 1327.62 95.9631   2
   1   5  -4 1264.79 95.5455   5
   1  -5   4 853.120 87.2792   1
   1  -5   4 962.754 71.0753   2
  -1  -5  -4 1029.03 69.7450   4
  -1  -5  -4 887.199 78.4930   1
  -1  -5  -4 1047.48 69.4290   3
  -1  -5  -4 931.656 81.8931   1
   1  -5   4 1057.30 70.9903   5
   1   5   4 1003.78 69.7433   5
  -1   5  -4 1016.55 91.9328   1
  -1   5  -4 958.797 69.6996   5
   1   5   4 1008.67 69.9144   2
  -1   5  -4 938.492 69.7353   2
  -3  -5  -4 1523.73 123.504   1
   3  -5   4 1989.43 147.790   1
   3  -5   4 1786.85 119.196   5
   3  -5   4 1670.26 119.295   2
  -3  -5  -4 1697.83 117.519   3
  -3  -5  -4 1684.68 117.822   4
  -3  -5  -4 1428.21 121.994   1
  -3   5  -4 1821.99 117.944   5
  -3   5  -4 1518.89 138.238   1
   3   5   4 1710.74 117.738   2
  -3   5  -4 1535.70 117.823   2
   3   5   4 1656.37 117.569   5
  -5  -5  -4 550.233 39.6610   4
   5  -5   4 571.759 41.5642   2
   5  -5   4 582.466 41.2762   5
  -5  -5  -4 528.297 39.4069   3
  -5   5  -4 570.368 39.8778   2
   5   5   4 526.461 39.3370   2
  -5   5  -4 481.109 66.2508   1
   5   5   4 513.635 39.2364   5
  -5   5  -4 599.407 39.8778   5
   7  -5   4 353.219 69.7358   1
  -7  -5  -4 246.536 19.1440   4
   7  -5   4 256.174 21.3432   2
   7  -5   4 277.301 21.1412   5
  -7  -5  -4 251.676 19.0400   3
  -7   5  -4 217.529 60.5008   1
   7   5   4 229.649 18.7265   2
  -7   5  -4 290.625 19.5356   2
  -9  -5  -4 64.6380 6.21236   3
   9  -5   4 71.7715 9.55563   2
   9  -5   4 79.3680 79.6130   1
   9  -5   4 69.3017 8.97382   5
  -9  -5  -4 65.3407 6.09101   4
  -9   5  -4 22.3043 42.7310   1
  11  -5   4 82.4679 10.1821   2
  11  -5   4 85.2714 9.87935   5
 -11  -5  -4 77.1943 7.13182   4
  11  -5   4 67.8251 66.4957   1
 -11  -5  -4 73.0991 7.22538   3
 -11   5  -4 76.7964 7.66407   5
 -11   5  -4 2.13444 42.8318   1
 -11   5  -4 85.5097 7.70333   2
  13  -5   4 32.5207 6.87922   5
  13  -5   4 26.1825 6.62511   2
 -13  -5  -4 30.5341 4.59434   4
 -13  -5  -4 40.1860 5.42907   3
 -13   5  -4 25.7265 5.03031   2
 -13   5  -4 27.0543 4.70680   5
 -15  -5  -4 11.2156 3.46615   3
  15  -5   4 23.4402 6.52107   5
  15  -5   4 15.5029 6.00766   2
 -15  -5  -4 13.6302 3.37256   4
 -15   5  -4 14.4699 4.05808   5
 -15   5  -4 16.7309 4.39009   2
  17  -5   4 101.288 12.9243   5
 -17  -5  -4 124.020 10.4750   3
  17  -5   4 91.7827 12.4653   2
 -17  -5  -4 122.913 10.0550   4
 -17   5  -4 106.344 10.5847   5
 -17   5  -4 99.5703 10.2020   3
 -17   5  -4 99.2387 11.0427   2
  19  -5   4 98.8026 12.8402   2
 -19  -5  -4 122.959 10.3884   4
 -19  -5  -4 127.149 10.9270   3
  19  -5   4 95.4727 13.6308   5
 -19   5  -4 83.4554 11.8120   2
 -19   5  -4 122.089 10.8456   3
 -19   5  -4 95.9399 10.7082   5
 -21  -5  -4 64.7580 7.82306   4
  21  -5   4 48.0960 10.1594   5
  21  -5   4 36.1466 9.08760   2
 -21  -5  -4 85.4199 8.65425   3
 -21   5  -4 64.4978 8.03378   3
  23  -5   4 48.1163 9.68464   2
  23  -5   4 27.7914 10.5429   5
 -23  -5  -4 64.8092 8.28298   3
 -23   5  -4 59.3437 7.84400   3
  25  -5   4 28.7171 8.65623   2
 -25  -5  -4 35.7372 6.64579   3
 -25   5  -4 43.2745 6.95968   3
  27  -5   4 15.6668 8.38041   2
 -27  -5  -4 12.1078 5.57225   3
 -27   5  -4 10.7529 5.22768   3
  29  -5   4 22.5032 9.48368   2
 -29  -5  -4 51.6112 7.86791   3
 -29   5  -4 51.2176 7.54206   3
  28  -6  -4 129.332 13.2251   2
 -28  -6   4 123.631 12.5731   3
  26  -6  -4 164.680 15.1776   2
 -26  -6   4 154.519 14.3763   3
  24  -6  -4 209.544 17.9089   4
 -24  -6   4 208.939 17.7315   3
  24  -6  -4 223.327 19.0793   5
  24  -6  -4 230.710 18.7255   2
 -24   6   4 209.656 18.0918   5
  24   6  -4 172.333 17.7646   2
 -24   6   4 202.079 19.3132   2
 -22  -6   4 236.046 21.0528   3
  22  -6  -4 281.933 22.3652   5
  22  -6  -4 242.571 20.8480   4
  22  -6  -4 284.373 22.1017   2
 -22   6   4 251.538 21.5367   2
  22   6  -4 234.856 20.7368   2
 -22   6   4 269.185 21.0583   5
 -20  -6   4 140.422 13.9969   3
  20  -6  -4 170.564 15.2270   2
  20  -6  -4 145.815 13.8881   4
  20  -6  -4 165.923 15.3799   5
 -20   6   4 163.068 14.4407   2
  20   6  -4 122.862 13.4434   2
 -20   6   4 157.579 13.8779   5
  18  -6  -4 134.349 13.3295   4
 -18  -6   4 133.503 13.3677   3
  18  -6  -4 160.208 14.6989   2
  18  -6  -4 162.743 14.8911   5
 -18   6   4 165.941 13.6776   5
  18   6  -4 131.579 13.0597   2
 -18   6   4 153.164 13.8166   2
 -16  -6   4 164.529 14.2500   3
  16  -6  -4 164.442 15.1144   5
  16  -6  -4 167.210 15.2899   2
  16  -6  -4 142.799 13.9823   4
  16   6  -4 173.166 14.0357   2
 -16   6   4 167.213 14.3617   5
 -16   6   4 162.863 14.5199   2
  14  -6  -4 65.6724 8.04585   4
  14  -6  -4 87.2863 9.64953   2
  14  -6  -4 78.4051 9.10307   5
 -14  -6   4 81.1774 8.08837   3
 -14   6   4 69.4119 8.51573   5
 -14   6   4 70.5448 8.60605   2
  14   6  -4 81.7170 8.00989   2
  14   6  -4 69.2922 9.02483   5
  12  -6  -4 430.992 32.5774   5
 -12  -6   4 437.034 32.0226   3
  12  -6  -4 437.824 32.5577   2
  12  -6  -4 421.105 32.1215   4
 -12   6   4 423.760 32.4778   2
  12   6  -4 397.900 31.8557   5
 -12   6   4 432.827 32.5142   5
  12   6  -4 460.199 31.9259   2
  10  -6  -4 390.770 29.8500   2
  10  -6  -4 362.419 29.5954   4
 -10  -6   4 418.633 29.6396   3
  10  -6  -4 440.882 30.1201   5
 -10   6   4 439.501 30.4474   2
 -10   6   4 394.026 30.2205   5
  10   6  -4 381.926 29.4646   5
  10   6  -4 372.671 29.4195   2
   8  -6  -4 808.275 53.5496   5
   8  -6  -4 755.103 53.4713   4
  -8  -6   4 752.849 53.3731   3
   8  -6  -4 699.857 53.2981   2
   8   6  -4 677.271 53.1639   5
  -8   6   4 730.543 54.0009   5
   8   6  -4 738.343 53.2871   2
  -8   6   4 763.372 54.0647   2
   6  -6  -4 846.257 57.4572   4
  -6  -6   4 786.831 57.1554   5
   6  -6  -4 751.137 57.0790   2
  -6  -6   4 826.433 57.4079   3
   6  -6  -4 854.060 57.2399   5
  -6  -6   4 827.314 56.7558   4
  -6   6   4 820.769 58.0556   2
   6   6  -4 772.018 88.5500   1
  -6   6   4 770.379 97.5935   1
   6   6  -4 749.673 57.2458   2
  -6   6   4 771.650 57.9515   5
   6   6  -4 775.078 57.2247   5
  -4  -6   4 1812.82 123.235   5
  -4  -6   4 1796.77 122.947   3
  -4  -6   4 1744.30 142.797   1
   4  -6  -4 1838.91 122.448   5
   4  -6  -4 1477.93 148.409   1
   4  -6  -4 1814.06 122.897   4
  -4  -6   4 1818.62 122.423   4
  -4   6   4 1590.18 146.877   1
  -4   6   4 1659.85 123.293   5
   4   6  -4 1706.52 122.705   5
  -4   6   4 1739.11 123.413   2
   4   6  -4 1607.29 148.187   1
   4   6  -4 1743.82 122.811   2
   2  -6  -4 960.292 102.003   1
  -2  -6   4 1067.52 80.9266   2
  -2  -6   4 1128.43 80.9962   5
   2  -6  -4 1178.74 80.2649   4
  -2  -6   4 1187.46 80.0127   4
   2  -6  -4 1160.18 79.5346   5
  -2   6   4 1118.71 80.6025   5
   2   6  -4 1180.52 80.2616   2
   2   6  -4 1144.32 80.1718   5
   2   6  -4 1070.73 107.744   1
  -2   6   4 1094.75 80.6637   2
   0  -6  -4 1601.73 107.373   4
   0  -6   4 1369.38 127.886   1
   0  -6   4 1454.44 108.347   2
   0  -6  -4 1254.59 120.885   1
   0  -6   4 1565.24 108.482   5
   0   6  -4 1480.47 135.687   1
   0   6   4 1515.50 107.631   2
   0   6   4 1530.87 107.502   5
   0   6  -4 1656.02 107.473   2
   0   6  -4 1584.75 107.354   5
  -2  -6  -4 581.955 42.0949   3
   2  -6   4 578.987 44.0498   2
  -2  -6  -4 591.251 42.4194   4
   2  -6   4 605.659 43.9579   5
   2  -6   4 542.097 73.7807   1
  -2   6  -4 610.180 42.5245   5
   2   6   4 570.672 42.5335   2
   2   6   4 545.679 42.3282   5
  -2   6  -4 538.716 76.5957   1
  -2   6  -4 653.125 42.6088   2
   4  -6   4 108.997 10.6813   5
  -4  -6  -4 93.4546 7.92838   4
   4  -6   4 95.7197 11.1593   2
  -4  -6  -4 96.7719 7.75306   3
   4  -6   4 80.0943 42.5978   1
   4   6   4 76.4663 8.17117   5
   4   6   4 81.7577 8.26804   2
  -4   6  -4 83.9840 43.7939   1
  -4   6  -4 108.020 8.29459   2
   6  -6   4 16.5713 5.53150   5
   6  -6   4 -22.915 46.1789   1
  -6  -6  -4 19.0887 3.15759   3
   6  -6   4 23.4299 6.47285   2
  -6  -6  -4 13.1735 2.77817   4
  -6   6  -4 -8.5583 36.4976   1
   6   6   4 13.2934 3.45171   2
  -6   6  -4 19.2621 3.62399   2
  -6   6  -4 23.0519 3.74977   5
  -8  -6  -4 16.4945 3.40191   3
   8  -6   4 22.3989 6.40331   2
   8  -6   4 71.8289 90.7271   1
  -8  -6  -4 20.0160 3.41200   4
   8  -6   4 28.7245 6.41304   5
  -8   6  -4 26.6127 4.29468   5
  -8   6  -4 28.3594 4.30469   2
  -8   6  -4 52.9306 48.4125   1
  10  -6   4 13.9214 5.92065   2
 -10  -6  -4 18.2123 3.26584   4
  10  -6   4 10.1261 5.41906   5
 -10  -6  -4 13.8020 3.32871   3
  12  -6   4 22.1846 6.44440   5
 -12  -6  -4 21.2787 3.92948   4
 -12  -6  -4 18.1261 3.98058   3
  12  -6   4 15.5034 6.08800   2
 -12   6  -4 15.0795 3.70419   2
  14  -6   4 153.287 15.3297   5
  14  -6   4 161.698 15.7360   2
 -14  -6  -4 138.433 12.9150   3
 -14  -6  -4 131.391 12.1989   4
 -14   6  -4 161.650 13.2718   2
 -14   6  -4 153.928 13.2345   5
 -16  -6  -4 117.054 10.9278   3
 -16  -6  -4 97.8042 10.0293   4
  16  -6   4 120.599 13.6189   2
  16  -6   4 104.930 13.0898   5
 -16   6  -4 118.432 11.4749   2
 -16   6  -4 104.939 11.0286   5
 -18  -6  -4 146.898 13.7501   4
 -18  -6  -4 180.026 14.8389   3
 -18   6  -4 165.818 14.8251   5
 -18   6  -4 158.468 15.3515   2
 -20  -6  -4 155.154 14.2476   3
  20  -6   4 171.897 17.4873   5
  20  -6   4 179.932 16.9130   2
 -20  -6  -4 128.659 13.1705   4
 -20   6  -4 138.195 15.4022   2
 -20   6  -4 146.896 14.2067   5
 -22  -6  -4 83.7751 10.7948   4
  22  -6   4 143.849 14.5573   2
 -22  -6  -4 116.311 11.6744   3
  22  -6   4 120.136 15.8018   5
 -22   6  -4 132.136 11.5630   3
 -22   6  -4 95.1738 11.9452   5
  24  -6   4 209.395 18.9196   2
 -24  -6  -4 181.166 16.4654   3
 -24   6  -4 179.713 16.0895   3
 -26  -6  -4 47.3372 7.94190   3
  26  -6   4 65.4607 10.6074   2
 -26   6  -4 59.8568 8.23822   3
 -28  -6  -4 24.0486 7.15488   3
  28  -6   4 25.2800 8.34209   2
 -28   6  -4 18.7796 7.77439   3
  27  -7  -4 21.3535 10.8384   2
 -27  -7   4 17.3509 6.11963   3
  25  -7  -4 12.3862 7.02561   2
 -25  -7   4 25.6068 6.23112   3
 -23  -7   4 48.5743 7.70868   3
  23  -7  -4 37.6382 8.30017   2
  23  -7  -4 53.4269 7.77185   4
  23  -7  -4 40.4745 8.71418   5
  23   7  -4 61.7575 8.51473   2
 -23   7   4 40.1666 7.85216   5
 -23   7   4 29.2572 8.05264   2
 -21  -7   4 116.319 11.7143   3
  21  -7  -4 101.725 11.4320   4
  21  -7  -4 99.3969 12.9623   2
  21  -7  -4 109.056 13.3169   5
 -21   7   4 104.081 11.5747   5
 -21   7   4 114.369 12.3548   2
  21   7  -4 117.962 11.9798   2
  19  -7  -4 10.6199 6.37841   5
 -19  -7   4 14.5994 5.38540   3
  19  -7  -4 10.6260 5.01580   4
  19  -7  -4 14.9345 6.86939   2
  19   7  -4 19.4775 5.79527   2
 -19   7   4 7.88530 5.28347   2
 -19   7   4 18.3304 5.45229   5
  17  -7  -4 10.7630 4.69705   4
  17  -7  -4 9.54881 6.04950   2
 -17  -7   4 11.3683 5.23665   3
  17  -7  -4 5.96873 5.49303   5
 -17   7   4 11.4811 4.50336   5
 -17   7   4 4.47309 4.55236   2
  17   7  -4 6.14741 4.79421   2
 -15  -7   4 8.54709 4.29548   3
  15  -7  -4 2.37866 4.78153   5
  15  -7  -4 4.66314 3.56078   4
  15  -7  -4 9.67785 5.90622   2
 -15   7   4 8.32799 4.74504   2
  15   7  -4 9.47940 4.23338   2
 -15   7   4 11.3911 4.56283   5
 -13  -7   4 275.696 23.0036   3
  13  -7  -4 296.468 23.2212   4
  13  -7  -4 310.082 23.7362   5
  13  -7  -4 282.413 23.6410   2
  13   7  -4 293.212 22.8902   2
 -13   7   4 315.839 23.7233   2
 -13   7   4 303.617 23.7915   5
  11  -7  -4 116.178 11.6662   2
 -11  -7   4 123.436 10.9201   3
  11  -7  -4 123.686 11.3165   5
  11  -7  -4 125.779 11.1147   4
 -11   7   4 115.394 11.8397   5
  11   7  -4 118.345 11.6046   5
  11   7  -4 132.706 11.0545   2
 -11   7   4 129.853 11.9082   2
   9  -7  -4 119.901 10.6206   4
   9  -7  -4 120.838 10.6403   5
   9  -7  -4 108.221 11.0377   2
  -9  -7   4 121.029 10.5393   3
   9   7  -4 120.831 10.8737   5
  -9   7   4 123.940 11.7857   5
   9   7  -4 139.926 10.6926   2
  -9   7   4 119.781 11.4381   2
  -7  -7   4 14.8669 3.19724   3
   7  -7  -4 18.6014 3.50110   4
   7  -7  -4 0.57499 4.79730   2
   7  -7  -4 23.9391 3.51202   5
  -7   7   4 15.1789 4.29320   2
   7   7  -4 14.1686 3.62459   5
   7   7  -4 13.1710 3.23815   2
  -7   7   4 20.6538 5.12936   5
  -5  -7   4 259.529 19.5125   5
   5  -7  -4 284.522 20.2386   4
  -5  -7   4 263.009 19.5756   4
  -5  -7   4 267.170 20.2007   3
   5  -7  -4 281.600 19.5754   5
   5   7  -4 236.036 20.0027   5
   5   7  -4 255.756 20.0488   2
  -5   7   4 268.468 21.1061   5
  -5   7   4 268.305 20.9916   2
  -3  -7   4 561.233 42.0979   5
   3  -7  -4 574.522 41.0842   5
   3  -7  -4 616.409 42.1041   4
  -3  -7   4 620.343 41.7038   4
  -3   7   4 577.181 42.6847   2
   3   7  -4 572.127 41.9801   2
   3   7  -4 542.817 41.8936   5
  -3   7   4 560.743 42.6061   5
  -1  -7   4 265.794 19.5603   4
  -1  -7   4 271.286 20.6471   5
   1  -7  -4 184.397 65.0247   1
   1  -7  -4 265.069 19.7012   4
  -1   7   4 250.029 20.3523   5
   1   7  -4 260.320 19.7218   5
   1   7  -4 249.445 19.6962   2
  -1   7   4 269.134 20.4504   2
  -1  -7  -4 508.928 35.4377   4
   1  -7   4 492.504 36.6610   5
   1  -7   4 449.562 36.8591   2
  -1  -7  -4 359.324 59.8349   1
  -1   7  -4 470.454 35.4815   5
   1   7   4 517.498 35.8556   2
   1   7   4 482.924 35.6838   5
  -1   7  -4 517.558 35.5882   2
  -3  -7  -4 127.262 10.3821   3
  -3  -7  -4 139.088 10.6179   4
   3  -7   4 129.369 12.8330   5
   3  -7   4 125.415 13.8360   2
  -3   7  -4 122.112 10.7504   5
   3   7   4 110.950 11.1251   5
   3   7   4 135.531 11.1872   2
  -3   7  -4 134.444 10.8319   2
  -5  -7  -4 38.3823 4.81174   4
   5  -7   4 55.9151 8.58826   5
   5  -7   4 42.8844 8.08569   2
  -5  -7  -4 39.7593 5.01949   3
  -5   7  -4 49.5223 5.59204   5
  -5   7  -4 38.9851 5.15448   2
   5   7   4 36.7992 6.14929   2
   7  -7   4 39.2235 8.18310   2
  -7  -7  -4 45.3096 5.39260   3
  -7  -7  -4 41.6610 5.08986   4
   7  -7   4 41.2272 7.87015   5
  -7   7  -4 41.2776 5.67738   5
  -7   7  -4 46.0547 5.50534   2
   7   7   4 43.0653 6.31186   2
  -9  -7  -4 4.35334 2.53359   4
   9  -7   4 0.94415 5.18932   5
   9  -7   4 -2.8170 5.83061   2
  -9  -7  -4 5.02896 3.01836   3
  -9   7  -4 5.78971 3.45323   5
  -9   7  -4 4.02443 3.00431   2
  11  -7   4 123.719 15.0201   2
  11  -7   4 136.137 14.5075   5
 -11  -7  -4 132.340 11.8346   3
 -11  -7  -4 142.479 11.4581   4
 -11   7  -4 137.463 12.0885   2
  13  -7   4 18.5907 6.70325   5
  13  -7   4 26.6183 7.83847   2
 -13  -7  -4 15.6688 3.83992   4
 -13  -7  -4 18.4892 4.73328   3
 -13   7  -4 23.5498 5.11256   2
 -13   7  -4 27.1915 5.53598   5
  15  -7   4 30.3254 8.00512   2
 -15  -7  -4 18.2058 4.29622   4
  15  -7   4 26.1609 7.43084   5
 -15  -7  -4 21.7963 5.68792   3
 -15   7  -4 27.8454 5.78293   2
 -15   7  -4 31.9555 5.59443   5
 -17  -7  -4 108.398 9.70238   4
  17  -7   4 79.5619 12.5016   2
  17  -7   4 82.3785 12.6657   5
 -17  -7  -4 90.3789 10.2294   3
 -17   7  -4 88.4281 10.6634   2
 -17   7  -4 74.1417 10.3078   5
  19  -7   4 99.1144 14.3829   5
  19  -7   4 127.803 14.3421   2
 -19  -7  -4 126.977 12.1024   3
 -19  -7  -4 107.818 10.8755   4
 -19   7  -4 96.0916 12.7421   2
 -19   7  -4 126.977 11.4793   3
 -19   7  -4 104.596 11.8848   5
 -21  -7  -4 246.615 19.0127   3
  21  -7   4 237.841 20.8866   2
  21  -7   4 201.924 21.0900   5
 -21  -7  -4 229.678 18.2763   4
 -21   7  -4 239.179 18.4903   3
 -21   7  -4 181.063 20.2847   2
 -21   7  -4 194.996 18.7881   5
 -23  -7  -4 137.698 13.2015   3
  23  -7   4 107.977 14.9205   2
 -23   7  -4 135.866 12.5070   3
  25  -7   4 33.1307 9.09601   2
 -25  -7  -4 54.8284 7.82303   3
 -25   7  -4 40.9389 7.08710   3
  27  -7   4 19.9369 9.63094   2
 -27  -7  -4 32.7828 9.61882   3
 -26  -8   4 52.2204 7.63392   3
 -24  -8   4 116.090 11.3389   3
  24  -8  -4 79.6287 12.7515   2
  24  -8  -4 99.1945 11.6409   4
 -24   8   4 94.6920 14.3401   2
 -22  -8   4 189.379 16.2883   3
  22  -8  -4 162.955 18.1001   2
  22  -8  -4 174.098 15.8477   4
 -22   8   4 186.118 17.1033   2
 -20  -8   4 234.783 20.4674   3
  20  -8  -4 228.810 20.2009   4
  20  -8  -4 254.499 22.1915   2
  20  -8  -4 244.687 21.4123   5
 -20   8   4 230.512 20.6319   5
  20   8  -4 239.760 20.1325   2
 -20   8   4 266.421 20.8565   2
  18  -8  -4 286.089 24.8699   2
  18  -8  -4 289.932 24.2628   5
  18  -8  -4 276.663 23.1996   4
 -18  -8   4 285.533 23.5189   3
 -18   8   4 320.571 23.9546   2
 -18   8   4 280.776 23.5596   5
  18   8  -4 280.657 22.8461   2
  16  -8  -4 231.667 22.4285   2
  16  -8  -4 256.417 21.1871   4
  16  -8  -4 269.035 21.9179   5
 -16  -8   4 222.023 21.0021   3
 -16   8   4 298.547 21.9555   2
  16   8  -4 271.729 20.9126   2
 -16   8   4 260.569 21.7515   5
  14  -8  -4 40.9163 8.30800   2
  14  -8  -4 34.2073 6.20770   4
 -14  -8   4 48.8813 7.42223   3
  14  -8  -4 42.9735 7.19436   5
 -14   8   4 40.3360 7.26006   2
  14   8  -4 37.7377 6.29058   2
 -14   8   4 39.7778 7.66560   5
  12  -8  -4 119.277 11.2713   5
 -12  -8   4 100.753 10.5856   3
  12  -8  -4 124.308 11.0401   4
 -12   8   4 114.145 11.6863   2
  12   8  -4 101.025 10.6534   2
 -12   8   4 113.384 12.3460   5
  10  -8  -4 0.84971 3.38863   5
 -10  -8   4 5.26498 2.84760   3
  10  -8  -4 3.40424 3.30017   4
 -10   8   4 2.80220 3.92638   2
 -10   8   4 -2.8408 4.41811   5
  10   8  -4 -0.3381 3.41017   2
  -8  -8   4 27.8435 5.10396   3
   8  -8  -4 27.4638 4.83820   4
   8  -8  -4 28.0627 4.72784   5
   8   8  -4 22.7209 4.69242   2
  -8   8   4 26.6737 6.08437   5
  -8   8   4 18.1114 5.03141   2
   8   8  -4 19.4203 5.34724   5
   6  -8  -4 226.713 17.2892   4
   6  -8  -4 208.476 16.3082   5
   6   8  -4 230.508 17.2701   2
   6   8  -4 211.736 17.5211   5
  -6   8   4 213.791 18.6284   5
  -6   8   4 212.649 18.2534   2
   4  -8  -4 312.884 24.6989   4
  -4  -8   4 340.782 24.3184   4
  -4   8   4 319.505 25.9846   5
  -4   8   4 331.213 25.7101   2
   4   8  -4 348.077 24.8797   2
   4   8  -4 311.718 24.8578   5
  -2  -8   4 717.767 46.6671   4
  -2  -8   4 607.507 46.4574   5
   2  -8  -4 673.227 46.9250   4
  -2   8   4 626.371 47.4983   2
  -2   8   4 585.210 47.4336   5
   2   8  -4 635.761 46.9563   5
   2   8  -4 659.650 46.9430   2
   0  -8  -4 753.047 53.8155   4
   0  -8   4 738.112 54.1474   5
   0  -8   4 766.178 53.7253   4
   0   8   4 743.260 54.2987   2
   0   8  -4 776.630 54.0601   2
   0   8  -4 742.941 53.9950   5
   0   8   4 684.519 54.1459   5
   2  -8   4 916.523 62.4751   4
   2  -8   4 866.263 63.2573   5
  -2  -8  -4 816.822 62.2740   4
   2   8   4 858.936 62.5272   2
  -2   8  -4 843.510 62.5593   5
  -2   8  -4 891.981 62.5976   2
  -4  -8  -4 637.586 46.3075   4
   4  -8   4 605.246 47.9420   2
   4  -8   4 668.208 47.8576   5
  -4  -8  -4 562.783 45.9236   3
  -4   8  -4 678.033 46.7381   5
  -4   8  -4 681.055 46.6473   2
   4   8   4 626.930 46.2779   2
   6  -8   4 293.684 25.4133   2
  -6  -8  -4 282.642 22.3563   4
  -6  -8  -4 261.867 22.1674   3
   6  -8   4 332.255 24.8442   5
  -6   8  -4 319.980 22.8880   2
   6   8   4 272.353 22.3323   2
  -6   8  -4 314.513 22.9998   5
   8  -8   4 194.849 19.5510   2
  -8  -8  -4 178.005 15.5217   4
   8  -8   4 214.517 18.7175   5
  -8  -8  -4 177.370 15.7348   3
  -8   8  -4 217.100 16.5768   5
  -8   8  -4 207.521 16.2755   2
  10  -8   4 8.98378 7.68125   2
  10  -8   4 15.4695 6.74727   5
 -10  -8  -4 17.6323 4.68200   3
 -10   8  -4 13.2413 4.48500   2
  12  -8   4 47.4142 9.32662   5
  12  -8   4 46.1265 9.69747   2
 -12  -8  -4 51.2420 8.01172   3
 -12  -8  -4 53.4079 6.81976   4
 -12   8  -4 55.6045 8.22271   5
 -12   8  -4 65.4755 8.07197   2
  14  -8   4 1.16953 6.14633   5
 -14  -8  -4 8.79418 3.86574   4
 -14  -8  -4 4.23590 5.43126   3
  14  -8   4 6.01337 8.22993   2
 -14   8  -4 2.26926 4.36448   5
 -14   8  -4 2.70524 4.66176   2
  16  -8   4 18.2329 8.10118   5
 -16  -8  -4 23.5762 6.58160   3
 -16  -8  -4 26.7336 5.24610   4
  16  -8   4 19.2931 8.89369   2
 -16   8  -4 14.6545 6.14072   5
 -16   8  -4 24.6864 6.16436   2
 -18  -8  -4 95.9509 10.8811   3
  18  -8   4 88.0206 13.9013   2
  18  -8   4 85.2333 13.7162   5
 -18   8  -4 77.9498 9.55157   3
 -18   8  -4 81.8394 10.9311   5
 -18   8  -4 78.3359 11.3286   2
  20  -8   4 113.346 15.0322   2
 -20  -8  -4 130.748 12.6285   3
 -20  -8  -4 123.085 11.4768   4
 -20   8  -4 75.2809 13.6351   2
 -20   8  -4 88.6736 12.4598   5
 -20   8  -4 115.993 11.5065   3
 -22  -8  -4 63.3873 10.1835   4
 -22  -8  -4 55.7076 8.41850   3
  22  -8   4 35.2312 9.96416   2
 -22   8  -4 35.3999 6.51432   3
  24  -8   4 0.28344 8.40227   2
 -24  -8  -4 2.87287 6.56032   3
 -24   8  -4 0.88750 4.91945   3
  23  -9  -4 27.1026 7.87763   4
 -23  -9   4 23.2980 6.72068   3
 -23   9   4 15.4915 8.27288   2
 -21  -9   4 21.7726 6.83088   3
  21  -9  -4 29.0186 6.80968   4
 -21   9   4 17.9060 7.13332   2
 -19  -9   4 10.8450 5.54801   3
  19  -9  -4 10.3876 5.51592   4
 -19   9   4 7.62313 6.28284   2
 -17  -9   4 7.56894 5.13849   3
  17  -9  -4 -1.5219 6.71564   5
  17  -9  -4 0.71861 4.68269   4
 -17   9   4 6.48408 5.90083   2
  17   9  -4 1.44872 6.13953   2
 -17   9   4 -1.9839 6.19893   5
  15  -9  -4 3.93770 5.96449   5
  15  -9  -4 4.06347 4.50139   4
 -15  -9   4 5.08973 4.51101   3
  15   9  -4 2.77561 5.32110   2
 -15   9   4 2.04494 5.90845   5
 -15   9   4 4.92739 5.44651   2
 -13  -9   4 114.074 11.1426   3
  13  -9  -4 108.835 11.0543   4
  13  -9  -4 93.9286 11.1889   5
 -13   9   4 99.1920 12.6851   5
  13   9  -4 90.6239 11.1660   2
 -13   9   4 120.723 12.2907   2
 -11  -9   4 87.6773 9.68501   3
  11  -9  -4 104.023 10.0384   4
  11  -9  -4 89.7538 9.94741   5
 -11   9   4 81.1670 12.3062   5
 -11   9   4 93.4388 11.2777   2
  11   9  -4 100.589 10.2567   2
   9  -9  -4 83.4796 8.82766   5
   9  -9  -4 92.4575 9.35629   4
  -9   9   4 86.0523 12.1171   5
   9   9  -4 91.7046 9.60144   2
  -9   9   4 96.4763 10.9964   2
   7  -9  -4 197.943 15.8703   4
   7   9  -4 187.433 15.7778   2
   7   9  -4 161.854 21.7859   5
  -7   9   4 185.426 17.8653   5
  -7   9   4 200.518 17.3212   2
  -5  -9   4 872.853 69.6252   4
   5  -9  -4 1030.14 70.5863   4
  -5   9   4 1059.59 71.6245   2
   5   9  -4 915.805 70.6836   5
   5   9  -4 1030.50 70.6113   2
  -5   9   4 948.741 71.4739   5
  -3  -9   4 185.249 14.1997   4
   3  -9  -4 163.927 14.3380   4
  -3   9   4 163.612 16.8388   5
   3   9  -4 182.108 14.8091   2
   3   9  -4 162.233 15.6274   5
  -3   9   4 182.842 15.9483   2
  -1  -9   4 112.107 10.0144   4
   1  -9  -4 112.343 9.94160   4
   1   9  -4 117.489 10.3720   2
   1   9  -4 107.501 11.3145   5
  -1   9   4 87.8055 13.4350   5
  -1   9   4 100.432 11.5176   2
   1  -9   4 82.2478 8.46106   4
   1  -9   4 75.0021 9.33127   5
  -1  -9  -4 77.3589 8.20442   4
   1   9   4 84.3109 10.2391   2
  -1   9  -4 100.836 8.86063   2
  -1   9  -4 83.2811 9.64616   5
   3  -9   4 16.9446 4.54117   4
  -3  -9  -4 16.8183 3.82706   4
   3  -9   4 10.9777 5.40426   5
  -3   9  -4 18.8247 4.98149   5
  -3   9  -4 14.4971 3.96901   2
   3   9   4 22.1283 5.83562   2
   5  -9   4 22.5128 6.52580   5
  -5  -9  -4 19.8775 4.21408   4
   5  -9   4 30.7839 5.57924   4
   5   9   4 24.0183 6.08219   2
  -5   9  -4 30.7822 5.32278   2
  -5   9  -4 32.8276 5.93906   5
  -7  -9  -4 53.0440 7.26541   3
  -7  -9  -4 39.6506 6.26749   4
   7  -9   4 48.4292 8.62007   5
  -7   9  -4 51.8437 7.13294   2
  -7   9  -4 52.1159 7.54364   5
   9  -9   4 42.4425 11.6082   2
  -9  -9  -4 56.4863 7.70446   3
   9  -9   4 53.9268 9.26553   5
  -9  -9  -4 41.3190 6.51297   4
  -9   9  -4 59.2758 7.74161   2
  11  -9   4 56.7892 10.4385   5
 -11  -9  -4 54.9896 7.40507   4
 -11  -9  -4 65.2811 9.03628   3
  11  -9   4 78.8796 12.8567   2
 -11   9  -4 64.0431 9.47008   5
 -11   9  -4 72.9565 8.91856   2
  13  -9   4 40.5616 11.3112   2
 -13  -9  -4 33.1116 5.94593   4
 -13  -9  -4 45.5928 7.64558   3
  13  -9   4 50.2641 9.80331   5
 -13   9  -4 59.4337 9.10479   5
  15  -9   4 39.1262 9.82670   5
 -15  -9  -4 64.1125 8.26919   4
 -15  -9  -4 44.8162 8.19229   3
  15  -9   4 52.5247 12.3446   2
 -15   9  -4 60.1225 10.2360   5
 -15   9  -4 59.6942 9.34318   2
  17  -9   4 32.5821 9.22275   5
  17  -9   4 37.3051 11.1472   2
 -17   9  -4 30.4653 7.43707   5
 -17   9  -4 41.4670 8.03860   2
 -19  -9  -4 40.7929 7.92976   4
  19  -9   4 51.8452 12.2339   2
 -19   9  -4 79.1449 11.4169   2
 -19   9  -4 66.9701 8.78974   3
 -21  -9  -4 44.8310 8.55616   3
  21  -9   4 46.8433 12.0338   2
 -21   9  -4 29.3318 11.0762   2
 -23  -9  -4 7.27069 7.83428   3
 -23   9  -4 2.64674 9.30552   3
  20 -10  -4 0.22041 5.29455   4
 -20 -10   4 2.05436 5.53561   3
 -20  10   4 11.9410 6.97135   2
  18 -10  -4 2.91367 5.10055   4
 -18 -10   4 0.98087 5.58943   3
 -18  10   4 0.27853 5.91116   2
 -16 -10   4 101.262 11.7083   3
  16 -10  -4 98.7166 11.2951   4
 -16  10   4 113.403 12.7035   2
  14 -10  -4 61.6846 9.08993   4
  14 -10  -4 47.8610 9.44227   5
  14  10  -4 68.0840 8.94387   2
 -14  10   4 70.9985 10.2411   2
 -14  10   4 79.4299 11.0863   5
  12 -10  -4 3.01712 4.28778   4
 -12  10   4 11.6172 8.23549   5
 -12  10   4 6.14706 6.17298   2
  12  10  -4 4.67141 5.81154   2
  10 -10  -4 29.7949 5.52203   4
 -10  10   4 42.4949 9.56614   5
 -10  10   4 46.4273 8.48295   2
  10  10  -4 50.7994 7.66776   2
   8 -10  -4 33.8750 5.87569   4
  -8  10   4 38.4087 8.24615   2
  -8  10   4 29.9387 9.35018   5
   8  10  -4 33.9560 6.59394   2
   6 -10  -4 41.3036 6.49014   4
  -6  10   4 25.0004 9.54280   5
   6  10  -4 24.7168 6.19550   2
  -6  10   4 40.4041 8.14263   2
   4 -10  -4 113.784 9.83416   4
  -4 -10   4 91.5225 9.65539   4
  -4  10   4 124.600 12.5325   2
  -4  10   4 78.7762 13.2688   5
   4  10  -4 85.0859 10.0850   2
   4  10  -4 66.6753 11.9402   5
   2 -10  -4 147.889 12.3836   4
  -2 -10   4 141.503 12.2522   4
  -2  10   4 149.285 14.5381   2
   2  10  -4 135.323 12.8404   2
   2  10  -4 107.078 14.8669   5
   0 -10   4 42.6473 6.85287   4
   0 -10  -4 49.1871 6.52402   4
   0  10  -4 34.2412 7.80056   5
   0  10   4 57.9907 8.70338   2
   0  10  -4 49.9925 7.47651   2
   2 -10   4 96.2941 9.75796   4
  -2 -10  -4 96.1813 9.40865   4
  -2  10  -4 102.597 10.3694   2
   2  10   4 105.374 11.7396   2
  -2  10  -4 78.2684 11.7334   5
  -4 -10  -4 28.3778 5.19786   4
   4 -10   4 39.2553 7.17460   5
   4 -10   4 42.6103 7.02586   4
  -4  10  -4 43.4072 7.12271   5
   4  10   4 33.6601 7.78857   2
  -4  10  -4 52.2782 7.57381   2
   6 -10   4 2.85214 6.80882   5
  -6 -10  -4 4.04931 3.61533   4
   6 -10   4 0.53614 4.27190   4
  -6  10  -4 5.60496 4.59023   2
   8 -10   4 55.4980 8.06075   4
  -8 -10  -4 48.3872 7.04079   4
   8 -10   4 41.9140 9.18862   5
  -8  10  -4 53.6771 8.14807   2
  -8  10  -4 38.9972 8.25533   5
  10 -10   4 12.5810 8.05303   5
 -10 -10  -4 12.6331 6.19186   3
  10 -10   4 7.74507 4.69103   4
 -10 -10  -4 9.27824 4.24643   4
 -10  10  -4 14.0571 5.76938   2
 -10  10  -4 13.6755 7.21118   5
 -12 -10  -4 17.9822 5.11076   4
  12 -10   4 24.8701 6.32477   4
  12 -10   4 20.1763 9.18324   5
 -12 -10  -4 11.7613 6.99702   3
 -12  10  -4 22.7611 6.56760   2
 -12  10  -4 16.2745 7.05604   5
 -14 -10  -4 19.2734 8.21126   3
  14 -10   4 8.21609 5.62894   4
 -14 -10  -4 12.8569 5.23166   4
  14 -10   4 2.83648 9.12593   5
 -14  10  -4 4.32508 6.92423   5
 -14  10  -4 10.0890 5.94261   2
 -16 -10  -4 10.5090 8.01392   3
 -16 -10  -4 7.91388 6.30861   4
  16 -10   4 2.16673 5.61291   4
  16 -10   4 13.7199 18.8273   2
 -16  10  -4 10.4471 6.86715   2
  18 -10   4 4.92899 6.08972   4
 -18 -10  -4 0.83991 7.82370   4
 -18 -10  -4 -2.8486 7.68603   3
 -18  10  -4 1.49575 4.68075   3
 -18  10  -4 -1.0336 7.06417   2
  20 -10   4 22.2449 6.52571   4
 -20 -10  -4 15.9472 9.71778   3
 -20  10  -4 2.66659 18.4826   2
 -20  10  -4 22.7831 6.25950   3
  19 -11  -4 145.056 15.4954   4
 -19  11   4 151.370 15.6902   2
  17 -11  -4 216.925 17.2591   4
 -17  11   4 170.798 17.9388   2
  15 -11  -4 30.3241 6.62356   4
 -15  11   4 47.8626 8.56318   2
  13 -11  -4 14.7729 5.21530   4
  13  11  -4 2.09772 9.88672   2
 -13  11   4 5.39571 6.73788   2
  11 -11  -4 3.64669 4.82021   4
  11  11  -4 3.11088 6.16251   2
 -11  11   4 10.6768 6.99909   2
   9 -11  -4 21.0984 5.16457   4
   9  11  -4 12.4139 6.17189   2
  -9  11   4 24.9876 13.2359   5
  -9  11   4 14.7823 7.41484   2
   7 -11  -4 60.3339 8.13450   4
   7  11  -4 60.3956 9.88172   2
  -7  11   4 60.8807 10.5335   2
   5 -11  -4 234.619 18.9757   4
   5  11  -4 225.615 19.6632   2
  -5  11   4 229.993 21.0832   2
  -3 -11   4 484.259 38.4152   4
   3 -11  -4 535.333 39.0818   4
   3  11  -4 513.563 39.5256   2
  -3  11   4 556.821 40.5169   2
   1 -11  -4 661.378 47.6992   4
  -1 -11   4 620.444 47.2041   4
   1  11  -4 691.153 48.4845   2
   1  11  -4 513.812 56.2389   5
  -1  11   4 697.321 48.7763   2
  -1 -11  -4 554.511 43.0653   4
   1 -11   4 596.198 42.9831   4
  -1  11  -4 533.188 45.1497   5
  -1  11  -4 634.075 44.0563   2
   1  11   4 589.993 43.8649   2
  -3 -11  -4 245.230 20.2411   4
   3 -11   4 259.265 20.4214   4
   3  11   4 213.020 21.4518   2
  -3  11  -4 291.427 21.6244   2
  -5 -11  -4 92.2467 10.4433   4
   5 -11   4 118.954 11.1912   4
  -5  11  -4 126.242 12.2190   2
  -7 -11  -4 105.868 11.3027   4
   7 -11   4 114.767 12.0362   4
  -7  11  -4 137.815 12.9026   2
  -7  11  -4 108.813 16.0467   5
   9 -11   4 8.61837 10.7557   5
  -9 -11  -4 12.4822 4.84626   4
   9 -11   4 12.6437 5.85632   4
  -9  11  -4 17.3733 9.11134   5
  -9  11  -4 22.8289 6.61543   2
 -11 -11  -4 10.9544 5.40786   4
  11 -11   4 12.2370 5.98877   4
 -11  11  -4 14.5830 6.39788   2
  13 -11   4 6.29571 6.02389   4
 -13 -11  -4 7.83582 6.01077   4
 -13  11  -4 10.9410 6.25700   2
 -15 -11  -4 11.6422 7.38297   4
  15 -11   4 4.72921 6.26089   4
 -15  11  -4 5.30499 6.31691   2
  17 -11   4 16.9857 7.34132   4
 -17  11  -4 10.4350 5.84575   3
 -17  11  -4 18.6508 7.97866   2
  19 -11   4 40.4839 8.54960   4
  16 -12  -4 83.5973 13.5385   4
 -16  12   4 51.0248 10.3501   2
  14 -12  -4 14.5309 5.48916   4
 -14  12   4 9.57588 7.84753   2
  12 -12  -4 53.8363 7.98618   4
 -12  12   4 48.9630 10.2179   2
  10 -12  -4 31.3380 6.00889   4
 -10  12   4 42.5396 9.68135   2
  10  12  -4 47.5181 9.44765   2
   8 -12  -4 57.2505 8.49507   4
  -8  12   4 80.8587 11.9347   2
   8  12  -4 66.9357 10.0566   2
   6 -12  -4 13.1273 4.87679   4
   6  12  -4 21.5971 7.37230   2
  -6  12   4 18.7403 8.64775   2
   4 -12  -4 32.1547 6.40156   4
  -4  12   4 22.9342 9.20203   2
   4  12  -4 26.8648 7.54619   2
   2 -12  -4 4.55633 4.25398   4
   2  12  -4 2.08127 6.43663   2
  -2  12   4 4.53943 8.52536   2
   0 -12   4 2.55669 6.23797   4
   0 -12  -4 8.77426 4.62463   4
   0  12   4 4.59211 8.94960   2
   0  12  -4 10.2777 6.93612   2
   2 -12   4 -3.7203 5.72317   4
  -2 -12  -4 9.28627 4.56681   4
   2  12   4 16.5958 9.89617   2
  -2  12  -4 -1.4356 6.09947   2
   4 -12   4 -4.5436 5.55157   4
  -4 -12  -4 0.82597 4.35151   4
  -4  12  -4 -1.0502 5.85303   2
  -6 -12  -4 10.6008 5.06713   4
   6 -12   4 16.2013 5.96979   4
  -6  12  -4 15.4497 7.09730   2
  -8 -12  -4 8.86895 5.51921   4
   8 -12   4 5.67811 5.53117   4
  -8  12  -4 11.9700 6.71508   2
  10 -12   4 34.6570 7.18029   4
 -10 -12  -4 27.4895 7.04254   4
 -10  12  -4 37.6939 7.74320   2
 -12 -12  -4 15.3965 7.22389   4
  12 -12   4 14.4518 6.42026   4
 -12  12  -4 23.0422 7.30005   2
  14 -12   4 18.9704 6.72864   4
 -14  12  -4 26.3418 7.77168   2
  11 -13  -4 -1.7896 5.75988   4
 -11  13   4 12.8865 12.8934   2
   9 -13  -4 20.1141 6.01359   4
  -9  13   4 30.8173 10.1068   2
   7 -13  -4 17.0122 5.50709   4
  -7  13   4 13.2014 9.93480   2
   5 -13  -4 54.5348 7.98905   4
   5  13  -4 45.2333 10.0413   2
  -5  13   4 53.6465 11.4929   2
   3 -13  -4 27.2775 6.00226   4
  -3  13   4 37.9834 11.1420   2
   3  13  -4 36.7436 8.98782   2
   1 -13  -4 17.8838 5.23119   4
   1  13  -4 5.21051 7.94893   2
  -1  13   4 20.2837 11.5615   2
  -1 -13  -4 9.51745 5.10039   4
  -1  13  -4 11.8810 7.92373   2
  -3 -13  -4 -4.1358 4.87974   4
   3 -13   4 -5.1563 10.9134   4
  -3  13  -4 -5.5388 7.50795   2
   5 -13   4 -2.2069 9.91810   4
  -5 -13  -4 -5.0949 5.32640   4
  -5  13  -4 -5.7167 7.18427   2
  -7 -13  -4 4.19701 6.02316   4
   7 -13   4 14.2299 10.7443   4
  -7  13  -4 3.48758 7.01096   2
  -9  13  -4 -3.2105 7.01266   2
  30   0  -5 96.6127 10.5432   2
  28   0  -5 42.1064 7.05113   2
 -26   0   5 92.6903 10.9457   3
  26   0  -5 91.3581 13.1890   5
  26   0  -5 124.679 11.4931   2
  24   0  -5 67.9773 8.90440   2
  24   0  -5 71.8128 10.2729   5
 -24   0   5 60.7743 8.48552   3
  22   0  -5 53.0133 7.74346   2
  22   0  -5 63.8927 8.79161   5
 -22   0   5 43.3364 6.83581   5
 -22   0   5 36.6889 6.42521   3
  20   0  -5 119.539 11.9838   5
 -20   0   5 122.714 10.5514   5
 -20   0   5 104.608 10.5430   3
  20   0  -5 115.879 11.7102   2
 -18   0   5 14.0988 3.64010   3
 -18   0   5 6.23128 5.07031   2
 -18   0   5 15.6565 3.63038   5
  18   0  -5 10.8562 4.14882   2
  18   0  -5 10.7727 4.37595   5
 -16   0   5 26.6633 4.42435   5
  16   0  -5 24.5314 4.61970   5
  16   0  -5 28.4599 5.28983   2
 -16   0   5 26.1579 3.91108   3
 -16   0   5 26.0405 5.11536   2
  14   0  -5 5.51096 2.86331   5
 -14   0   5 7.81920 2.45727   3
  14   0  -5 -45.448 43.6743   1
 -14   0   5 2.12353 3.09731   2
  14   0  -5 9.23725 3.23434   2
 -12   0   5 1.55026 2.72554   2
 -12   0   5 3.88645 1.81691   3
 -12   0   5 4.01825 2.31654   5
  12   0  -5 3.37386 2.47848   2
  12   0  -5 5.27057 2.61779   5
  12   0  -5 7.58117 24.7927   1
  12   0  -5 14.5699 33.0684   1
 -10   0   5 7.41787 2.37043   5
  10   0  -5 1.02936 1.96199   2
 -10   0   5 4.55127 1.56449   3
 -10   0   5 5.20601 2.80734   2
  10   0  -5 8.90913 24.4321   1
  10   0  -5 2.24727 18.3685   1
  10   0  -5 4.82275 2.13791   5
   8   0  -5 -14.711 19.4250   1
  -8   0   5 6.15382 1.43740   3
   8   0  -5 8.01137 1.85479   5
   8   0  -5 -14.802 12.9390   1
   8   0  -5 9.95802 2.26590   2
  -6   0   5 9.31866 2.10464   5
   6   0  -5 10.1119 1.95895   5
   6   0  -5 6.64232 13.2744   1
  -6   0   5 7.33843 2.51758   2
   6   0  -5 -0.6344 12.3570   1
   6   0  -5 8.01062 1.95832   2
   4   0  -5 22.2216 2.69575   5
  -4   0   5 22.1176 2.95853   5
   4   0  -5 18.5106 2.54937   2
  -4   0   5 22.1105 3.55554   2
   4   0  -5 19.2822 16.0500   1
   2   0  -5 15.9881 11.9654   1
  -2   0   5 25.1032 3.03689   5
  -2   0   5 15.0734 9.06034   1
   2   0  -5 20.7921 2.51226   5
  -2   0   5 23.6830 3.51341   2
   2   0  -5 19.6794 2.59166   2
   0   0  -5 48.6882 4.50179   4
   0   0  -5 34.4904 11.5763   1
   0   0  -5 54.8861 4.42276   5
   0   0   5 92.1860 23.8918   1
   0   0  -5 48.6765 4.49290   2
   0   0   5 60.0848 4.95748   5
   0   0   5 59.8925 5.25062   2
  -2   0  -5 114.768 8.33789   5
   2   0   5 115.155 8.72606   5
  -2   0  -5 109.752 8.41209   2
   2   0   5 122.317 21.7338   1
  -2   0  -5 100.674 8.49193   4
   4   0   5 189.522 14.2042   2
  -4   0  -5 177.928 13.6102   2
   4   0   5 170.435 26.6233   1
   4   0   5 188.520 13.9656   5
  -4   0  -5 175.966 13.8418   4
  -4   0  -5 169.784 23.6943   1
  -4   0  -5 204.009 13.5791   5
   6   0   5 276.618 35.4132   1
  -6   0  -5 279.163 21.2872   4
  -6   0  -5 248.379 31.2171   1
  -6   0  -5 324.586 20.9778   5
  -8   0  -5 215.355 14.4925   5
   8   0   5 176.517 32.7223   1
  -8   0  -5 204.952 14.9707   4
  -8   0  -5 161.351 26.9379   1
   8   0   5 192.490 15.2506   5
  -8   0  -5 182.175 14.8019   3
   8   0   5 207.213 15.6655   2
 -10   0  -5 111.973 27.3098   1
 -10   0  -5 183.728 12.8011   4
  10   0   5 149.627 13.5369   2
 -10   0  -5 141.926 12.5066   3
 -10   0  -5 176.656 12.1224   5
  10   0   5 168.715 13.4667   5
  12   0   5 337.401 25.5968   5
 -12   0  -5 305.704 24.5544   3
 -12   0  -5 327.759 23.8708   5
 -12   0  -5 367.873 24.8006   4
  12   0   5 320.783 25.6742   2
 -14   0  -5 368.192 28.4849   3
  14   0   5 369.040 29.7071   5
 -14   0  -5 402.256 28.5696   4
  14   0   5 398.910 29.9200   2
  16   0   5 383.346 29.0584   2
  16   0   5 367.026 29.0505   5
 -16   0  -5 346.351 27.2935   3
  18   0   5 138.375 16.4827   5
  18   0   5 145.582 15.3940   2
 -18   0  -5 165.065 13.0928   3
  20   0   5 102.219 12.8124   2
 -20   0  -5 109.342 10.2611   3
  22   0   5 17.1544 7.63220   2
 -22   0  -5 14.5808 4.47318   3
  24   0   5 4.92858 7.93906   2
 -24   0  -5 10.6985 4.50098   3
  26   0   5 4.78593 8.89802   2
 -26   0  -5 10.2220 4.90882   3
  28   0   5 6.98696 9.07341   2
 -28   0  -5 1.67754 4.15195   3
 -30   0  -5 9.78016 4.59373   3
  30   0   5 3.92233 15.4704   2
  31  -1  -5 11.2887 5.18799   2
  31   1  -5 14.4212 5.81251   2
  29  -1  -5 38.6427 6.85185   2
  29   1  -5 29.5669 6.46224   2
  27  -1  -5 33.1490 6.72798   2
 -27  -1   5 44.1567 7.09006   3
  27  -1  -5 20.4951 8.62326   5
  27   1  -5 43.0581 7.06653   2
  25  -1  -5 54.5590 7.88138   2
  25  -1  -5 55.6931 8.82864   5
 -25  -1   5 52.5176 7.20483   3
  25   1  -5 30.8587 8.30497   5
 -25   1   5 45.8123 8.33271   5
  25   1  -5 51.8935 7.82852   2
 -25   1   5 43.8801 7.34728   3
  23  -1  -5 38.9047 7.28238   5
 -23  -1   5 51.4980 6.92220   3
  23  -1  -5 27.9653 6.22325   2
 -23   1   5 46.1938 6.97018   5
 -23   1   5 48.1914 7.44979   3
  23   1  -5 44.3404 7.31963   2
  23   1  -5 60.3036 8.52624   5
  21  -1  -5 186.109 17.4323   2
 -21  -1   5 205.335 16.5258   3
 -21  -1   5 189.394 15.8823   5
  21  -1  -5 194.095 17.5955   5
  21   1  -5 197.074 17.5624   5
 -21   1   5 200.339 16.2928   3
  21   1  -5 239.910 17.7070   2
 -21   1   5 208.976 16.4508   5
 -19  -1   5 330.713 24.5605   3
 -19  -1   5 323.704 24.1781   5
  19  -1  -5 313.428 25.5102   5
  19  -1  -5 280.247 25.3079   2
  19   1  -5 381.843 25.6584   5
 -19   1   5 342.533 24.6071   5
 -19   1   5 285.904 24.1409   3
 -19   1   5 279.964 24.9224   2
  19   1  -5 360.497 25.6030   2
 -17  -1   5 356.335 25.4045   5
  17  -1  -5 332.042 26.3941   2
 -17  -1   5 309.861 25.2851   3
  17  -1  -5 353.496 26.5097   5
  17   1  -5 347.259 26.2489   2
 -17   1   5 334.804 25.5462   5
 -17   1   5 345.242 25.1936   3
  17   1  -5 327.681 26.0377   5
 -17   1   5 336.913 25.8915   2
 -15  -1   5 42.4663 6.80211   2
  15  -1  -5 34.3638 5.83442   5
 -15  -1   5 42.1880 5.00908   3
 -15  -1   5 46.1366 5.22963   5
  15  -1  -5 21.0755 76.0916   1
  15  -1  -5 41.8656 6.06040   2
  15  -1  -5 37.3616 5.37159   4
  15   1  -5 56.1231 6.10548   2
 -15   1   5 44.9048 5.37524   5
  15   1  -5 45.4511 5.86085   5
 -15   1   5 39.6757 4.89195   3
 -15   1   5 39.6430 5.98449   2
 -13  -1   5 226.456 17.0481   5
 -13  -1   5 209.356 17.3387   2
  13  -1  -5 220.011 17.4743   2
  13  -1  -5 204.755 57.7124   1
  13  -1  -5 273.679 56.1277   1
 -13  -1   5 211.062 16.5295   3
  13  -1  -5 181.384 17.2139   5
 -13   1   5 254.576 17.3058   5
 -13   1   5 231.896 16.4451   3
  13   1  -5 121.698 41.3786   1
 -13   1   5 223.131 17.3948   2
  13   1  -5 242.788 17.3097   5
  13   1  -5 216.596 17.1931   2
  11  -1  -5 510.623 81.0982   1
  11  -1  -5 432.960 30.1266   5
  11  -1  -5 351.527 29.0424   4
 -11  -1   5 381.028 30.0312   2
  11  -1  -5 406.966 30.0248   2
  11  -1  -5 432.944 57.6154   1
 -11  -1   5 439.724 29.9641   5
 -11  -1   5 408.060 29.2981   3
 -11   1   5 417.743 29.1307   3
  11   1  -5 400.661 29.8269   2
 -11   1   5 436.040 30.0311   5
  11   1  -5 411.504 29.8422   5
  11   1  -5 332.390 49.8383   1
 -11   1   5 388.022 30.0703   2
  -9  -1   5 768.362 54.2289   3
   9  -1  -5 821.368 54.8514   2
   9  -1  -5 840.232 54.8896   5
  -9  -1   5 786.976 54.8878   5
  -9  -1   5 722.062 54.9944   2
   9  -1  -5 759.557 54.1014   4
  -9   1   5 715.127 54.9767   2
   9   1  -5 800.488 72.0339   1
  -9   1   5 784.110 54.9100   5
   9   1  -5 752.519 54.6510   2
   9   1  -5 661.683 54.5237   5
   7  -1  -5 654.336 50.1839   5
  -7  -1   5 663.248 49.8161   3
  -7  -1   5 676.972 50.6491   2
  -7  -1   5 731.441 50.5015   5
   7  -1  -5 720.090 50.2640   2
   7  -1  -5 837.663 73.3702   1
   7   1  -5 686.168 50.1563   5
  -7   1   5 677.399 50.5982   2
   7   1  -5 762.428 70.5143   1
  -7   1   5 736.861 50.5044   5
   7   1  -5 682.855 50.1657   2
   5  -1  -5 458.088 33.9301   4
   5  -1  -5 538.697 34.3404   2
  -5  -1   5 485.913 34.8144   2
  -5  -1   5 433.649 46.2254   1
  -5  -1   5 487.508 34.5694   5
  -5  -1   5 488.309 33.9835   3
   5   1  -5 406.327 46.7906   1
   5   1  -5 455.169 34.2013   5
   5   1  -5 425.377 34.1893   2
  -5   1   5 501.249 34.5335   5
  -5   1   5 522.670 34.7943   2
   3  -1  -5 3487.13 251.400   5
  -3  -1   5 3581.56 251.746   5
  -3  -1   5 3509.21 251.918   2
  -3  -1   5 3594.70 263.505   1
   3  -1  -5 3748.15 251.469   2
   3  -1  -5 3659.47 262.812   1
   3  -1  -5 3392.83 251.244   4
  -3   1   5 3445.78 251.623   5
  -3   1   5 3540.82 251.783   2
   3   1  -5 3408.46 251.454   2
   3   1  -5 3948.04 267.422   1
  -1  -1   5 285.813 21.2520   5
   1  -1  -5 335.105 20.9791   2
  -1  -1   5 245.071 32.2053   1
  -1  -1   5 277.799 21.5159   2
   1  -1  -5 288.612 30.6467   1
   1  -1  -5 299.064 20.8480   4
   1   1  -5 253.970 20.8700   5
  -1   1   5 300.653 21.1074   5
  -1   1   5 299.924 21.3280   2
  -1   1   5 322.177 33.7762   1
   1   1  -5 250.492 31.3538   1
   1  -1   5 73.5733 6.53342   5
  -1  -1  -5 92.5843 16.0227   1
   1  -1   5 79.5175 18.2645   1
  -1  -1  -5 81.5562 6.11475   4
   1  -1   5 70.2727 6.88386   2
  -1   1  -5 76.7719 6.10134   5
  -1   1  -5 68.6915 15.6041   1
   1   1   5 91.4917 18.6386   1
   1   1   5 78.5979 6.52317   2
   1   1   5 80.1241 6.27745   5
  -1   1  -5 73.8675 6.17800   2
   3  -1   5 683.119 50.0184   5
  -3  -1  -5 626.020 49.5626   3
  -3  -1  -5 581.943 56.5268   1
  -3  -1  -5 596.516 49.6243   4
  -3  -1  -5 672.823 49.4369   5
   3   1   5 693.090 60.5284   1
   3   1   5 668.323 49.8258   2
  -3   1  -5 783.496 49.7384   2
  -3   1  -5 825.221 62.6558   1
  -3   1  -5 778.360 49.8574   4
   3   1   5 689.513 49.7374   5
  -3   1  -5 805.506 49.6934   5
   5  -1   5 188.323 28.8041   1
   5  -1   5 160.243 12.2351   5
  -5  -1  -5 128.128 11.5884   3
  -5  -1  -5 144.113 11.2640   5
   5  -1   5 165.069 12.7272   2
   5   1   5 142.768 11.7374   5
   5   1   5 149.590 11.9529   2
  -5   1  -5 181.816 11.9967   4
  -5   1  -5 175.384 24.5586   1
   5   1   5 145.410 24.3864   1
  -5   1  -5 167.772 11.6675   2
  -7  -1  -5 52.4425 4.45316   5
  -7  -1  -5 55.1625 5.16688   4
  -7  -1  -5 39.5717 13.6626   1
   7  -1   5 68.3100 6.05096   5
   7  -1   5 73.0123 6.77266   2
  -7  -1  -5 54.7680 5.16401   3
   7  -1   5 95.9561 25.2853   1
  -7   1  -5 65.8034 19.3620   1
   7   1   5 58.8993 5.45146   5
   7   1   5 31.7274 15.6067   1
   9  -1   5 188.393 39.4647   1
   9  -1   5 176.514 12.9501   5
  -9  -1  -5 136.230 11.8111   3
   9  -1   5 174.883 13.2767   2
  -9  -1  -5 130.126 24.5075   1
  -9  -1  -5 140.850 11.8676   4
  -9   1  -5 169.271 11.8625   2
   9   1   5 157.476 12.6566   2
   9   1   5 146.217 12.2638   5
   9   1   5 119.977 27.2091   1
 -11  -1  -5 122.395 9.25515   3
 -11  -1  -5 135.408 9.33599   4
  11  -1   5 111.418 10.5411   5
  11  -1   5 102.210 10.6357   2
  11  -1   5 72.4551 35.0790   1
 -11   1  -5 109.105 9.24778   3
 -11   1  -5 60.2213 27.6241   1
  11   1   5 125.460 10.5931   2
 -11   1  -5 102.261 9.34487   4
 -11   1  -5 93.7306 9.16720   2
  11   1   5 126.039 32.0859   1
  11   1   5 120.670 10.2927   5
 -13  -1  -5 1284.89 90.8464   3
  13  -1   5 1244.47 91.9055   2
  13  -1   5 1238.91 91.7326   5
 -13  -1  -5 1224.36 90.7126   4
  13   1   5 1286.48 91.4151   5
 -13   1  -5 1310.38 90.4386   5
  13   1   5 1316.97 91.5933   2
 -13   1  -5 1289.28 90.9806   3
 -15  -1  -5 813.445 53.6612   3
  15  -1   5 757.189 55.0054   2
 -15  -1  -5 647.843 53.3213   4
  15  -1   5 706.594 54.7231   5
  15   1   5 770.010 54.6593   2
  15   1   5 687.977 54.3702   5
 -15   1  -5 759.448 52.9236   5
 -15   1  -5 791.196 53.7947   3
  17  -1   5 671.638 49.3655   2
 -17  -1  -5 646.292 47.6987   3
 -17  -1  -5 625.814 47.5387   4
  17  -1   5 683.223 49.5009   5
  17   1   5 679.613 48.9744   2
 -17   1  -5 600.687 46.6572   5
 -17   1  -5 685.923 47.9605   3
  17   1   5 664.926 49.1907   5
  19  -1   5 694.364 54.3731   5
  19  -1   5 787.167 54.3838   2
 -19  -1  -5 667.009 52.3055   3
 -19   1  -5 726.235 52.6228   3
  19   1   5 729.681 53.6708   2
  21  -1   5 10.9509 6.76038   2
  21  -1   5 7.44018 9.44070   5
 -21  -1  -5 12.0632 3.61237   3
 -21   1  -5 5.79707 3.82860   3
  21   1   5 7.20818 7.11427   2
 -23  -1  -5 16.4934 4.85997   3
  23  -1   5 21.0829 12.7956   5
  23  -1   5 17.9063 7.74106   2
 -23   1  -5 29.0197 6.23987   3
  23   1   5 22.4809 8.44519   2
 -25  -1  -5 31.4191 5.61666   3
  25  -1   5 52.1678 10.2689   2
  25   1   5 20.6278 9.53781   2
 -25   1  -5 52.9532 7.38769   3
 -27  -1  -5 69.5745 8.73465   3
  27  -1   5 78.0929 12.0304   2
  27   1   5 57.2713 11.9516   2
 -27   1  -5 86.5736 8.88866   3
 -29  -1  -5 44.5335 7.40405   3
  29  -1   5 45.1961 9.95374   2
  29   1   5 28.3505 11.8134   2
 -29   1  -5 38.6124 6.17294   3
 -31  -1  -5 -1.0869 5.70360   3
 -31   1  -5 7.90037 5.53203   3
  30   2  -5 32.5660 6.76932   2
  28  -2  -5 75.1804 9.14519   2
 -28  -2   5 56.1993 8.11250   3
  28   2  -5 60.5437 8.78412   2
  26  -2  -5 147.400 12.9583   2
  26  -2  -5 119.651 13.8835   5
 -26  -2   5 122.624 12.3066   3
 -26   2   5 121.235 15.3421   5
  26   2  -5 126.669 12.5024   2
  24  -2  -5 64.8445 9.78355   5
  24  -2  -5 69.4596 8.90813   2
 -24  -2   5 77.3334 8.41426   3
  24   2  -5 45.0597 9.30355   5
  24   2  -5 56.2598 8.27889   2
 -24   2   5 57.6058 8.35686   5
  22  -2  -5 25.4976 6.10967   2
 -22  -2   5 23.7667 5.52872   3
  22  -2  -5 33.7916 7.06571   5
 -22   2   5 28.9128 5.35453   5
 -22   2   5 20.9401 5.38825   3
  22   2  -5 32.0010 7.04659   5
  22   2  -5 23.2371 5.82205   2
  20  -2  -5 134.790 14.3401   5
  20  -2  -5 161.199 14.5911   2
 -20  -2   5 148.303 13.3661   3
 -20   2   5 154.275 14.2795   2
 -20   2   5 174.809 13.4927   5
  20   2  -5 148.412 14.3379   5
 -20   2   5 159.714 13.1254   3
  20   2  -5 158.029 14.0423   2
 -18  -2   5 38.1758 5.17108   5
  18  -2  -5 41.7544 6.89022   2
  18  -2  -5 28.8633 5.23911   4
 -18  -2   5 42.6772 5.69043   3
  18  -2  -5 45.2576 7.14108   5
 -18   2   5 39.2976 5.15565   3
  18   2  -5 36.5263 6.05973   2
  18   2  -5 33.8226 5.99305   5
 -18   2   5 36.6768 5.52563   5
 -18   2   5 35.9815 5.96709   2
  16  -2  -5 226.770 18.7374   2
  16  -2  -5 209.813 17.3477   4
  16  -2  -5 218.618 18.7093   5
 -16  -2   5 238.614 17.5403   5
 -16  -2   5 229.010 17.7168   3
 -16   2   5 247.322 18.3511   2
 -16   2   5 243.556 17.9935   5
  16   2  -5 224.165 18.1545   5
  16   2  -5 227.580 18.2266   2
 -16   2   5 215.204 17.2972   3
 -14  -2   5 138.749 13.4854   2
  14  -2  -5 147.535 60.3469   1
 -14  -2   5 145.941 12.1662   3
  14  -2  -5 170.090 13.4663   5
  14  -2  -5 151.986 13.2121   2
 -14  -2   5 156.984 12.3882   5
  14  -2  -5 110.835 51.6837   1
  14  -2  -5 137.573 11.9865   4
  14   2  -5 180.185 12.9496   2
  14   2  -5 156.485 12.7621   5
 -14   2   5 144.309 11.8737   3
 -14   2   5 155.775 12.9512   2
  14   2  -5 76.8532 46.7946   1
 -14   2   5 166.972 12.7743   5
  12  -2  -5 673.744 43.6770   5
  12  -2  -5 570.706 79.5360   1
  12  -2  -5 565.836 42.5054   4
  12  -2  -5 646.313 99.5016   1
  12  -2  -5 634.698 43.5451   2
 -12  -2   5 610.803 42.6945   3
 -12  -2   5 592.866 42.9909   5
 -12  -2   5 560.527 43.2190   2
  12   2  -5 617.899 43.0908   5
  12   2  -5 531.165 42.9386   2
 -12   2   5 533.283 42.2614   3
  12   2  -5 531.559 74.0657   1
 -12   2   5 588.808 43.3411   2
 -12   2   5 640.661 43.3470   5
 -10  -2   5 936.223 66.2674   3
  10  -2  -5 989.652 66.9592   5
  10  -2  -5 826.133 66.1161   4
  10  -2  -5 994.293 66.9266   2
  10  -2  -5 836.930 94.6336   1
 -10  -2   5 917.752 66.9443   2
  10  -2  -5 983.284 94.1833   1
 -10  -2   5 966.399 66.7841   5
  10   2  -5 904.553 66.5334   5
  10   2  -5 952.160 66.6112   2
 -10   2   5 916.498 66.9807   2
  10   2  -5 915.870 89.5930   1
  10   2  -5 1018.46 86.6341   1
 -10   2   5 896.766 66.8499   5
   8  -2  -5 622.020 70.7915   1
   8  -2  -5 795.408 51.1712   5
  -8  -2   5 697.010 51.4056   2
   8  -2  -5 746.569 51.0685   2
  -8  -2   5 726.877 51.1919   5
  -8  -2   5 724.523 50.6247   3
   8  -2  -5 904.552 90.0184   1
   8  -2  -5 653.665 50.5290   4
   8   2  -5 707.130 69.8988   1
   8   2  -5 682.177 50.8382   2
   8   2  -5 718.835 50.8603   5
  -8   2   5 637.765 51.2454   2
  -8   2   5 714.084 51.2553   5
  -6  -2   5 1541.35 111.388   2
   6  -2  -5 1540.41 110.847   2
   6  -2  -5 1468.76 127.527   1
  -6  -2   5 1829.22 129.914   1
  -6  -2   5 1501.00 110.602   3
   6  -2  -5 1612.50 110.889   5
   6  -2  -5 1375.02 110.526   4
  -6  -2   5 1731.01 111.270   5
   6  -2  -5 1513.48 127.191   1
   6   2  -5 1584.21 110.812   5
   6   2  -5 1789.42 132.355   1
   6   2  -5 1489.79 110.814   2
  -6   2   5 1491.96 111.228   2
  -6   2   5 1560.50 111.142   5
  -4  -2   5 1455.35 102.400   2
   4  -2  -5 1355.75 101.687   2
   4  -2  -5 1326.45 101.544   4
  -4  -2   5 1511.47 101.662   3
   4  -2  -5 1551.15 101.771   5
  -4  -2   5 1508.37 115.230   1
  -4  -2   5 1549.67 102.221   5
   4   2  -5 1391.90 101.730   5
  -4   2   5 1325.53 102.066   2
  -4   2   5 1414.89 101.988   5
   4   2  -5 1479.31 115.694   1
   4   2  -5 1414.19 101.777   2
  -2  -2   5 1076.15 74.6678   5
   2  -2  -5 994.236 74.0919   4
   2  -2  -5 1073.07 87.0331   1
  -2  -2   5 1081.47 74.8957   2
   2  -2  -5 1116.00 74.1374   5
   2  -2  -5 1016.29 84.8880   1
   2  -2  -5 1015.84 74.1289   2
  -2  -2   5 967.373 86.0607   1
   2   2  -5 1136.09 74.2791   5
   2   2  -5 1039.01 86.7121   1
  -2   2   5 1004.46 74.4721   2
  -2   2   5 1054.34 74.3667   5
   2   2  -5 1017.72 74.2517   2
   0  -2  -5 407.380 42.5582   1
   0  -2  -5 384.198 39.9210   1
   0  -2   5 474.929 32.5243   5
   0  -2  -5 400.152 31.8873   4
   0  -2   5 470.469 45.7514   1
   0  -2  -5 455.039 31.7982   5
   0   2  -5 502.677 32.0831   5
   0   2  -5 505.875 45.8654   1
   0   2  -5 493.460 32.1280   2
   0   2   5 407.060 31.9930   5
   0   2   5 417.188 32.1423   2
   2  -2   5 307.999 23.1194   2
  -2  -2  -5 351.850 22.1645   4
  -2  -2  -5 334.681 30.7885   1
   2  -2   5 261.330 35.5197   1
   2  -2   5 292.646 22.5959   5
  -2   2  -5 265.454 22.0876   2
  -2   2  -5 299.755 35.1756   1
  -2   2  -5 282.217 22.0615   5
   2   2   5 319.528 22.2512   2
   2   2   5 323.021 22.1174   5
  -4  -2  -5 204.598 21.3261   1
   4  -2   5 163.519 12.8922   5
   4  -2   5 118.955 27.2368   1
   4  -2   5 161.822 13.3114   2
  -4  -2  -5 180.927 12.0545   3
  -4  -2  -5 143.732 11.6149   5
   4   2   5 176.893 25.1971   1
  -4   2  -5 149.002 12.0634   5
   4   2   5 175.288 12.1108   5
  -4   2  -5 141.538 12.0888   2
   4   2   5 171.312 12.2790   2
  -6  -2  -5 325.190 20.5901   4
  -6  -2  -5 284.486 28.8410   1
   6  -2   5 269.268 21.2297   5
   6  -2   5 278.428 21.6077   2
  -6  -2  -5 297.115 20.4734   3
  -6   2  -5 257.372 20.3976   5
   6   2   5 281.314 20.4159   5
   6   2   5 277.278 20.5199   2
   6   2   5 285.791 32.9815   1
  -6   2  -5 247.073 20.4301   2
   8  -2   5 158.791 13.5164   2
   8  -2   5 121.573 35.2353   1
  -8  -2  -5 175.130 12.2226   3
   8  -2   5 160.292 13.2147   5
  -8  -2  -5 144.624 22.1027   1
   8   2   5 150.108 26.8111   1
   8   2   5 169.600 12.3012   5
   8   2   5 164.956 12.4665   2
  -8   2  -5 149.614 12.0655   2
  -8   2  -5 141.701 12.0047   5
 -10  -2  -5 105.653 23.8875   1
  10  -2   5 130.523 33.4668   1
  10  -2   5 143.801 12.2265   2
 -10  -2  -5 121.418 10.4207   3
  10  -2   5 143.642 12.0028   5
 -10  -2  -5 115.793 10.3322   4
 -10   2  -5 156.948 10.5939   2
  10   2   5 124.655 10.9399   5
  10   2   5 134.001 11.2748   2
 -10   2  -5 87.9337 26.7385   1
  12  -2   5 290.344 23.7202   5
  12  -2   5 311.450 24.0867   2
 -12  -2  -5 292.840 22.3947   3
 -12  -2  -5 253.050 22.1953   4
 -12   2  -5 324.765 22.4738   2
  12   2   5 306.729 23.2013   5
  12   2   5 333.417 23.2960   2
  14  -2   5 1145.61 81.8120   2
 -14  -2  -5 1086.99 80.2432   3
 -14  -2  -5 1018.65 80.0629   4
  14  -2   5 1147.52 81.6197   5
  14   2   5 1107.15 80.8834   2
 -14   2  -5 1064.65 80.0452   2
 -14   2  -5 1222.97 80.1842   5
 -14   2  -5 1228.36 80.6587   3
  14   2   5 1092.17 80.8299   5
  16  -2   5 830.289 62.2070   2
  16  -2   5 808.342 62.0424   5
 -16  -2  -5 840.458 60.5723   3
 -16  -2  -5 753.867 60.3204   4
  16   2   5 876.542 61.4485   2
 -16   2  -5 908.083 60.9985   3
 -16   2  -5 864.128 60.2238   5
  18  -2   5 858.685 60.5773   5
 -18  -2  -5 719.166 58.3009   4
 -18  -2  -5 773.751 58.5114   3
  18  -2   5 882.929 60.6521   2
 -18   2  -5 769.890 57.8904   5
  18   2   5 807.977 59.4370   2
 -18   2  -5 868.951 58.9908   3
 -20  -2  -5 332.952 28.1538   4
 -20  -2  -5 360.076 28.4474   3
  20  -2   5 415.549 31.0078   2
  20  -2   5 387.494 31.4536   5
 -20   2  -5 406.009 29.0056   3
  20   2   5 380.273 29.9229   2
  22  -2   5 41.1282 9.12124   2
  22  -2   5 41.5806 11.0952   5
 -22  -2  -5 48.6481 6.75931   3
 -22   2  -5 48.8297 7.04566   3
  22   2   5 32.6373 9.42029   2
  24  -2   5 37.8327 14.0102   5
  24  -2   5 32.8526 9.40656   2
 -24  -2  -5 48.3705 6.92646   3
 -24   2  -5 33.4891 5.97350   3
  26  -2   5 26.2433 9.81908   2
 -26  -2  -5 59.7144 7.56771   3
  26   2   5 55.3848 11.1074   2
 -26   2  -5 50.3511 7.59361   3
 -28  -2  -5 100.973 10.2322   3
  28  -2   5 105.735 14.5622   2
 -28   2  -5 84.8495 9.82806   3
 -30  -2  -5 21.2639 5.96614   3
  30  -2   5 11.7921 9.51141   2
 -30   2  -5 16.7501 4.67234   3
 -29  -3   5 68.9014 10.2800   3
  29  -3  -5 87.4030 9.98674   2
 -27  -3   5 127.978 12.2847   3
  27  -3  -5 126.469 12.5988   2
  25  -3  -5 87.8625 11.7333   5
 -25  -3   5 92.9623 10.5430   3
  25  -3  -5 95.4916 10.8528   2
 -25   3   5 103.136 10.8874   5
  23  -3  -5 172.056 16.5982   2
 -23  -3   5 178.268 15.8396   3
  23  -3  -5 181.577 17.0309   5
 -23   3   5 198.277 15.8287   5
 -21  -3   5 64.2793 7.55685   3
  21  -3  -5 40.1029 7.47178   2
  21  -3  -5 41.8840 7.69061   5
 -21   3   5 58.6131 7.40344   5
  21   3  -5 44.5912 7.90352   5
  21   3  -5 58.7441 7.73112   2
 -21   3   5 56.8906 8.63720   2
 -19  -3   5 180.344 15.3536   3
  19  -3  -5 157.817 14.9977   4
  19  -3  -5 184.062 16.5355   5
  19  -3  -5 193.303 16.5852   2
 -19   3   5 183.218 15.6551   2
  19   3  -5 221.631 16.0245   2
  19   3  -5 175.749 16.0799   5
 -19   3   5 188.736 15.2547   5
 -19   3   5 171.528 14.8435   3
 -17  -3   5 2.39460 2.48625   5
 -17  -3   5 7.26081 3.50216   3
  17  -3  -5 7.21392 3.48869   4
  17  -3  -5 3.20190 4.00377   5
  17  -3  -5 9.93181 4.58119   2
 -17   3   5 7.24012 3.15294   5
  17   3  -5 5.97611 3.40149   2
 -17   3   5 9.25032 3.86094   2
  17   3  -5 1.84476 3.86750   5
 -17   3   5 5.69620 3.49081   3
  15  -3  -5 7.39982 3.69895   2
 -15  -3   5 8.22097 2.63973   5
  15  -3  -5 6.38862 3.89774   5
 -15  -3   5 12.8019 3.28598   3
  15  -3  -5 6.10420 2.89362   4
 -15   3   5 6.31708 3.29998   3
 -15   3   5 8.18159 3.58660   2
  15   3  -5 8.76655 3.21826   2
 -15   3   5 8.01105 3.22408   5
  15   3  -5 9.45255 3.44566   5
 -13  -3   5 36.2617 4.67093   3
  13  -3  -5 40.5224 5.97461   2
  13  -3  -5 38.3945 5.77122   5
  13  -3  -5 63.2272 97.5867   1
  13  -3  -5 30.1092 4.50027   4
  13  -3  -5 59.7613 63.7121   1
 -13  -3   5 36.6781 4.60015   5
 -13   3   5 34.5083 4.62747   3
  13   3  -5 42.6902 41.0324   1
 -13   3   5 42.8256 5.44666   5
  13   3  -5 41.8304 4.86501   2
 -13   3   5 39.1082 5.62565   2
  13   3  -5 32.7045 4.90824   5
  11  -3  -5 15.5565 3.59035   2
 -11  -3   5 24.0848 3.37888   3
  11  -3  -5 22.9069 4.29126   5
  11  -3  -5 41.7500 49.8004   1
  11  -3  -5 20.4783 3.34906   4
 -11  -3   5 23.9119 6.00400   2
 -11  -3   5 23.3536 3.87870   5
  11  -3  -5 31.5011 43.4329   1
 -11   3   5 25.2079 4.46595   5
 -11   3   5 23.7428 4.42536   2
  11   3  -5 40.5553 30.7137   1
  11   3  -5 24.1281 3.75875   5
  11   3  -5 29.7289 3.64574   2
   9  -3  -5 60.8082 6.03268   4
  -9  -3   5 77.2801 6.23287   3
   9  -3  -5 75.6360 6.83002   5
   9  -3  -5 63.6413 6.62703   2
  -9  -3   5 75.1456 6.83478   5
   9  -3  -5 51.7651 31.9093   1
  -9  -3   5 83.3073 8.58980   2
   9  -3  -5 72.4115 36.3481   1
  -9   3   5 68.1094 7.10272   5
   9   3  -5 62.6178 26.6338   1
   9   3  -5 72.5088 6.33242   5
  -9   3   5 65.8779 7.36305   2
   9   3  -5 78.1541 6.38033   2
  -7  -3   5 915.401 63.8159   2
  -7  -3   5 931.554 63.4032   5
   7  -3  -5 917.795 63.1028   5
   7  -3  -5 768.767 86.2529   1
  -7  -3   5 866.579 78.3879   1
   7  -3  -5 805.216 62.7270   4
   7  -3  -5 808.495 85.4110   1
   7  -3  -5 841.180 62.9820   2
  -7  -3   5 939.297 62.8523   3
  -7   3   5 866.763 63.5304   2
  -7   3   5 911.848 63.4885   5
   7   3  -5 973.364 63.0001   5
   7   3  -5 896.788 62.9704   2
   7   3  -5 790.558 80.8033   1
  -5  -3   5 1420.93 110.957   1
  -5  -3   5 1367.46 96.6922   2
  -5  -3   5 1437.11 96.3654   5
   5  -3  -5 1400.02 95.8083   5
   5  -3  -5 1281.55 95.6612   4
   5  -3  -5 1320.03 95.7575   2
  -5  -3   5 1378.42 95.7403   3
   5  -3  -5 1268.71 112.692   1
   5   3  -5 1289.89 95.7957   2
  -5   3   5 1418.95 96.2678   5
   5   3  -5 1394.31 95.8176   5
  -5   3   5 1283.31 96.2777   2
   5   3  -5 1296.63 111.636   1
   3  -3  -5 20.1365 14.7819   1
  -3  -3   5 17.5408 4.35897   2
  -3  -3   5 13.0536 15.4915   1
   3  -3  -5 20.4308 17.9936   1
  -3  -3   5 16.5641 3.14205   5
   3  -3  -5 16.6468 2.40676   5
  -3  -3   5 15.9184 2.41925   3
   3  -3  -5 17.0197 2.42227   4
   3  -3  -5 15.8272 2.48654   2
   3   3  -5 17.2015 2.64809   2
  -3   3   5 24.7948 3.96465   2
   3   3  -5 19.1620 2.57759   5
   3   3  -5 12.5354 15.1569   1
  -3   3   5 22.2715 3.36521   5
  -1  -3   5 402.973 46.6539   1
  -1  -3   5 462.789 33.8612   2
  -1  -3   5 463.887 33.3807   5
   1  -3  -5 462.098 32.6537   4
   1  -3  -5 446.249 43.7106   1
   1  -3  -5 486.862 32.4544   5
   1  -3  -5 453.920 48.6600   1
  -1   3   5 457.779 32.8130   5
  -1   3   5 454.604 32.9824   2
   1   3  -5 451.228 32.7061   5
   1   3  -5 432.607 32.7338   2
  -1  -3  -5 157.271 11.0999   4
   1  -3   5 131.309 12.4863   2
  -1  -3  -5 142.116 20.4717   1
  -1  -3  -5 165.244 10.6678   5
   1  -3   5 138.483 35.5614   1
   1  -3   5 137.175 11.8919   5
  -1  -3  -5 168.246 27.7855   1
  -1   3  -5 149.599 31.9013   1
   1   3   5 148.619 11.3137   2
  -1   3  -5 124.041 11.0223   5
   1   3   5 152.430 11.0998   5
   3  -3   5 25.0381 4.75747   2
  -3  -3  -5 13.6985 9.64297   1
  -3  -3  -5 14.3999 13.0210   1
   3  -3   5 34.0870 24.2125   1
  -3  -3  -5 29.4813 3.13828   4
  -3  -3  -5 23.6740 2.73217   3
   3  -3   5 32.2543 4.50493   5
   3   3   5 26.9781 3.08324   5
  -3   3  -5 6.80062 12.7879   1
   3   3   5 27.1452 3.44528   2
  -5  -3  -5 36.9940 14.2930   1
  -5  -3  -5 73.3296 15.2885   1
   5  -3   5 66.8122 7.31072   5
  -5  -3  -5 74.2199 5.86007   4
  -5  -3  -5 68.3750 5.65224   3
   5  -3   5 31.0842 19.6498   1
  -5   3  -5 78.0278 6.03945   5
  -5   3  -5 31.4499 17.7877   1
  -5   3  -5 65.7381 5.88617   2
   5   3   5 68.1000 5.72809   5
   5   3   5 69.2439 6.03557   2
  -7  -3  -5 115.951 9.88065   3
   7  -3   5 138.777 12.0761   2
   7  -3   5 143.740 11.7204   5
   7  -3   5 78.0439 27.5152   1
  -7  -3  -5 121.942 10.0211   4
  -7   3  -5 137.445 10.1972   2
  -7   3  -5 131.417 40.4199   1
   7   3   5 125.803 9.95744   5
   7   3   5 129.975 10.0755   2
   9  -3   5 124.052 12.2940   2
  -9  -3  -5 148.933 10.3619   4
  -9  -3  -5 137.796 10.2772   3
   9  -3   5 55.8072 51.3106   1
  -9   3  -5 108.634 10.2349   2
   9   3   5 123.408 10.6750   2
  -9   3  -5 140.740 10.4355   5
   9   3   5 119.054 10.5444   5
  11  -3   5 171.309 16.7867   2
  11  -3   5 203.403 16.8927   5
  11  -3   5 88.4455 50.1994   1
 -11  -3  -5 208.812 15.0754   3
 -11   3  -5 116.222 46.6638   1
  11   3   5 215.371 15.8539   2
 -11   3  -5 204.657 15.1755   5
 -11   3  -5 192.444 15.1507   2
  11   3   5 186.588 15.8505   5
  13  -3   5 432.355 35.3175   2
 -13  -3  -5 498.520 33.6873   3
  13  -3   5 439.393 35.2015   5
  13   3   5 513.784 34.3651   2
 -13   3  -5 404.635 33.5434   2
  15  -3   5 324.071 27.7874   2
 -15  -3  -5 384.222 25.9091   3
 -15   3  -5 359.077 25.8403   5
 -15   3  -5 287.703 25.7084   2
  15   3   5 357.549 26.7545   2
 -17  -3  -5 715.137 47.7757   4
 -17  -3  -5 681.295 47.8969   3
  17   3   5 650.040 48.3991   2
 -17   3  -5 577.925 47.4604   5
 -19  -3  -5 258.401 17.5227   4
  19  -3   5 168.459 20.0102   5
 -19  -3  -5 247.317 17.6146   3
  19  -3   5 188.442 19.5485   2
 -19   3  -5 197.850 16.9863   5
  19   3   5 228.540 19.1465   2
 -19   3  -5 208.000 17.6083   3
  21  -3   5 26.0466 9.04131   5
  21  -3   5 24.1072 7.81442   2
  21   3   5 31.6815 8.69988   2
 -21   3  -5 28.2478 5.69891   3
 -21   3  -5 23.2728 4.94590   5
  23  -3   5 3.91151 6.44530   2
 -23  -3  -5 4.57407 4.18272   3
  23  -3   5 -6.0351 10.7956   5
  23   3   5 0.65986 9.15795   2
 -23   3  -5 5.68071 5.01020   3
 -25  -3  -5 28.5106 5.38912   3
  25  -3   5 6.10947 14.8576   5
  25  -3   5 30.5610 9.23946   2
 -25   3  -5 27.4645 6.01789   3
  27  -3   5 5.40931 8.34838   2
 -27  -3  -5 22.2220 5.87923   3
 -27   3  -5 12.5469 4.88931   3
  29  -3   5 10.4112 8.94268   2
 -29  -3  -5 27.6212 6.44552   3
 -29   3  -5 18.2934 4.62812   3
  30  -4  -5 50.7153 7.78222   2
  28  -4  -5 7.46049 5.44415   2
 -28  -4   5 1.86205 5.33177   3
  28   4  -5 8.55617 5.64721   2
  26  -4  -5 47.8309 9.31712   5
  26  -4  -5 67.5490 9.14432   2
 -26  -4   5 61.5011 8.86388   3
  26   4  -5 57.9942 8.72974   2
 -24  -4   5 53.8496 7.63239   3
  24  -4  -5 44.3475 7.67261   2
  24  -4  -5 45.9389 8.07850   5
 -24   4   5 37.6181 6.67440   5
 -24   4   5 38.0293 15.7403   2
  24   4  -5 54.3973 8.06274   2
  22  -4  -5 39.5533 7.76702   5
  22  -4  -5 55.7702 8.45163   2
 -22  -4   5 57.0737 7.69161   3
  22  -4  -5 33.5141 7.94749   4
  22   4  -5 49.0511 7.49870   2
 -22   4   5 40.2584 7.63961   2
 -22   4   5 44.2058 7.25040   5
 -20  -4   5 45.1630 6.90961   3
  20  -4  -5 32.6414 6.11017   4
  20  -4  -5 32.3200 6.71674   2
  20  -4  -5 46.6827 7.70344   5
 -20   4   5 34.6701 6.46251   2
  20   4  -5 36.7730 6.32307   2
  20   4  -5 42.5051 7.82442   5
 -20   4   5 37.8292 6.35303   5
  18  -4  -5 53.4004 7.92313   4
  18  -4  -5 65.4276 9.09338   2
  18  -4  -5 64.4378 9.13567   5
 -18  -4   5 72.0915 8.07207   3
  18   4  -5 82.6589 9.60280   5
 -18   4   5 70.0034 7.95645   5
  18   4  -5 72.8528 8.11017   2
 -18   4   5 75.4473 8.46056   2
  16  -4  -5 133.627 12.6596   5
 -16  -4   5 133.853 11.6217   3
  16  -4  -5 131.352 12.6241   2
  16  -4  -5 115.214 11.3376   4
 -16   4   5 134.105 12.0828   2
  16   4  -5 130.630 12.0958   5
 -16   4   5 131.700 11.7972   5
  16   4  -5 142.237 11.8126   2
 -14  -4   5 122.397 9.60884   5
  14  -4  -5 116.480 10.4430   4
  14  -4  -5 116.272 11.3739   2
  14  -4  -5 117.509 11.4914   5
 -14  -4   5 136.911 10.5995   3
 -14   4   5 118.014 11.0007   5
  14   4  -5 133.952 10.9021   5
  14   4  -5 116.212 10.5948   2
 -14   4   5 118.927 11.1301   2
 -12  -4   5 862.045 61.3050   3
  12  -4  -5 871.552 62.0236   5
  12  -4  -5 785.276 61.1948   4
 -12  -4   5 832.259 61.0572   5
  12  -4  -5 763.862 107.547   1
  12  -4  -5 829.996 61.8313   2
  12   4  -5 791.378 61.3606   2
  12   4  -5 920.056 61.5025   5
 -12   4   5 951.515 62.1793   2
 -12   4   5 875.075 61.9628   5
  10  -4  -5 948.301 105.522   1
 -10  -4   5 913.121 65.3578   5
  10  -4  -5 877.023 65.1496   4
  10  -4  -5 1003.99 65.8110   5
 -10  -4   5 923.183 65.1901   3
  10  -4  -5 908.529 65.5664   2
  10   4  -5 849.764 65.2234   2
 -10   4   5 928.802 65.9691   2
 -10   4   5 976.648 65.9786   5
  10   4  -5 812.788 92.2440   1
  10   4  -5 865.169 65.2014   5
  -8  -4   5 977.829 69.0963   3
   8  -4  -5 988.334 69.2974   2
  -8  -4   5 808.114 84.6894   1
   8  -4  -5 965.320 101.410   1
  -8  -4   5 916.774 69.8238   2
   8  -4  -5 1060.89 69.4578   5
  -8  -4   5 988.145 69.5406   5
   8  -4  -5 1014.58 69.1277   4
   8   4  -5 971.388 69.1444   5
  -8   4   5 991.014 69.8113   5
   8   4  -5 843.495 91.2050   1
   8   4  -5 930.809 69.1443   2
  -8   4   5 1036.73 69.9734   2
   6  -4  -5 347.736 57.8717   1
  -6  -4   5 364.247 28.5262   5
   6  -4  -5 407.786 54.7503   1
  -6  -4   5 336.041 29.0556   2
   6  -4  -5 448.428 28.1557   5
   6  -4  -5 399.060 28.0175   2
  -6  -4   5 387.013 27.9669   3
   6  -4  -5 419.609 28.0085   4
   6   4  -5 322.984 27.8482   5
  -6   4   5 418.415 28.8956   2
  -6   4   5 412.642 28.7416   5
   6   4  -5 365.901 27.9933   2
   6   4  -5 306.141 49.1841   1
  -4  -4   5 96.0930 7.13637   3
  -4  -4   5 72.5919 9.25110   2
   4  -4  -5 79.4576 6.76634   5
  -4  -4   5 97.7198 8.18584   5
  -4  -4   5 61.2933 21.9331   1
   4  -4  -5 74.9711 6.85369   4
   4  -4  -5 70.5971 6.87555   2
   4  -4  -5 31.3073 29.1495   1
   4  -4  -5 77.5219 24.7894   1
   4   4  -5 110.678 30.0897   1
   4   4  -5 96.0576 7.18023   2
   4   4  -5 96.5781 7.13750   5
  -4   4   5 74.6843 7.98902   2
  -4   4   5 85.3187 7.84375   5
  -2  -4   5 98.6489 25.2112   1
  -2  -4   5 152.020 12.6350   5
   2  -4  -5 176.897 11.3779   5
   2  -4  -5 156.425 28.7847   1
   2  -4  -5 148.552 33.6318   1
  -2  -4   5 133.104 13.3237   2
   2  -4  -5 164.440 11.6685   4
   2   4  -5 125.139 11.6243   2
  -2   4   5 161.382 12.0963   5
   2   4  -5 136.535 40.7342   1
  -2   4   5 161.359 12.3726   2
   0  -4   5 105.734 10.6288   2
   0  -4  -5 97.6337 8.22455   4
   0  -4  -5 117.324 22.7929   1
   0  -4   5 110.579 9.71723   5
   0  -4  -5 88.2629 26.2303   1
   0  -4   5 137.768 28.9345   1
   0  -4  -5 94.1806 7.65610   5
   0   4   5 99.3475 8.74253   2
   0   4  -5 193.338 45.4966   1
   0   4   5 100.707 8.49076   5
   0   4  -5 120.220 8.51188   2
  -2  -4  -5 47.4963 13.9864   1
   2  -4   5 81.2287 8.15600   5
   2  -4   5 74.1096 8.79825   2
   2  -4   5 108.174 28.0306   1
  -2  -4  -5 76.8306 6.40111   4
  -2  -4  -5 57.1212 21.3845   1
  -2  -4  -5 74.8846 6.03629   3
  -2   4  -5 138.296 35.6765   1
   2   4   5 73.0744 6.69904   2
   2   4   5 78.4043 6.46523   5
  -4  -4  -5 59.5402 5.15273   4
  -4  -4  -5 49.7251 12.7804   1
  -4  -4  -5 39.8282 15.9945   1
  -4  -4  -5 46.9763 4.70466   3
   4  -4   5 49.7374 7.54008   2
   4  -4   5 83.0490 41.6678   1
   4  -4   5 60.6204 7.14165   5
  -4   4  -5 62.0925 5.24106   2
  -4   4  -5 31.5199 21.4004   1
   4   4   5 48.1245 5.16978   2
  -4   4  -5 65.8297 5.31416   5
   4   4   5 48.8009 4.98606   5
   6  -4   5 23.7930 29.5731   1
  -6  -4  -5 74.0634 5.59957   4
  -6  -4  -5 62.4064 5.28654   3
   6  -4   5 57.0935 8.34620   2
   6  -4   5 61.0542 7.56448   5
  -6   4  -5 54.1704 5.65998   2
  -6   4  -5 23.4849 23.5608   1
  -6   4  -5 58.6416 5.62515   5
   6   4   5 58.1664 5.56428   5
   6   4   5 58.2944 5.68408   2
  -8  -4  -5 10.2822 2.25378   4
  -8  -4  -5 16.0567 2.62790   3
   8  -4   5 15.9083 4.47094   5
   8  -4   5 12.5129 4.75319   2
   8  -4   5 29.8577 36.7689   1
  -8   4  -5 7.37379 2.32132   2
  -8   4  -5 -25.003 47.1581   1
   8   4   5 7.86211 3.40081   5
  -8   4  -5 9.37728 2.37541   5
   8   4   5 12.5366 3.11430   2
  10  -4   5 8.67753 50.6794   1
 -10  -4  -5 34.6856 4.24612   4
 -10  -4  -5 36.4631 4.20617   3
  10  -4   5 26.3476 5.58458   5
  10  -4   5 20.4399 5.83438   2
 -10   4  -5 31.1733 4.56787   2
 -10   4  -5 34.8527 4.57006   5
 -10   4  -5 13.7480 37.1314   1
  12  -4   5 90.8294 11.1294   2
  12  -4   5 85.8436 10.9587   5
 -12  -4  -5 93.7694 8.42317   3
 -12  -4  -5 83.6455 8.17258   4
  12   4   5 121.606 10.8987   2
 -12   4  -5 89.5969 8.66967   2
 -12   4  -5 101.555 8.73255   5
 -14  -4  -5 156.056 13.1939   3
 -14  -4  -5 135.943 12.9471   4
  14  -4   5 170.899 15.9220   2
  14  -4   5 151.707 15.5252   5
 -14   4  -5 169.771 13.6424   2
  14   4   5 164.024 15.1368   2
 -14   4  -5 189.604 13.6821   5
 -16  -4  -5 423.034 32.2701   3
  16  -4   5 475.211 34.7414   2
 -16  -4  -5 379.669 31.9431   4
  16  -4   5 452.436 34.5854   5
 -16   4  -5 478.803 32.5528   5
  16   4   5 375.971 33.0389   2
 -16   4  -5 462.323 32.5617   2
 -18  -4  -5 50.3563 7.07935   4
 -18  -4  -5 59.2770 7.16287   3
  18  -4   5 76.6761 10.7188   2
  18  -4   5 77.7055 11.9844   5
 -18   4  -5 69.5586 7.92582   3
 -18   4  -5 66.2073 7.65276   5
  20  -4   5 19.1298 8.33976   5
  20  -4   5 17.1485 7.24874   2
 -20  -4  -5 29.7201 5.16502   4
 -20  -4  -5 22.0980 4.93850   3
 -20   4  -5 20.6764 4.33187   3
 -20   4  -5 14.0362 4.94259   5
  22  -4   5 38.7909 9.13036   2
 -22  -4  -5 65.8257 8.02467   3
 -22  -4  -5 67.5801 7.74088   4
 -22   4  -5 63.4395 8.07927   3
 -24  -4  -5 14.1360 4.96168   3
  24  -4   5 19.5619 12.1109   5
  24  -4   5 28.3386 8.85622   2
 -24   4  -5 17.4262 5.24066   3
 -26  -4  -5 19.9144 6.07466   3
  26  -4   5 36.9052 9.60034   2
 -26   4  -5 30.0390 6.13019   3
 -28  -4  -5 16.2454 5.64132   3
  28  -4   5 6.29089 8.41864   2
 -28   4  -5 25.4537 5.79593   3
  29  -5  -5 22.4156 6.54626   2
 -27  -5   5 56.0266 8.86118   3
  27  -5  -5 63.5200 9.19882   2
  27   5  -5 50.3542 8.38793   2
  25  -5  -5 52.5261 7.94021   2
  25  -5  -5 47.7488 8.51202   5
 -25  -5   5 51.3322 7.81528   3
  25   5  -5 46.2121 7.16130   2
 -25   5   5 36.8110 7.88226   5
 -23  -5   5 22.1227 5.95988   3
  23  -5  -5 25.7085 6.55175   5
  23  -5  -5 21.1572 6.14056   2
 -23   5   5 25.8304 6.04841   5
  23   5  -5 28.2589 5.92606   2
 -23   5   5 27.1363 7.36533   2
  21  -5  -5 57.3040 9.61984   5
  21  -5  -5 53.4303 7.86733   4
 -21  -5   5 57.9917 8.28082   3
  21  -5  -5 53.3313 9.10678   2
 -21   5   5 51.5775 8.71615   2
  21   5  -5 65.4943 8.35503   2
 -21   5   5 46.8561 7.92184   5
  19  -5  -5 47.6060 7.73580   4
  19  -5  -5 48.4923 7.87855   5
 -19  -5   5 54.8608 7.73804   3
  19  -5  -5 52.7841 8.64043   2
 -19   5   5 52.7294 7.94687   2
 -19   5   5 50.2805 7.37918   5
  19   5  -5 43.7391 7.26650   2
 -17  -5   5 10.2405 4.44871   3
  17  -5  -5 19.5817 5.48083   5
  17  -5  -5 13.3611 5.16214   2
  17  -5  -5 8.11600 4.03757   4
 -17   5   5 13.6669 4.70619   2
 -17   5   5 13.8220 4.46305   5
  17   5  -5 10.1164 4.13492   2
  17   5  -5 14.5723 5.91327   5
  15  -5  -5 72.4681 8.62366   2
  15  -5  -5 66.2843 8.54137   5
  15  -5  -5 56.1314 7.24231   4
 -15  -5   5 64.0129 7.67987   3
 -15   5   5 68.2955 7.91745   5
 -15   5   5 70.6032 8.20139   2
  15   5  -5 59.0032 8.46008   5
  15   5  -5 75.5763 7.60786   2
  13  -5  -5 119.953 11.0830   4
  13  -5  -5 127.498 11.9560   5
  13  -5  -5 128.574 11.8904   2
 -13  -5   5 131.938 11.2261   3
  13   5  -5 120.503 11.3621   5
 -13   5   5 150.097 12.1144   5
 -13   5   5 144.376 12.1832   2
  13   5  -5 128.633 11.2056   2
  11  -5  -5 217.906 16.4193   4
  11  -5  -5 224.742 17.0075   5
 -11  -5   5 199.128 15.8054   5
 -11  -5   5 209.149 16.3825   3
  11  -5  -5 214.955 16.8458   2
 -11   5   5 213.103 17.1655   5
  11   5  -5 192.720 16.3629   5
 -11   5   5 221.552 17.3479   2
  11   5  -5 208.120 16.4045   2
   9  -5  -5 477.434 35.5117   4
   9  -5  -5 523.075 35.8465   5
  -9  -5   5 482.874 35.5724   5
   9  -5  -5 449.408 35.5771   2
  -9  -5   5 483.677 35.5309   3
   9  -5  -5 584.977 128.686   1
  -9   5   5 480.129 36.3208   2
   9   5  -5 489.612 35.5336   5
   9   5  -5 520.760 35.6525   2
  -9   5   5 486.058 36.3050   5
   9   5  -5 433.754 72.1879   1
   7  -5  -5 433.404 78.0408   1
  -7  -5   5 450.967 33.3161   3
  -7  -5   5 477.703 33.8481   5
   7  -5  -5 483.669 33.3887   5
  -7  -5   5 357.557 55.4771   1
   7  -5  -5 436.539 33.2449   2
   7  -5  -5 468.080 33.3515   4
   7   5  -5 482.774 33.4307   2
  -7   5   5 458.882 34.1659   2
  -7   5   5 470.040 34.1392   5
   7   5  -5 387.389 64.6435   1
   7   5  -5 454.876 33.3156   5
   5  -5  -5 706.408 48.4374   5
   5  -5  -5 637.129 48.3745   2
  -5  -5   5 653.747 49.7285   2
  -5  -5   5 714.999 49.4343   5
  -5  -5   5 688.690 48.6964   3
  -5  -5   5 656.703 47.9969   4
   5  -5  -5 676.968 48.6176   4
   5   5  -5 717.379 48.7277   2
  -5   5   5 664.317 49.3439   2
  -5   5   5 652.490 49.2000   5
   5   5  -5 685.184 48.6259   5
   5   5  -5 656.012 75.1385   1
  -3  -5   5 338.396 24.6036   5
  -3  -5   5 318.355 23.0184   4
   3  -5  -5 303.432 22.9386   5
  -3  -5   5 305.623 25.1036   2
  -3  -5   5 340.549 48.9472   1
   3  -5  -5 230.563 49.2518   1
   3  -5  -5 306.189 23.3242   4
  -3   5   5 270.617 23.8784   2
   3   5  -5 353.354 23.4841   5
  -3   5   5 301.525 23.8064   5
   3   5  -5 371.222 23.6060   2
   3   5  -5 341.408 52.9690   1
   1  -5  -5 972.802 72.7243   4
   1  -5  -5 936.186 72.1211   5
  -1  -5   5 1113.68 74.0312   5
  -1  -5   5 998.513 94.4914   1
  -1  -5   5 1042.14 74.2932   2
   1  -5  -5 823.266 92.5470   1
   1   5  -5 1145.74 72.9690   2
  -1   5   5 969.916 73.1154   2
   1   5  -5 1112.20 72.8535   5
   1   5  -5 1067.41 98.9761   1
  -1   5   5 1005.12 72.9601   5
   1  -5   5 111.977 12.7301   2
  -1  -5  -5 128.102 10.1052   4
   1  -5   5 128.281 32.9608   1
  -1  -5  -5 136.424 9.81514   3
   1  -5   5 128.676 11.9868   5
  -1   5  -5 111.639 46.7887   1
  -1   5  -5 117.134 10.1282   2
   1   5   5 130.554 10.5393   2
  -1   5  -5 131.221 10.2079   5
   1   5   5 125.471 10.2857   5
   3  -5   5 287.945 61.0030   1
   3  -5   5 369.525 31.6797   2
   3  -5   5 393.704 31.3043   5
  -3  -5  -5 418.549 43.0758   1
  -3  -5  -5 436.906 29.4993   3
   3   5   5 430.435 29.8283   2
   3   5   5 423.039 29.6960   5
  -3   5  -5 484.822 80.4180   1
  -5  -5  -5 167.339 11.5154   3
  -5  -5  -5 178.364 11.9054   4
   5  -5   5 134.052 14.1972   2
   5  -5   5 139.537 13.6144   5
  -5   5  -5 123.809 11.7429   2
   5   5   5 154.696 11.6574   2
   5   5   5 141.194 11.6134   5
  -7  -5  -5 261.491 17.6735   4
   7  -5   5 208.723 19.4377   5
  -7  -5  -5 241.033 17.3988   3
   7  -5   5 209.919 19.9318   2
   7   5   5 228.780 17.3268   2
  -9  -5  -5 48.2503 5.63366   3
   9  -5   5 50.9701 63.0765   1
   9  -5   5 54.1561 8.98919   2
  -9  -5  -5 48.1444 5.53007   4
   9  -5   5 58.4975 8.69609   5
  -9   5  -5 20.6953 39.6558   1
  -9   5  -5 68.1487 6.12529   2
  11  -5   5 150.652 15.0364   2
  11  -5   5 167.683 14.8385   5
 -11  -5  -5 122.792 11.7877   4
 -11  -5  -5 120.299 11.8113   3
 -11   5  -5 165.460 12.5121   5
 -11   5  -5 168.756 12.4387   2
 -13  -5  -5 676.441 56.1778   4
  13  -5   5 810.707 58.6558   2
  13  -5   5 828.676 58.5139   5
 -13  -5  -5 727.492 56.3987   3
 -13   5  -5 875.536 56.8423   2
 -15  -5  -5 840.859 67.5034   3
  15  -5   5 934.563 69.5547   5
  15  -5   5 999.591 69.8808   2
 -15  -5  -5 806.108 67.2754   4
 -15   5  -5 980.023 67.8442   2
 -15   5  -5 1075.16 68.1326   5
  17  -5   5 680.299 54.1127   5
 -17  -5  -5 679.783 52.0832   3
  17  -5   5 799.595 54.6683   2
 -17   5  -5 705.378 52.2982   5
 -17   5  -5 734.075 52.4647   3
 -17   5  -5 693.560 52.3026   2
 -19  -5  -5 191.511 16.8354   3
  19  -5   5 210.602 19.4678   2
 -19  -5  -5 177.636 16.3389   4
  19  -5   5 231.270 20.1442   5
 -19   5  -5 218.488 17.1134   5
 -21  -5  -5 50.7098 7.64885   3
  21  -5   5 41.1861 10.0331   5
  21  -5   5 63.1729 10.1835   2
 -21  -5  -5 44.0173 6.79904   4
 -21   5  -5 43.4441 7.03373   5
 -23  -5  -5 3.48991 4.87777   3
  23  -5   5 8.38386 7.90052   2
  23  -5   5 -3.7474 10.0724   5
 -23   5  -5 6.96048 6.25020   5
 -23   5  -5 13.6036 5.33963   3
 -25  -5  -5 6.25733 5.42514   3
  25  -5   5 18.1093 8.58621   2
 -25   5  -5 13.9992 5.25302   3
  27  -5   5 3.07572 8.06378   2
 -27  -5  -5 17.5172 6.14565   3
 -27   5  -5 13.6917 5.67709   3
  29  -5   5 -8.5507 12.9009   2
  26  -6  -5 157.823 16.2108   2
 -26  -6   5 165.303 15.3173   3
  26   6  -5 187.982 16.3498   2
 -24  -6   5 98.2790 11.1979   3
  24  -6  -5 96.9491 11.8493   2
  24  -6  -5 104.664 18.2276   5
  24   6  -5 116.544 11.7875   2
 -24   6   5 89.3102 13.9345   2
 -24   6   5 99.4318 15.1926   5
 -22  -6   5 138.521 13.7511   3
  22  -6  -5 131.951 14.7192   5
  22  -6  -5 115.063 13.5390   4
  22  -6  -5 155.538 14.5586   2
 -22   6   5 144.767 14.2235   2
  22   6  -5 167.850 13.7445   2
 -22   6   5 137.877 13.6340   5
  20  -6  -5 140.607 14.0419   2
  20  -6  -5 130.631 12.7928   4
  20  -6  -5 126.264 14.0706   5
 -20  -6   5 124.732 13.1703   3
 -20   6   5 141.014 13.6087   2
 -20   6   5 142.392 13.1320   5
  20   6  -5 142.155 13.0865   2
  18  -6  -5 57.7962 9.40327   5
  18  -6  -5 50.7237 8.85510   2
 -18  -6   5 50.8333 7.98939   3
  18  -6  -5 47.3287 7.60889   4
 -18   6   5 61.3419 8.58389   2
  18   6  -5 69.3040 8.31694   2
 -18   6   5 60.5022 8.24552   5
  16  -6  -5 2.51520 3.65543   4
 -16  -6   5 6.62750 4.23295   3
  16  -6  -5 4.61908 4.59945   5
  16  -6  -5 8.66617 5.08914   2
 -16   6   5 2.52414 4.13788   2
  16   6  -5 2.62067 3.94208   2
 -16   6   5 3.64492 3.77613   5
  14  -6  -5 115.148 12.4081   2
 -14  -6   5 127.193 11.7599   3
  14  -6  -5 138.929 12.6988   5
  14  -6  -5 117.846 11.6605   4
  14   6  -5 139.897 12.9098   5
  14   6  -5 138.520 11.8758   2
 -14   6   5 138.223 12.6687   2
 -14   6   5 143.688 12.6679   5
 -12  -6   5 22.7227 4.33813   3
  12  -6  -5 19.8597 4.63534   5
  12  -6  -5 14.1847 4.64685   2
  12  -6  -5 14.8910 3.51963   4
 -12   6   5 14.7827 4.69612   2
 -12   6   5 20.6064 4.95056   5
  12   6  -5 12.4489 4.16109   5
  12   6  -5 19.0018 4.12469   2
  10  -6  -5 364.853 28.8691   5
  10  -6  -5 408.560 28.8952   4
 -10  -6   5 384.290 28.7703   3
  10  -6  -5 372.505 28.8646   2
  10   6  -5 401.134 28.8447   2
 -10   6   5 424.317 29.8899   2
  10   6  -5 359.219 28.7090   5
 -10   6   5 380.076 29.6597   5
   8  -6  -5 413.675 29.0439   5
  -8  -6   5 400.380 29.1105   3
   8  -6  -5 369.226 28.9802   2
  -8  -6   5 373.839 28.7747   5
   8  -6  -5 427.626 29.2146   4
  -8   6   5 387.365 29.9771   5
  -8   6   5 378.290 29.9416   2
   8   6  -5 381.050 29.0446   5
   8   6  -5 405.586 29.1562   2
   6  -6  -5 1067.48 70.6347   4
   6  -6  -5 1030.63 70.2288   5
   6  -6  -5 930.900 70.1658   2
  -6  -6   5 1016.54 70.6192   3
  -6  -6   5 1000.95 70.8484   5
   6   6  -5 974.006 70.5386   2
  -6   6   5 959.507 71.3073   2
  -6   6   5 933.129 71.1503   5
   6   6  -5 950.648 70.4321   5
   4  -6  -5 1084.08 73.3280   5
  -4  -6   5 996.578 74.8047   2
  -4  -6   5 1063.20 73.3069   4
  -4  -6   5 1035.87 74.5798   5
   4  -6  -5 1087.25 73.8890   4
   4   6  -5 1009.69 73.7456   5
   4   6  -5 1052.12 73.8813   2
  -4   6   5 981.751 74.4798   2
  -4   6   5 1011.49 74.3705   5
   4   6  -5 951.424 121.596   1
  -2  -6   5 794.020 60.9930   2
   2  -6  -5 715.783 91.1265   1
   2  -6  -5 831.800 58.8669   5
  -2  -6   5 904.138 59.4487   4
   2  -6  -5 892.810 59.7586   4
  -2  -6   5 821.211 60.7670   5
   2   6  -5 746.286 97.5765   1
   2   6  -5 832.926 59.6794   5
  -2   6   5 835.982 60.2747   2
   2   6  -5 789.586 59.6658   2
  -2   6   5 868.943 60.1352   5
   0  -6   5 70.1158 10.8637   2
   0  -6  -5 80.6395 31.8991   1
   0  -6   5 14.4645 35.0572   1
   0  -6   5 77.7679 9.40694   5
   0  -6  -5 85.8071 7.01873   4
   0   6   5 88.1872 7.97868   2
   0   6  -5 59.2044 38.6976   1
   0   6  -5 72.2194 6.97718   5
   0   6   5 80.0676 7.83514   5
   0   6  -5 73.1632 6.96493   2
  -2  -6  -5 110.374 8.31275   4
   2  -6   5 100.887 11.9189   2
  -2  -6  -5 110.144 27.1022   1
  -2  -6  -5 99.1284 8.06208   3
   2  -6   5 87.1519 42.2571   1
   2  -6   5 91.6861 10.6911   5
  -2   6  -5 86.8037 8.13386   2
  -2   6  -5 61.3176 39.5744   1
  -2   6  -5 83.0500 8.16946   5
   2   6   5 100.328 8.70824   5
   2   6   5 96.5962 8.70832   2
   4  -6   5 2.89628 54.0106   1
   4  -6   5 10.6565 5.18829   5
  -4  -6  -5 6.90670 2.28727   4
   4  -6   5 -1.4893 5.36102   2
  -4  -6  -5 4.82738 2.60147   3
  -4   6  -5 31.0565 44.3017   1
  -4   6  -5 3.69840 2.28933   2
   4   6   5 3.64232 3.08275   2
   4   6   5 4.23679 3.70468   5
  -4   6  -5 5.36335 2.39091   5
  -6  -6  -5 208.764 16.3123   3
   6  -6   5 269.559 19.5572   5
   6  -6   5 229.682 19.7439   2
  -6  -6  -5 198.457 16.5104   4
   6   6   5 200.501 16.4005   2
   8  -6   5 76.0908 10.9605   5
  -8  -6  -5 79.6113 7.73774   4
  -8  -6  -5 84.8814 7.86593   3
   8  -6   5 82.9299 11.7592   2
  -8   6  -5 94.5457 8.35806   5
  -8   6  -5 91.1245 8.19895   2
  10  -6   5 127.024 14.5000   2
 -10  -6  -5 133.184 11.1734   3
 -10  -6  -5 143.142 11.0580   4
  10  -6   5 116.785 13.8225   5
 -10   6  -5 119.921 11.3368   5
 -12  -6  -5 396.632 25.7262   3
  12  -6   5 297.613 27.9943   2
  12  -6   5 305.705 27.7279   5
 -12   6  -5 330.821 25.7046   2
 -14  -6  -5 750.167 48.1081   4
 -14  -6  -5 714.957 48.3789   3
  14  -6   5 583.865 50.1187   2
 -14   6  -5 573.426 48.1886   2
  16  -6   5 346.377 29.3693   2
 -16  -6  -5 411.708 27.3693   3
  16  -6   5 334.793 29.3053   5
 -16   6  -5 336.747 27.1738   5
 -16   6  -5 321.105 27.1474   2
  18  -6   5 391.533 32.3794   2
  18  -6   5 362.399 32.3241   5
 -18  -6  -5 473.527 30.7462   3
 -18   6  -5 364.923 30.3397   5
 -18   6  -5 381.004 30.6909   2
  20  -6   5 59.5516 10.8526   2
 -20  -6  -5 67.4090 7.90787   4
 -20  -6  -5 77.5808 9.12668   3
  20  -6   5 41.4428 9.87645   5
 -20   6  -5 42.5384 7.65628   5
 -20   6  -5 59.8235 8.05730   3
 -20   6  -5 42.0548 9.93569   2
 -22  -6  -5 3.95989 4.65876   4
  22  -6   5 6.59246 9.49170   5
 -22  -6  -5 -0.8998 5.50762   3
  22  -6   5 -3.2287 7.46066   2
 -22   6  -5 1.08438 4.65450   3
 -22   6  -5 -0.0070 6.06666   5
  24  -6   5 18.7056 8.96081   2
 -24  -6  -5 39.6932 7.16575   3
 -24   6  -5 39.2982 6.85878   3
  26  -6   5 38.7753 9.31809   2
 -26  -6  -5 58.5734 8.01088   3
 -26   6  -5 39.4233 6.48668   3
  25  -7  -5 2.77011 7.51552   2
 -25  -7   5 11.2717 5.91747   3
 -25   7   5 14.4655 17.1585   2
  23  -7  -5 7.69802 6.28367   4
  23  -7  -5 8.21001 7.40656   2
 -23  -7   5 0.84593 5.46657   3
 -23   7   5 2.32754 6.59289   2
  23   7  -5 -2.7520 6.36186   2
  21  -7  -5 18.5684 6.77499   5
 -21  -7   5 13.2893 5.30895   3
  21  -7  -5 8.39287 5.75816   4
  21  -7  -5 10.2684 6.90906   2
 -21   7   5 1.62353 5.78614   2
 -21   7   5 7.82913 5.27459   5
  21   7  -5 7.29663 5.75741   2
  19  -7  -5 30.4745 7.24771   5
  19  -7  -5 30.0977 7.75497   2
 -19  -7   5 40.1215 7.72273   3
  19  -7  -5 23.9482 5.96655   4
  19   7  -5 37.4992 6.76317   2
 -19   7   5 32.2559 6.60686   2
 -19   7   5 35.4817 6.89906   5
  17  -7  -5 180.268 17.1302   4
 -17  -7   5 201.913 17.5961   3
  17  -7  -5 208.336 18.6203   2
  17  -7  -5 218.288 18.4083   5
  17   7  -5 210.500 17.3878   2
 -17   7   5 193.932 18.0169   5
 -17   7   5 222.670 18.1829   2
  15  -7  -5 175.202 15.4864   4
 -15  -7   5 184.517 15.6422   3
  15  -7  -5 182.266 16.3078   5
  15  -7  -5 173.055 16.5107   2
 -15   7   5 161.195 16.0982   5
  15   7  -5 180.003 15.5231   2
 -15   7   5 213.396 16.6208   2
  13  -7  -5 69.3731 10.1278   2
  13  -7  -5 87.7673 9.49829   5
 -13  -7   5 87.6389 8.82109   3
  13  -7  -5 85.9463 8.91244   4
 -13   7   5 85.2104 10.0619   2
 -13   7   5 88.0530 10.3855   5
  13   7  -5 74.1498 11.9440   5
  13   7  -5 85.2222 8.85836   2
 -11  -7   5 157.393 13.7767   3
  11  -7  -5 178.119 14.0532   5
  11  -7  -5 186.147 14.1305   4
  11  -7  -5 166.059 14.4410   2
  11   7  -5 159.135 13.9006   2
 -11   7   5 163.522 15.2104   5
  11   7  -5 130.036 14.3409   5
 -11   7   5 182.398 15.1876   2
   9  -7  -5 374.932 26.6452   4
  -9  -7   5 326.464 26.4029   3
   9  -7  -5 372.913 26.3004   5
   9   7  -5 319.521 26.5623   5
  -9   7   5 381.245 27.7309   2
   9   7  -5 340.146 26.4621   2
  -9   7   5 343.080 27.5958   5
   7  -7  -5 28.3468 4.81211   4
  -7  -7   5 36.1305 4.81312   3
   7  -7  -5 29.5030 4.49835   5
  -7   7   5 34.7715 6.58005   5
  -7   7   5 31.9281 6.26675   2
   7   7  -5 42.9389 5.16514   2
   7   7  -5 37.2258 5.67708   5
   5  -7  -5 15.5393 3.02495   4
   5  -7  -5 13.7923 2.60473   5
  -5  -7   5 13.7263 4.05439   5
  -5   7   5 16.1194 5.12257   5
   5   7  -5 9.56743 3.30344   5
   5   7  -5 9.89236 3.15296   2
  -5   7   5 16.0430 4.76362   2
   3  -7  -5 58.8435 6.26335   4
  -3  -7   5 70.9215 6.41101   4
  -3  -7   5 65.0107 8.08220   5
   3   7  -5 62.0354 6.62116   5
  -3   7   5 45.7509 7.66907   2
  -3   7   5 58.9365 8.37994   5
   3   7  -5 71.6759 6.56650   2
   1  -7  -5 7.99148 2.70684   4
  -1  -7   5 4.19161 2.90450   4
  -1  -7   5 7.49630 7.65052   2
  -1  -7   5 9.48857 4.64170   5
  -1   7   5 7.15117 4.01655   2
   1   7  -5 8.37197 2.83924   2
  -1   7   5 11.1855 4.52202   5
   1   7  -5 9.97659 3.01443   5
   1  -7   5 19.5398 7.74368   2
   1  -7   5 16.9534 5.39082   5
  -1  -7  -5 13.3658 3.01852   4
  -1   7  -5 19.4395 3.67757   5
  -1   7  -5 16.0100 3.28905   2
   1   7   5 12.4675 4.16453   2
   1   7   5 16.1321 4.71907   5
  -3  -7  -5 3.73741 2.42638   4
   3  -7   5 13.8370 7.21581   2
   3  -7   5 8.02577 5.25231   5
  -3  -7  -5 -1.4000 3.10167   3
   3   7   5 1.26919 3.60907   2
  -3   7  -5 2.91117 2.54219   5
  -3   7  -5 5.69073 2.62970   2
  -5  -7  -5 27.3096 4.12307   3
   5  -7   5 14.0937 7.40220   2
   5  -7   5 20.8851 6.36447   5
  -5  -7  -5 18.3807 3.45435   4
   5   7   5 15.2184 4.36110   2
  -5   7  -5 30.7129 4.47403   2
  -5   7  -5 30.2102 4.94600   5
   7  -7   5 196.950 18.7859   5
   7  -7   5 202.650 19.7010   2
  -7  -7  -5 222.477 16.0573   4
  -7  -7  -5 205.181 15.9155   3
  -7   7  -5 205.930 16.2459   2
   7   7   5 195.956 16.0648   2
  -7   7  -5 194.455 16.3134   5
   9  -7   5 33.1114 8.05591   5
   9  -7   5 26.5684 8.23942   2
  -9  -7  -5 24.2235 4.45615   4
  -9  -7  -5 28.1053 4.78414   3
  -9   7  -5 29.1044 4.94008   2
  -9   7  -5 39.3358 6.04104   5
 -11  -7  -5 51.0263 6.04028   4
  11  -7   5 40.9723 9.15471   2
 -11  -7  -5 46.5172 6.81621   3
  11  -7   5 43.7989 9.03734   5
 -11   7  -5 51.1017 6.93660   2
 -11   7  -5 42.5023 6.81569   5
  13  -7   5 13.3846 7.58939   2
 -13  -7  -5 23.9838 5.69821   3
  13  -7   5 8.61746 7.05588   5
 -13  -7  -5 30.9791 4.79707   4
 -13   7  -5 21.2733 5.40039   2
 -13   7  -5 17.8402 5.34038   5
 -15  -7  -5 84.5314 9.96905   4
  15  -7   5 136.969 14.6672   2
 -15  -7  -5 104.875 11.1957   3
  15  -7   5 118.147 14.1369   5
 -15   7  -5 118.014 11.4430   2
 -15   7  -5 99.2284 11.2222   5
  17  -7   5 17.2929 8.12353   2
  17  -7   5 12.9102 7.33752   5
 -17   7  -5 22.0606 6.08773   5
 -17   7  -5 25.2216 6.60978   2
  19  -7   5 9.07403 7.94287   5
  19  -7   5 -2.7898 7.49693   2
 -19  -7  -5 6.61469 4.34085   4
 -19  -7  -5 4.58249 5.85614   3
 -19   7  -5 8.49743 7.41212   2
 -19   7  -5 5.44386 4.60965   3
 -19   7  -5 2.47328 5.57604   5
 -21  -7  -5 0.77865 5.68080   3
  21  -7   5 -0.8742 7.59267   2
  21  -7   5 5.37158 8.83942   5
 -21  -7  -5 0.69403 5.13114   4
 -21   7  -5 2.30206 4.91850   3
 -21   7  -5 2.11866 6.22438   5
 -23  -7  -5 25.9163 6.61276   4
 -23  -7  -5 22.1941 6.73498   3
  23  -7   5 2.47685 8.23365   2
 -23   7  -5 20.0260 5.43642   3
  25  -7   5 23.8430 8.86761   2
 -25  -7  -5 14.5617 6.87527   3
 -25   7  -5 17.0110 5.94298   3
 -24  -8   5 17.9738 6.61586   3
 -24   8   5 3.98896 8.92764   2
 -22  -8   5 30.6050 7.20137   3
  22  -8  -5 27.2470 6.74555   4
  22  -8  -5 34.0285 11.0229   2
 -22   8   5 27.4378 7.73177   2
 -20  -8   5 47.1535 7.97258   3
  20  -8  -5 24.1868 10.2950   2
  20  -8  -5 33.0088 6.48271   4
  20  -8  -5 24.0997 8.13057   5
 -20   8   5 24.0891 6.77646   5
  20   8  -5 44.9866 7.18057   2
 -20   8   5 41.9492 7.99762   2
  18  -8  -5 26.8369 7.21236   5
  18  -8  -5 12.2845 9.33964   2
 -18  -8   5 27.0084 7.14096   3
  18  -8  -5 26.3504 6.45188   4
  18   8  -5 27.0699 6.49192   2
 -18   8   5 24.1888 6.72986   2
 -18   8   5 29.0581 7.20370   5
  16  -8  -5 18.1830 5.72185   4
  16  -8  -5 23.4014 8.99761   2
  16  -8  -5 20.8798 6.29009   5
 -16  -8   5 23.5605 5.35769   3
 -16   8   5 17.2840 6.01092   2
  16   8  -5 14.0736 5.40079   2
 -16   8   5 18.2656 6.58172   5
  14  -8  -5 42.5571 7.25365   4
  14  -8  -5 47.1092 7.26404   5
 -14  -8   5 55.9199 7.94185   3
  14   8  -5 46.3475 7.41508   2
 -14   8   5 44.5890 7.64331   2
 -14   8   5 38.3074 7.59396   5
  12  -8  -5 109.416 10.3616   5
 -12  -8   5 94.3030 10.1731   3
  12  -8  -5 114.283 10.3606   4
 -12   8   5 94.7838 12.1990   5
 -12   8   5 100.385 11.4583   2
  12   8  -5 90.5749 10.1820   2
 -10  -8   5 127.079 11.8357   3
  10  -8  -5 138.453 11.9588   4
  10  -8  -5 140.343 11.5518   5
 -10   8   5 157.833 13.6486   2
  10   8  -5 126.929 11.8890   2
  10   8  -5 110.280 13.4255   5
 -10   8   5 115.252 13.6632   5
   8  -8  -5 87.0486 8.41349   5
   8  -8  -5 100.964 9.23308   4
   8   8  -5 91.3696 9.24396   2
  -8   8   5 96.1983 10.6876   2
  -8   8   5 111.858 12.0630   5
   8   8  -5 83.4190 10.3957   5
   6  -8  -5 57.4709 6.07483   5
   6  -8  -5 74.5988 7.23914   4
   6   8  -5 69.7499 7.32385   2
  -6   8   5 63.7877 10.1991   5
  -6   8   5 61.6263 8.90259   2
   6   8  -5 53.8924 7.98123   5
  -4  -8   5 42.6659 6.03484   5
   4  -8  -5 44.0777 5.73454   4
   4   8  -5 50.9538 6.10821   2
  -4   8   5 50.6399 8.19410   5
  -4   8   5 48.4806 8.08687   2
   4   8  -5 45.5409 6.68185   5
  -2  -8   5 88.2821 8.40306   4
  -2  -8   5 85.6002 9.48939   5
   2  -8  -5 85.0095 8.27788   4
   2   8  -5 99.6193 8.64951   2
  -2   8   5 80.8049 9.85980   2
   2   8  -5 84.6940 8.83066   5
  -2   8   5 84.6350 10.8213   5
   0  -8   5 11.2038 5.14293   5
   0  -8   5 20.7858 3.97283   4
   0   8   5 25.2263 6.35297   5
   0   8   5 30.8273 5.57963   2
   0   8  -5 10.7308 3.72559   5
   0   8  -5 17.9459 3.96708   2
   2  -8   5 -2.1712 8.96088   2
   2  -8   5 21.7536 4.06854   4
   2  -8   5 10.4851 5.60568   5
  -2   8  -5 12.6923 3.67491   5
  -2   8  -5 8.15501 3.27049   2
   4  -8   5 24.9702 9.58919   2
   4  -8   5 29.4673 7.49064   5
  -4   8  -5 41.2625 5.73673   2
   4   8   5 53.4480 7.34065   2
  -4   8  -5 45.8382 6.50676   5
   6  -8   5 27.1657 7.49980   5
   6  -8   5 17.5744 8.96791   2
   6   8   5 46.5148 7.51819   2
  -6   8  -5 38.9596 5.49540   2
  -6   8  -5 23.4712 4.67262   5
   8  -8   5 98.4563 15.4242   2
  -8  -8  -5 88.0614 9.16457   4
   8  -8   5 111.576 13.7611   5
  -8  -8  -5 89.2947 9.79142   3
  -8   8  -5 111.182 10.5335   5
  -8   8  -5 110.193 10.1052   2
  10  -8   5 19.3710 9.35840   2
 -10  -8  -5 49.2152 7.33413   3
  10  -8   5 27.9464 8.33705   5
 -10   8  -5 27.4133 5.62669   5
 -10   8  -5 42.1174 6.85248   2
  12  -8   5 434.062 32.2314   2
 -12  -8  -5 356.203 28.7511   3
  12  -8   5 408.531 31.3979   5
 -12  -8  -5 311.901 28.2253   4
 -12   8  -5 373.388 29.3112   5
 -12   8  -5 398.240 29.2154   2
 -14  -8  -5 170.515 16.4800   3
  14  -8   5 208.398 19.4335   5
  14  -8   5 199.263 19.9233   2
 -14  -8  -5 153.617 15.2994   4
 -14   8  -5 208.925 17.0573   5
 -14   8  -5 194.634 16.6694   2
 -16  -8  -5 167.794 16.4244   3
  16  -8   5 169.681 18.8920   5
  16  -8   5 194.091 19.7240   2
 -16   8  -5 195.182 16.7116   2
 -16   8  -5 180.647 16.6809   5
  18  -8   5 206.492 19.8055   2
  18  -8   5 196.995 19.5007   5
 -18  -8  -5 155.376 16.4616   3
 -18   8  -5 183.207 15.8664   3
 -18   8  -5 177.782 17.3262   2
  20  -8   5 52.8858 10.8954   2
 -20  -8  -5 44.9884 7.42786   4
 -20  -8  -5 72.2164 10.2504   3
 -20   8  -5 54.6165 10.5070   2
  22  -8   5 26.0712 9.98179   2
 -22  -8  -5 9.86467 7.01070   4
 -22  -8  -5 35.1821 8.12851   3
 -22   8  -5 29.7088 6.05512   3
  24  -8   5 2.42505 9.04851   2
 -24  -8  -5 -0.6040 7.55746   3
 -24   8  -5 -0.0739 6.13680   3
 -23  -9   5 36.2614 6.56750   3
  21  -9  -5 70.2436 9.99345   4
 -21  -9   5 75.2651 10.0543   3
 -21   9   5 79.4078 11.5394   2
  19  -9  -5 13.4614 5.67445   4
 -19  -9   5 22.8819 6.55767   3
  19   9  -5 17.1717 8.20887   2
 -19   9   5 24.0681 6.75348   2
  17  -9  -5 35.3838 8.34503   5
 -17  -9   5 33.7125 7.12811   3
  17  -9  -5 45.7207 7.71916   4
  17   9  -5 51.5787 7.69003   2
 -17   9   5 36.4291 8.29605   5
 -17   9   5 33.5677 7.60805   2
  15  -9  -5 26.4870 6.00005   4
  15  -9  -5 30.6707 7.41030   5
 -15  -9   5 45.8663 8.18487   3
  15   9  -5 48.8780 7.28565   2
 -15   9   5 33.1209 8.08064   5
 -15   9   5 38.4481 7.52480   2
  13  -9  -5 117.748 11.5955   4
  13  -9  -5 108.703 11.6333   5
 -13  -9   5 105.047 11.6020   3
  13   9  -5 114.782 11.7665   2
 -13   9   5 123.487 13.1764   2
 -13   9   5 116.367 14.3754   5
  11  -9  -5 405.227 32.8594   5
  11  -9  -5 473.507 33.9504   4
 -11   9   5 480.206 35.1189   2
  11   9  -5 450.613 33.7100   2
 -11   9   5 418.563 35.2048   5
   9  -9  -5 444.383 35.9036   5
   9  -9  -5 531.111 37.3183   4
  -9   9   5 552.495 38.7127   2
   9   9  -5 487.529 37.1525   2
  -9   9   5 470.057 38.6075   5
   7  -9  -5 749.584 51.4279   4
   7   9  -5 610.475 51.4982   5
   7   9  -5 675.042 51.2774   2
  -7   9   5 709.562 52.8960   5
  -7   9   5 754.545 52.7018   2
   5  -9  -5 1111.01 79.5630   4
   5   9  -5 1151.71 79.7437   2
  -5   9   5 1076.80 80.6959   5
   5   9  -5 1021.50 79.7853   5
  -5   9   5 1158.55 80.7604   2
   3  -9  -5 306.587 23.2551   4
  -3   9   5 315.367 24.6780   2
  -3   9   5 277.352 25.5888   5
   3   9  -5 283.695 23.9143   5
   3   9  -5 316.611 23.6380   2
  -1  -9   5 246.185 19.3502   4
   1  -9  -5 273.249 19.7621   4
  -1  -9   5 230.847 19.5004   5
  -1   9   5 267.511 20.9165   2
   1   9  -5 262.029 20.0799   2
   1   9  -5 218.379 20.1445   5
   1  -9   5 28.0773 5.11865   4
  -1  -9  -5 33.9415 5.25248   4
   1  -9   5 22.4001 6.14190   5
   1   9   5 32.5178 6.44534   2
  -1   9  -5 26.0740 5.27019   2
  -1   9  -5 20.1632 5.41545   5
   3  -9   5 63.3792 10.1296   5
   3  -9   5 58.1623 7.65541   4
  -3  -9  -5 75.6807 7.46274   4
   3   9   5 67.5313 9.22481   2
  -3   9  -5 57.0026 8.57758   5
  -3   9  -5 63.4695 7.59065   2
   5  -9   5 9.49295 4.26277   4
   5  -9   5 8.95655 6.47607   5
  -5  -9  -5 8.64090 3.88037   4
   5   9   5 9.47483 6.15016   2
  -5   9  -5 7.49000 3.78417   2
  -5   9  -5 0.22749 4.25481   5
   7  -9   5 12.8884 11.5963   2
   7  -9   5 55.8720 9.63087   5
  -7  -9  -5 37.0300 6.89707   3
  -7  -9  -5 46.4556 6.60172   4
  -7   9  -5 68.7459 7.85504   2
  -7   9  -5 56.1710 8.52849   5
  -9  -9  -5 38.0679 7.15079   3
   9  -9   5 19.7433 11.7054   2
   9  -9   5 35.7614 8.99098   5
  -9   9  -5 53.3971 7.70415   2
 -11  -9  -5 254.560 19.3664   3
  11  -9   5 205.247 23.8341   2
  11  -9   5 217.166 21.6685   5
 -11   9  -5 236.130 19.3098   2
 -11   9  -5 216.599 19.5746   5
 -13  -9  -5 105.720 12.3956   3
 -13  -9  -5 117.635 10.4431   4
  13  -9   5 101.476 15.2873   5
 -13   9  -5 75.1265 11.6237   5
 -13   9  -5 108.007 11.6240   2
 -15  -9  -5 260.670 21.4503   3
 -15  -9  -5 288.629 20.2716   4
  15  -9   5 227.725 24.4871   2
  15  -9   5 220.511 23.2438   5
 -15   9  -5 254.531 21.0542   2
 -15   9  -5 217.590 20.8855   5
  17  -9   5 106.525 17.3868   2
  17  -9   5 92.5635 16.0412   5
 -17  -9  -5 114.140 11.5794   4
 -17  -9  -5 125.872 13.9737   3
 -17   9  -5 99.6101 13.3242   5
 -17   9  -5 117.664 13.1671   2
  19  -9   5 46.5980 12.8002   2
 -19  -9  -5 69.4074 10.9090   3
 -19  -9  -5 54.6460 9.33318   4
 -19   9  -5 54.5679 10.1349   2
 -19   9  -5 79.8461 8.93291   3
 -21  -9  -5 7.66049 8.72864   3
  21  -9   5 2.37220 10.6935   2
 -21  -9  -5 8.18950 9.43476   4
 -21   9  -5 10.6261 5.77566   3
  20 -10  -5 -5.0717 5.72257   4
 -20  10   5 -3.6071 6.73897   2
  18 -10  -5 47.0827 7.95207   4
 -18  10   5 53.5252 9.30917   2
  16 -10  -5 37.3949 7.05043   4
  16  10  -5 46.5366 8.05072   2
 -16  10   5 35.8824 7.93500   2
  14 -10  -5 125.370 12.9226   4
 -14  10   5 120.821 16.9273   5
  14  10  -5 132.683 13.2406   2
 -14  10   5 131.279 14.3855   2
  12 -10  -5 51.2204 7.83277   4
 -12  10   5 39.5395 10.8510   5
 -12  10   5 50.0295 8.77104   2
  12  10  -5 44.3448 7.47182   2
  10 -10  -5 89.4570 9.69275   4
 -10  10   5 69.4751 12.8942   5
  10  10  -5 82.1470 10.2005   2
 -10  10   5 87.8358 12.0923   2
   8 -10  -5 7.20669 4.37290   4
  -8  10   5 3.10313 10.2034   5
   8  10  -5 7.28570 5.09906   2
  -8  10   5 11.0539 6.55423   2
   6 -10  -5 16.8993 4.58044   4
  -6  10   5 35.3890 8.34103   2
   6  10  -5 35.6411 6.57922   2
  -6  10   5 18.7417 11.2249   5
   4 -10  -5 115.162 10.9229   4
   4  10  -5 94.5591 15.2611   5
   4  10  -5 126.737 11.7366   2
  -4  10   5 109.419 13.2320   2
   2 -10  -5 102.515 10.3340   4
  -2 -10   5 98.5826 10.6245   4
   2  10  -5 93.4431 13.9805   5
  -2  10   5 109.551 12.6092   2
   2  10  -5 125.914 11.1577   2
   0 -10  -5 30.0524 5.58788   4
   0 -10   5 29.5532 5.73385   4
   0  10  -5 35.9472 8.19876   5
   0  10   5 31.0958 7.50216   2
   0  10  -5 37.0826 6.33715   2
  -2 -10  -5 3.86756 3.44887   4
   2 -10   5 1.03949 6.47095   5
   2 -10   5 5.60539 4.47507   4
  -2  10  -5 7.12859 5.62998   5
   2  10   5 4.32217 6.53946   2
  -2  10  -5 9.84502 4.90313   2
   4 -10   5 11.6239 7.21530   5
  -4 -10  -5 22.4927 4.84518   4
   4 -10   5 23.2976 5.49125   4
  -4  10  -5 18.0587 5.30729   2
  -4  10  -5 26.4920 6.88618   5
   4  10   5 23.1308 7.75131   2
   6 -10   5 74.6196 9.30071   4
   6 -10   5 56.9447 10.5570   5
  -6 -10  -5 74.5292 8.23794   4
  -6  10  -5 75.0415 8.99041   2
  -6  10  -5 62.4349 10.4553   5
   8 -10   5 32.4843 6.68470   4
   8 -10   5 17.4983 8.80780   5
  -8  10  -5 42.3755 7.34387   2
  10 -10   5 1.41961 8.85674   5
 -10 -10  -5 20.1160 4.82375   4
  10 -10   5 9.80580 5.29392   4
 -10  10  -5 12.3980 5.53355   2
 -10  10  -5 10.0361 6.88002   5
 -12 -10  -5 38.0575 6.23336   4
  12 -10   5 25.3510 9.89686   5
  12 -10   5 32.9927 6.91241   4
 -12 -10  -5 23.6601 8.50226   3
 -12  10  -5 17.4635 7.76226   5
 -12  10  -5 27.0438 6.87817   2
  14 -10   5 21.4128 6.09204   4
 -14 -10  -5 33.5315 6.23458   4
 -14 -10  -5 29.0912 9.29852   3
  14 -10   5 17.6902 12.1264   5
 -14  10  -5 9.19861 7.66420   5
 -14  10  -5 26.5294 6.99594   2
 -16 -10  -5 52.9378 10.4887   3
 -16 -10  -5 53.4702 7.78978   4
  16 -10   5 18.9425 20.0183   2
  16 -10   5 40.6800 7.47202   4
 -16  10  -5 32.9217 8.34488   2
  18 -10   5 22.1911 6.71678   4
 -18 -10  -5 26.1797 10.2492   3
 -18 -10  -5 27.9394 7.37256   4
 -18  10  -5 35.0410 8.77657   2
 -18  10  -5 26.3263 5.43847   3
  20 -10   5 8.17567 6.40682   4
 -20  10  -5 -0.6033 6.54415   3
  17 -11  -5 9.70813 5.88233   4
 -17  11   5 14.1056 7.74346   2
  15 -11  -5 16.5073 6.14407   4
 -15  11   5 8.90537 7.55377   2
  13 -11  -5 22.6663 6.20469   4
 -13  11   5 11.9928 7.49598   2
  13  11  -5 16.2171 7.14893   2
  11 -11  -5 60.6755 8.63827   4
  11  11  -5 49.2388 8.23940   2
 -11  11   5 57.8684 10.0333   2
   9 -11  -5 35.6294 6.34057   4
  -9  11   5 27.5045 9.07558   2
   9  11  -5 24.2179 6.65087   2
   7 -11  -5 3.74941 4.15385   4
  -7  11   5 0.16151 7.43819   2
   7  11  -5 4.05055 5.44326   2
   5 -11  -5 17.3976 5.04221   4
  -5  11   5 12.7385 7.84732   2
   5  11  -5 19.5659 6.06839   2
   3 -11  -5 31.1368 5.62459   4
  -3  11   5 16.0982 8.01487   2
   3  11  -5 20.4195 6.30493   2
  -1 -11   5 56.2100 9.97482   4
   1 -11  -5 88.6508 8.91611   4
  -1  11   5 84.6899 12.1327   2
   1  11  -5 70.4094 10.1677   2
  -1 -11  -5 20.3283 5.20392   4
   1 -11   5 12.4189 5.74151   4
   1  11   5 26.7619 8.28359   2
  -1  11  -5 -2.1135 9.02517   5
  -1  11  -5 15.9055 5.94436   2
   3 -11   5 9.33722 5.37719   4
  -3 -11  -5 3.35365 4.10679   4
  -3  11  -5 5.87383 5.19837   2
   3  11   5 -2.5274 8.68727   2
  -3  11  -5 -7.9246 9.30058   5
   5 -11   5 16.0480 5.89723   4
  -5 -11  -5 13.9414 4.59932   4
  -5  11  -5 9.93693 5.79836   2
   7 -11   5 7.18912 5.41452   4
  -7 -11  -5 6.25187 4.40987   4
  -7  11  -5 5.22075 5.64245   2
  -7  11  -5 17.6974 9.09305   5
   9 -11   5 23.7926 6.40619   4
  -9 -11  -5 20.2584 5.50273   4
  -9  11  -5 15.6147 10.0442   5
  -9  11  -5 33.9123 7.32965   2
 -11 -11  -5 22.1109 6.00020   4
  11 -11   5 30.7852 7.18980   4
 -11  11  -5 34.5801 7.38013   2
  13 -11   5 11.5739 6.38041   4
 -13 -11  -5 15.5205 5.82485   4
 -13  11  -5 10.6026 6.59628   2
  15 -11   5 35.6834 7.93990   4
 -15 -11  -5 16.4012 7.09884   4
 -15  11  -5 17.0453 7.41747   2
  17 -11   5 18.3377 7.02720   4
 -17  11  -5 1.20716 5.59352   3
 -17  11  -5 14.8638 15.6363   2
  14 -12  -5 49.6317 8.37025   4
 -14  12   5 53.9417 10.1425   2
  12 -12  -5 224.136 18.8997   4
 -12  12   5 219.266 20.9859   2
  10 -12  -5 218.145 18.4426   4
 -10  12   5 238.777 21.2202   2
  10  12  -5 199.332 19.9738   2
   8 -12  -5 268.185 22.0053   4
   8  12  -5 252.897 22.8745   2
  -8  12   5 303.099 24.6168   2
   6 -12  -5 235.591 19.7372   4
  -6  12   5 247.663 22.6922   2
   6  12  -5 239.990 20.8585   2
   4 -12  -5 229.216 19.4437   4
   4  12  -5 254.159 20.9155   2
  -4  12   5 231.617 22.2308   2
   2 -12  -5 147.432 13.3854   4
   2  12  -5 162.445 15.3409   2
  -2  12   5 132.053 16.5636   2
   0 -12  -5 16.4562 4.96188   4
   0  12  -5 9.08560 6.74917   2
   0  12   5 1.94913 10.0012   2
   2 -12   5 40.3071 8.68460   4
  -2 -12  -5 42.4436 7.35819   4
  -2  12  -5 54.0903 9.01194   2
   2  12   5 89.7424 19.6298   2
   4 -12   5 3.50927 6.69041   4
  -4 -12  -5 -0.2607 4.43348   4
  -4  12  -5 4.42766 6.38620   2
   6 -12   5 6.06325 6.15426   4
  -6 -12  -5 4.66286 5.10314   4
  -6  12  -5 10.9126 6.66162   2
   8 -12   5 25.4831 6.95688   4
  -8  12  -5 29.6684 7.81830   2
 -10 -12  -5 31.3842 6.74531   4
  10 -12   5 22.0835 6.95028   4
 -10  12  -5 16.1912 7.09080   2
 -12 -12  -5 28.2316 7.27786   4
  12 -12   5 22.2673 7.22576   4
 -12  12  -5 20.5598 7.38322   2
 -14  12  -5 25.9451 10.6196   2
   9 -13  -5 5.87596 5.06252   4
  -9  13   5 15.5465 14.1181   2
   7 -13  -5 30.0002 6.52809   4
  -7  13   5 -2.8276 10.9577   2
   5 -13  -5 54.6575 8.56635   4
   5  13  -5 68.2938 10.6030   2
  -5  13   5 57.8364 12.6383   2
   3 -13  -5 16.8615 5.43703   4
   3  13  -5 20.5610 8.38944   2
  -3  13   5 29.7419 12.2941   2
   1 -13  -5 1.61041 4.91407   4
   1  13  -5 11.9542 8.10798   2
  -1 -13  -5 -0.1406 4.70242   4
  -1  13  -5 -0.4108 7.65124   2
  -3 -13  -5 7.99165 5.42072   4
  -3  13  -5 7.07892 7.61713   2
  -5 -13  -5 15.1164 5.95905   4
  -5  13  -5 4.04991 7.36158   2
  -7 -13  -5 6.16633 6.48215   4
  -7  13  -5 7.43956 7.29204   2
  -9  13  -5 -3.2610 7.44226   2
  30   0  -6 126.772 12.2370   2
  28   0  -6 182.935 16.0172   2
  26   0  -6 347.355 25.7366   2
  26   0  -6 287.549 26.4184   5
  24   0  -6 224.579 17.8514   2
  24   0  -6 176.635 17.9103   5
 -24   0   6 209.199 21.2733   5
 -24   0   6 192.865 17.3998   3
  22   0  -6 150.098 14.5282   2
 -22   0   6 146.385 13.9675   3
 -22   0   6 158.430 13.3904   5
  22   0  -6 153.044 14.9602   5
 -20   0   6 1256.09 96.9614   3
 -20   0   6 1413.31 97.3349   5
  20   0  -6 1407.67 98.3620   5
  18   0  -6 209.877 18.3735   2
  18   0  -6 234.405 18.6840   5
 -18   0   6 228.325 17.5729   5
 -18   0   6 210.125 17.3283   3
 -18   0   6 216.291 18.6101   2
  16   0  -6 773.638 61.3033   5
  16   0  -6 855.471 61.5824   2
 -16   0   6 852.756 61.2484   2
 -16   0   6 884.163 61.0444   5
 -16   0   6 843.589 60.3889   3
 -14   0   6 390.565 28.5227   5
 -14   0   6 360.700 27.7217   3
  14   0  -6 413.959 28.9069   2
 -14   0   6 350.931 28.6982   2
  14   0  -6 386.028 28.7727   5
 -12   0   6 1127.25 83.2701   5
  12   0  -6 1187.61 83.3479   2
 -12   0   6 1159.58 82.4183   3
  12   0  -6 1178.98 83.3174   5
 -12   0   6 1075.29 83.4252   2
  12   0  -6 1444.94 151.775   1
  10   0  -6 2070.40 189.977   1
  10   0  -6 2414.63 188.812   1
  10   0  -6 2238.74 166.691   2
  10   0  -6 2718.16 166.938   5
 -10   0   6 2288.31 166.910   5
 -10   0   6 2292.75 165.979   3
 -10   0   6 2408.64 167.210   2
   8   0  -6 1815.06 129.694   5
  -8   0   6 1764.32 129.074   3
   8   0  -6 1800.34 147.997   1
   8   0  -6 2000.83 129.798   2
   8   0  -6 1690.02 149.571   1
  -8   0   6 1872.84 130.284   2
  -8   0   6 1833.01 130.014   5
   6   0  -6 1832.30 119.803   2
  -6   0   6 1733.52 120.096   5
   6   0  -6 1707.35 136.164   1
  -6   0   6 1610.12 120.246   2
   6   0  -6 1542.52 135.570   1
   4   0  -6 361.442 27.7666   5
  -4   0   6 385.484 28.4461   2
   4   0  -6 396.129 27.8724   2
  -4   0   6 397.709 28.1933   5
   2   0  -6 602.212 39.0365   5
   2   0  -6 490.825 51.2333   1
  -2   0   6 567.199 54.5569   1
  -2   0   6 563.199 39.3417   5
  -2   0   6 553.837 39.5450   2
   2   0  -6 503.993 38.8218   4
   2   0  -6 524.896 38.9864   2
   0   0  -6 110.352 21.0366   1
   0   0  -6 101.262 7.43675   5
   0   0   6 144.087 34.9772   1
   0   0   6 92.8431 8.13538   2
   0   0   6 94.1709 7.89260   5
   0   0  -6 88.9572 7.50648   4
   0   0  -6 95.0951 7.51984   2
  -2   0  -6 67.1997 5.87048   4
   2   0   6 67.2028 6.08544   5
  -2   0  -6 63.5028 17.2122   1
  -2   0  -6 61.1351 5.66452   2
   2   0   6 96.1685 22.7291   1
  -2   0  -6 71.9817 5.56865   5
   2   0   6 75.5329 6.53451   2
  -4   0  -6 3374.01 228.122   5
  -4   0  -6 3179.01 228.379   4
   4   0   6 3208.77 228.678   2
  -4   0  -6 3108.01 239.692   1
  -4   0  -6 3218.45 228.130   2
   4   0   6 3337.82 243.266   1
   4   0   6 3238.05 228.541   5
   6   0   6 1222.17 86.0709   5
  -6   0  -6 1219.74 85.8779   4
   6   0   6 1193.27 102.439   1
  -6   0  -6 1318.73 85.5342   5
  -6   0  -6 1215.44 85.5378   2
  -6   0  -6 1040.27 96.7756   1
  -8   0  -6 3481.19 249.740   4
  -8   0  -6 3518.33 249.674   3
  -8   0  -6 3638.59 249.325   5
   8   0   6 3364.64 267.307   1
   8   0   6 3627.42 250.301   2
   8   0   6 3580.99 250.073   5
 -10   0  -6 1317.62 99.8785   4
  10   0   6 1473.31 100.711   2
  10   0   6 1380.89 100.380   5
 -10   0  -6 1452.33 99.9350   3
  12   0   6 1949.31 141.731   5
 -12   0  -6 2043.99 141.112   4
 -12   0  -6 1955.88 140.254   5
  12   0   6 2045.98 142.003   2
 -12   0  -6 1949.50 141.015   3
  14   0   6 649.196 45.7995   2
 -14   0  -6 603.017 44.2650   3
  14   0   6 578.967 45.5096   5
 -14   0  -6 605.622 44.2742   4
 -16   0  -6 177.824 14.7249   4
 -16   0  -6 199.517 14.9553   3
  16   0   6 187.113 17.2694   2
  16   0   6 164.500 17.6747   5
  18   0   6 400.757 30.8633   2
  18   0   6 357.517 31.9159   5
 -18   0  -6 374.431 28.5278   3
 -20   0  -6 182.694 15.3150   3
  20   0   6 205.653 18.4962   2
  20   0   6 150.093 21.9559   5
  22   0   6 466.680 35.9787   2
 -22   0  -6 428.425 33.5830   3
  24   0   6 104.154 14.8458   2
 -24   0  -6 106.836 10.7924   3
 -26   0  -6 48.9671 7.92191   3
  26   0   6 77.1478 12.1164   2
  28   0   6 37.8585 11.4166   2
 -28   0  -6 52.8975 7.73750   3
 -30   0  -6 73.4680 9.14952   3
  31  -1  -6 -3.3400 4.91248   2
  31   1  -6 3.87490 5.89949   2
  29  -1  -6 1.10088 4.80892   2
  29   1  -6 11.3968 5.18742   2
  27  -1  -6 8.15282 5.18919   2
  27   1  -6 7.89925 4.75441   2
  25  -1  -6 6.43653 6.18022   5
 -25  -1   6 2.36500 6.30510   3
  25  -1  -6 15.4909 5.78813   2
 -25   1   6 10.8641 6.63166   5
  25   1  -6 9.94014 7.43973   5
  25   1  -6 12.7774 5.34324   2
 -23  -1   6 32.1812 6.54048   3
  23  -1  -6 16.6406 5.40484   2
  23  -1  -6 17.7680 5.58785   5
 -23   1   6 28.5023 5.74659   5
  23   1  -6 26.6465 6.52108   5
  23   1  -6 31.3008 6.20090   2
 -21  -1   6 212.723 17.0695   3
  21  -1  -6 219.034 17.8770   2
  21  -1  -6 204.209 17.8119   5
 -21  -1   6 198.206 16.2401   5
  21   1  -6 187.142 17.3777   2
 -21   1   6 204.213 16.5842   5
  21   1  -6 192.208 17.6862   5
 -21   1   6 191.557 16.7747   3
  19  -1  -6 99.6791 10.4880   2
 -19  -1   6 96.5119 9.62081   3
 -19  -1   6 98.6175 9.25333   5
  19  -1  -6 94.5348 10.6552   5
  19   1  -6 97.0508 10.1606   2
  19   1  -6 74.1168 10.0431   5
 -19   1   6 94.7667 9.62048   3
 -19   1   6 91.6745 10.9146   2
 -19   1   6 104.615 9.39314   5
  17  -1  -6 27.4767 5.66656   2
 -17  -1   6 34.9952 5.02513   3
 -17  -1   6 26.9124 4.67971   5
  17  -1  -6 19.9126 4.84227   5
 -17   1   6 24.1072 4.53527   3
  17   1  -6 24.7039 4.80445   5
 -17   1   6 33.8958 6.03457   2
  17   1  -6 17.3641 4.50488   2
 -17   1   6 32.3972 5.10262   5
  15  -1  -6 6.87439 3.24738   5
 -15  -1   6 17.0361 3.44018   3
 -15  -1   6 10.1123 3.39272   5
 -15  -1   6 14.1613 4.96347   2
  15  -1  -6 8.87409 3.75979   2
 -15   1   6 11.6808 4.18310   2
 -15   1   6 10.5224 3.22885   5
 -15   1   6 6.76457 3.20893   3
  15   1  -6 11.9074 3.37322   5
  15   1  -6 17.0827 4.03375   2
  13  -1  -6 185.634 62.0524   1
  13  -1  -6 98.3962 10.2561   5
  13  -1  -6 52.9002 61.6900   1
  13  -1  -6 117.197 10.3577   2
 -13  -1   6 122.299 10.8690   2
 -13  -1   6 121.463 9.47533   3
 -13  -1   6 122.919 10.2280   5
 -13   1   6 119.339 10.2759   5
  13   1  -6 152.250 52.3708   1
 -13   1   6 101.254 9.19613   3
 -13   1   6 104.617 10.5553   2
  13   1  -6 130.636 10.3062   5
  11  -1  -6 253.219 20.3589   4
 -11  -1   6 309.991 21.4125   5
  11  -1  -6 246.656 49.6047   1
  11  -1  -6 254.194 21.0326   2
 -11  -1   6 314.686 20.4628   3
  11  -1  -6 271.236 21.1245   5
 -11  -1   6 289.136 21.6628   2
  11   1  -6 322.739 61.3383   1
 -11   1   6 249.686 20.1012   3
 -11   1   6 255.061 21.4478   2
  11   1  -6 300.100 21.1373   5
 -11   1   6 247.858 21.1670   5
  11   1  -6 316.023 59.7915   1
  11   1  -6 317.095 21.2151   2
  -9  -1   6 58.0014 4.97800   3
   9  -1  -6 73.4345 28.5514   1
   9  -1  -6 57.7936 5.60693   2
   9  -1  -6 49.1867 5.00023   4
  -9  -1   6 61.3807 6.73882   2
   9  -1  -6 62.0210 5.73480   5
   9  -1  -6 80.7668 33.4104   1
  -9  -1   6 62.7608 6.23689   5
   9   1  -6 55.5982 5.46177   2
  -9   1   6 54.9618 6.49963   2
  -9   1   6 55.4905 6.14256   5
   9   1  -6 66.7576 39.9770   1
   9   1  -6 47.1773 23.3281   1
   9   1  -6 55.2091 5.54065   5
  -7  -1   6 22.9579 4.16354   2
   7  -1  -6 18.7547 2.80150   4
  -7  -1   6 20.4733 2.75441   3
   7  -1  -6 27.3623 19.1947   1
  -7  -1   6 24.8188 3.78249   5
   7  -1  -6 24.1223 3.18440   5
   7  -1  -6 7.88338 21.2030   1
   7  -1  -6 24.8203 3.18679   2
   7   1  -6 26.8739 3.12042   2
   7   1  -6 3.03356 16.6873   1
  -7   1   6 17.2755 3.73114   2
   7   1  -6 20.1338 3.07723   5
   7   1  -6 6.77663 31.3605   1
  -7   1   6 20.9687 3.50802   5
  -5  -1   6 305.668 45.4201   1
  -5  -1   6 242.835 18.8840   2
   5  -1  -6 252.406 36.1711   1
  -5  -1   6 239.888 18.5763   5
   5  -1  -6 234.598 17.7764   4
   5  -1  -6 228.784 35.9311   1
   5  -1  -6 285.234 18.2134   2
  -5   1   6 231.813 18.4383   5
  -5   1   6 244.659 18.7780   2
   5   1  -6 227.651 18.0806   2
   5   1  -6 297.835 48.2654   1
   5   1  -6 241.091 18.0990   5
  -3  -1   6 212.952 32.6853   1
   3  -1  -6 210.848 30.3394   1
  -3  -1   6 220.609 16.9263   2
  -3  -1   6 239.912 16.6584   5
   3  -1  -6 208.837 15.8764   4
   3  -1  -6 248.516 16.1723   2
   3  -1  -6 161.591 30.8826   1
   3  -1  -6 236.945 16.0947   5
  -3   1   6 221.088 16.3950   5
   3   1  -6 228.627 38.5115   1
   3   1  -6 202.845 16.0566   5
   3   1  -6 193.689 16.0574   2
  -3   1   6 207.809 16.6762   2
   1  -1  -6 81.4031 5.74016   5
   1  -1  -6 66.1981 5.69627   4
  -1  -1   6 77.4593 6.40653   5
  -1  -1   6 57.9756 17.1731   1
   1  -1  -6 82.6829 19.1778   1
  -1  -1   6 73.0009 6.88528   2
   1  -1  -6 66.5177 5.76978   2
   1   1  -6 49.6317 15.5136   1
  -1   1   6 65.1478 18.3563   1
   1   1  -6 68.7847 5.83619   2
  -1   1   6 63.3319 6.00530   5
  -1   1   6 64.8721 6.37488   2
   1   1  -6 75.6989 5.78781   5
   1   1  -6 65.0405 5.62768   4
  -1  -1  -6 15.8809 2.21172   5
  -1  -1  -6 11.6929 2.23831   2
   1  -1   6 12.6957 15.0024   1
  -1  -1  -6 4.05519 10.4126   1
  -1  -1  -6 18.7919 2.55343   4
   1  -1   6 25.4535 4.02170   2
   1  -1   6 23.0341 3.37906   5
  -1   1  -6 22.0837 2.73488   2
   1   1   6 13.5659 2.80779   2
   1   1   6 19.8418 15.2689   1
  -1   1  -6 20.7606 14.2036   1
  -1   1  -6 22.6460 2.51319   5
   1   1   6 13.7980 2.52928   5
  -3  -1  -6 244.220 20.1434   4
   3  -1   6 334.403 39.6217   1
  -3  -1  -6 248.268 19.8666   5
   3  -1   6 287.636 20.6928   5
  -3  -1  -6 261.224 20.0722   3
   3   1   6 268.261 20.4829   2
   3   1   6 272.869 36.3816   1
   3   1   6 262.725 20.3196   5
  -3   1  -6 305.277 20.3916   4
  -3   1  -6 315.887 20.2499   2
  -3   1  -6 301.934 36.1900   1
   5  -1   6 276.601 40.2066   1
   5  -1   6 249.711 19.4094   2
  -5  -1  -6 233.878 18.5380   4
  -5  -1  -6 250.481 18.1400   5
  -5  -1  -6 234.064 18.4519   3
  -5  -1  -6 188.273 29.4131   1
   5  -1   6 268.811 19.1784   5
   5   1   6 247.868 18.7150   5
   5   1   6 259.275 18.9605   2
  -5   1  -6 263.133 34.4914   1
   5   1   6 223.085 35.8579   1
  -5   1  -6 297.736 18.9056   4
  -7  -1  -6 807.425 55.4107   3
   7  -1   6 809.340 56.3418   2
  -7  -1  -6 878.172 54.9237   5
   7  -1   6 789.023 56.0031   5
  -7  -1  -6 755.980 66.9640   1
   7   1   6 788.005 55.6177   5
  -7   1  -6 743.239 55.2004   5
   7   1   6 874.038 73.6329   1
  -7   1  -6 658.893 55.1587   2
  -7   1  -6 689.273 55.5048   4
   9  -1   6 496.434 35.4128   5
   9  -1   6 487.751 35.6954   2
  -9  -1  -6 507.389 34.6110   3
  -9   1  -6 410.065 34.2696   2
   9   1   6 499.107 56.1402   1
  -9   1  -6 445.139 34.7171   4
  -9   1  -6 461.226 34.2902   5
   9   1   6 513.135 35.3258   2
   9   1   6 492.216 34.9955   5
  11  -1   6 720.926 55.5408   2
  11  -1   6 773.718 55.4810   5
 -11  -1  -6 767.087 54.4759   3
 -11  -1  -6 790.947 54.5140   4
  11   1   6 751.475 55.0361   5
 -11   1  -6 720.189 54.5847   4
 -11   1  -6 732.891 54.5440   3
  11   1   6 808.392 55.3283   2
  13  -1   6 565.853 45.6245   5
 -13  -1  -6 656.877 44.5163   4
  13  -1   6 596.452 45.9044   2
 -13  -1  -6 633.353 44.5067   3
 -13   1  -6 582.891 44.5235   3
  13   1   6 635.989 45.5813   2
  13   1   6 621.665 45.5263   5
 -13   1  -6 607.497 43.9904   5
 -15  -1  -6 106.194 9.00187   3
  15  -1   6 94.6470 11.6647   2
  15  -1   6 92.2721 11.9448   5
 -15  -1  -6 103.413 8.94770   4
  15   1   6 103.010 12.9707   5
  15   1   6 104.131 11.8858   2
 -15   1  -6 96.2139 8.17527   5
 -15   1  -6 95.5139 8.97677   3
  17  -1   6 17.1110 8.07716   5
 -17  -1  -6 17.4162 3.78526   3
  17  -1   6 19.7528 6.99314   2
 -17  -1  -6 12.7985 3.44981   4
  17   1   6 22.0545 8.82668   5
 -17   1  -6 14.9831 3.09058   3
  17   1   6 21.9749 7.23060   2
  19  -1   6 154.532 18.8954   5
  19  -1   6 177.247 17.2559   2
 -19  -1  -6 161.053 13.7750   3
  19   1   6 166.991 16.9068   2
 -19   1  -6 159.805 13.9407   3
  21  -1   6 82.8876 13.0886   2
  21  -1   6 80.8924 15.0687   5
 -21  -1  -6 98.9894 9.53393   3
 -21   1  -6 97.7620 9.70161   3
  21   1   6 90.7041 13.5789   2
  23  -1   6 63.1785 11.8565   2
 -23  -1  -6 87.7013 9.04750   3
 -23   1  -6 82.3868 9.32821   3
  23   1   6 82.3729 13.5506   2
  25  -1   6 3.00469 9.21119   2
 -25  -1  -6 10.6805 4.89752   3
 -25   1  -6 4.13694 4.70317   3
  25   1   6 16.5306 10.1620   2
  27  -1   6 58.2525 11.9361   2
 -27  -1  -6 56.6408 8.20167   3
  27   1   6 57.1097 12.2361   2
 -27   1  -6 60.6758 8.08963   3
 -29  -1  -6 70.9153 8.53005   3
  29  -1   6 65.3302 12.1998   2
 -29   1  -6 52.6913 8.16939   3
  30  -2  -6 17.7354 5.65076   2
  28  -2  -6 31.2752 6.93556   2
  28   2  -6 42.8559 6.92581   2
  26  -2  -6 28.5427 7.72779   5
 -26  -2   6 43.1113 7.69224   3
  26  -2  -6 49.1179 8.05162   2
 -26   2   6 38.7114 9.08787   5
  24  -2  -6 113.250 11.3177   2
 -24  -2   6 85.1950 10.8765   3
  24  -2  -6 88.2727 11.5994   5
  24   2  -6 111.961 10.6878   2
 -24   2   6 77.4291 10.2092   5
  24   2  -6 89.7589 13.0764   5
  22  -2  -6 78.8971 9.97852   5
  22  -2  -6 69.9492 9.28921   2
 -22  -2   6 57.7176 8.81770   3
  22   2  -6 79.2881 10.8547   5
  22   2  -6 65.8030 8.75070   2
 -22   2   6 65.7224 8.46370   5
 -20  -2   6 13.5255 3.92647   5
 -20  -2   6 3.36652 4.74214   3
  20  -2  -6 8.14459 4.92705   5
  20  -2  -6 8.02013 4.53136   2
 -20   2   6 17.5600 5.71759   2
 -20   2   6 12.5848 4.12318   5
  20   2  -6 6.19566 4.61336   5
  20   2  -6 12.6263 4.95199   2
  18  -2  -6 18.1674 4.89702   5
 -18  -2   6 22.4227 4.94189   3
 -18  -2   6 23.4480 4.18298   5
  18  -2  -6 18.8289 4.89950   2
 -18   2   6 28.4111 5.03206   5
  18   2  -6 20.8556 4.94730   2
  18   2  -6 19.0571 4.99030   5
 -18   2   6 17.3050 5.18686   2
  16  -2  -6 93.2890 10.8706   5
 -16  -2   6 112.452 9.97573   5
 -16  -2   6 114.095 10.0552   3
  16   2  -6 117.284 10.5209   2
 -16   2   6 114.263 10.4105   5
  16   2  -6 129.610 10.8396   5
 -16   2   6 96.3977 10.5758   2
 -14  -2   6 93.9852 7.67503   3
 -14  -2   6 79.4258 9.80421   2
  14  -2  -6 68.3312 8.30675   2
  14  -2  -6 30.2761 59.3808   1
 -14  -2   6 97.5223 8.13796   5
  14  -2  -6 75.6222 8.62836   5
  14  -2  -6 76.4025 7.40761   4
 -14   2   6 62.2830 8.37799   2
  14   2  -6 89.0307 8.16841   2
  14   2  -6 96.4674 8.36777   5
 -14   2   6 77.8476 8.15588   5
 -12  -2   6 163.657 13.7042   2
  12  -2  -6 175.458 55.7192   1
  12  -2  -6 135.029 12.0124   4
 -12  -2   6 187.813 13.1686   5
  12  -2  -6 61.8361 50.4557   1
  12  -2  -6 148.632 12.9657   2
  12  -2  -6 164.845 13.2341   5
  12   2  -6 222.371 53.9636   1
  12   2  -6 175.361 12.8521   2
 -12   2   6 137.755 13.2049   2
 -12   2   6 145.398 12.9766   5
  10  -2  -6 29.2040 3.87362   4
  10  -2  -6 32.9064 4.59652   2
 -10  -2   6 47.9183 5.22283   5
 -10  -2   6 42.9010 6.16329   2
  10  -2  -6 39.8036 36.9733   1
  10  -2  -6 35.6089 38.3471   1
 -10  -2   6 42.8503 4.04783   3
  10  -2  -6 34.7228 4.81981   5
  10   2  -6 25.3028 30.1671   1
 -10   2   6 27.5022 4.94291   2
 -10   2   6 36.5705 5.20885   5
  10   2  -6 35.2141 4.43714   5
  10   2  -6 31.9051 27.3349   1
  10   2  -6 36.2977 4.23710   2
   8  -2  -6 1215.66 84.6051   5
   8  -2  -6 1114.36 84.0736   4
   8  -2  -6 1088.49 107.869   1
   8  -2  -6 1173.23 84.5420   2
  -8  -2   6 1207.98 84.9204   5
   8  -2  -6 1274.50 111.903   1
  -8  -2   6 1223.52 84.2003   3
  -8  -2   6 1155.91 85.1367   2
   8   2  -6 1223.07 84.5798   2
  -8   2   6 1117.09 85.0349   2
   8   2  -6 1108.18 105.896   1
   8   2  -6 1312.38 84.5898   5
  -8   2   6 1193.85 84.9371   5
  -6  -2   6 17.8621 2.80393   3
  -6  -2   6 17.7384 18.2588   1
   6  -2  -6 12.6082 19.1481   1
  -6  -2   6 26.0673 3.98619   5
   6  -2  -6 20.2976 3.07040   5
   6  -2  -6 3.99922 18.9611   1
   6  -2  -6 19.1295 3.06913   2
   6  -2  -6 18.3485 2.68821   4
  -6  -2   6 18.8869 4.33637   2
   6   2  -6 19.3095 19.8173   1
   6   2  -6 27.6375 3.15799   2
  -6   2   6 24.0344 3.94605   5
   4  -2  -6 103.439 8.88077   2
  -4  -2   6 184.865 41.6778   1
   4  -2  -6 115.211 8.90990   5
   4  -2  -6 113.791 26.4671   1
  -4  -2   6 107.461 9.61088   5
   4  -2  -6 97.0354 25.8686   1
  -4  -2   6 100.286 10.1515   2
   4  -2  -6 104.620 8.73931   4
   4   2  -6 134.210 9.11931   5
  -4   2   6 110.088 9.35506   5
   4   2  -6 129.697 9.10885   2
  -4   2   6 112.123 9.69084   2
   4   2  -6 184.075 36.1187   1
   2  -2  -6 8.81778 14.0521   1
   2  -2  -6 25.2930 2.72811   5
  -2  -2   6 22.7371 18.0487   1
   2  -2  -6 23.3886 2.96998   2
  -2  -2   6 14.7582 3.92385   2
   2  -2  -6 12.6534 15.5337   1
   2  -2  -6 19.0770 2.76560   4
  -2   2   6 25.7457 3.35910   5
   2   2  -6 20.8488 2.76350   5
  -2   2   6 25.3959 3.84226   2
   2   2  -6 34.5471 21.4964   1
   2   2  -6 20.6885 2.99178   2
   0  -2   6 63.1158 20.4182   1
   0  -2  -6 113.046 7.95452   2
   0  -2  -6 74.0649 21.3637   1
   0  -2   6 84.8388 8.49654   5
   0  -2  -6 99.4894 21.9605   1
   0  -2  -6 116.339 8.04068   4
   0   2   6 108.650 8.23942   5
   0   2  -6 95.5790 7.99288   5
   0   2  -6 61.7547 18.9302   1
   0   2   6 111.332 8.55406   2
  -2  -2  -6 79.2435 6.91719   4
   2  -2   6 134.276 28.9947   1
   2  -2   6 96.8825 8.52433   2
  -2  -2  -6 75.6409 6.50019   5
  -2  -2  -6 61.2721 16.5598   1
   2  -2   6 95.3563 7.80401   5
   2   2   6 84.4172 7.36079   2
  -2   2  -6 129.311 27.2264   1
   2   2   6 82.6190 7.05556   5
  -2   2  -6 98.0343 7.11974   2
  -4  -2  -6 98.1451 6.90090   4
  -4  -2  -6 88.2617 18.3310   1
   4  -2   6 81.3411 7.71966   5
   4  -2   6 80.3900 8.42439   2
   4  -2   6 91.1306 32.4749   1
  -4  -2  -6 85.0972 6.72963   3
   4   2   6 80.3187 7.14769   2
   4   2   6 69.2751 21.2329   1
  -4   2  -6 39.0852 19.4568   1
  -4   2  -6 75.9841 6.72992   5
   4   2   6 79.2183 6.91956   5
  -6  -2  -6 206.675 17.7547   4
   6  -2   6 269.178 46.0821   1
   6  -2   6 261.048 19.3715   2
   6  -2   6 246.973 18.7681   5
  -6  -2  -6 228.173 17.7476   3
   6   2   6 245.427 17.9706   5
   6   2   6 246.147 36.1513   1
  -6   2  -6 248.109 39.7976   1
  -6   2  -6 263.513 17.9619   2
   6   2   6 231.544 18.0500   2
  -8  -2  -6 163.972 11.5015   3
   8  -2   6 98.2227 37.9469   1
   8  -2   6 145.027 13.1330   2
   8  -2   6 148.630 12.8424   5
  -8  -2  -6 118.344 25.6537   1
  -8   2  -6 162.223 11.4434   5
  -8   2  -6 98.1605 30.4109   1
   8   2   6 136.339 11.7331   5
   8   2   6 133.660 11.8933   2
  -8   2  -6 142.976 11.3861   2
 -10  -2  -6 214.604 14.3505   3
  10  -2   6 187.256 15.8118   5
  10  -2   6 167.804 15.8587   2
 -10   2  -6 176.748 14.1519   2
 -10   2  -6 175.098 14.0177   5
  10   2   6 184.515 15.2119   2
  10   2   6 170.850 14.7843   5
  12  -2   6 67.5159 9.43398   2
 -12  -2  -6 80.1353 6.95401   4
 -12  -2  -6 77.4969 6.90819   3
  12  -2   6 63.7373 9.31388   5
  12   2   6 63.7026 9.02361   2
  12   2   6 57.1257 9.37002   5
 -12   2  -6 69.1731 7.46682   2
  14  -2   6 42.9582 7.52895   5
  14  -2   6 48.3365 8.22322   2
 -14  -2  -6 43.8219 5.19736   3
 -14  -2  -6 35.5097 5.11182   4
 -14   2  -6 53.2136 5.80708   3
  14   2   6 24.4682 8.01091   5
  14   2   6 45.3275 7.76872   2
  16  -2   6 22.8486 7.47125   5
 -16  -2  -6 19.7892 4.17336   3
 -16  -2  -6 19.5217 4.11098   4
  16  -2   6 16.9381 6.23715   2
  16   2   6 24.3242 7.55904   2
 -16   2  -6 21.5124 3.80156   5
 -16   2  -6 21.1451 4.83301   3
 -18  -2  -6 17.4505 4.06605   4
  18  -2   6 16.2952 8.43477   5
 -18  -2  -6 21.9664 4.27133   3
  18  -2   6 23.7615 7.92066   2
 -18   2  -6 14.7268 4.00900   3
  18   2   6 17.2963 7.99634   2
 -18   2  -6 14.2296 3.86587   5
  20  -2   6 3.52841 10.3330   5
 -20  -2  -6 28.1181 4.63531   3
  20  -2   6 15.3706 7.76862   2
 -20  -2  -6 24.8185 4.63292   4
 -20   2  -6 13.1127 4.06247   3
  20   2   6 19.3852 8.50827   2
 -22  -2  -6 13.7024 4.37495   3
  22  -2   6 11.3921 12.1111   5
  22  -2   6 21.1581 8.78220   2
  22   2   6 12.9909 9.51784   2
 -22   2  -6 31.1064 6.14771   3
 -24  -2  -6 62.8378 7.85429   3
  24  -2   6 58.5589 10.8230   2
  24  -2   6 33.0185 18.4681   5
  24   2   6 46.0206 11.6788   2
 -24   2  -6 61.1840 8.11485   3
 -26  -2  -6 16.3542 5.76212   3
  26  -2   6 2.63743 8.79006   2
  26   2   6 -3.2500 11.7970   2
 -26   2  -6 9.18524 4.88608   3
  28  -2   6 10.2193 9.80164   2
 -28  -2  -6 15.5328 5.96163   3
 -28   2  -6 11.1749 5.50148   3
 -30  -2  -6 30.2325 6.72481   3
 -30   2  -6 50.3292 7.44311   3
  29  -3  -6 285.851 21.2118   2
  29   3  -6 229.793 20.7260   2
  27  -3  -6 187.973 16.0634   2
 -27  -3   6 160.089 16.0480   3
  27   3  -6 179.486 15.7701   2
  25  -3  -6 260.563 22.8250   5
 -25  -3   6 279.810 21.8134   3
  25  -3  -6 291.325 22.4846   2
 -25   3   6 246.580 21.7485   5
  25   3  -6 257.895 21.7182   2
  23  -3  -6 259.974 20.6803   5
  23  -3  -6 282.669 20.6560   2
 -23  -3   6 234.952 19.4823   3
  23   3  -6 224.229 19.6654   2
 -23   3   6 219.610 19.2597   5
  23   3  -6 193.799 21.4140   5
 -23   3   6 228.178 21.9495   2
  21  -3  -6 127.478 13.7531   5
  21  -3  -6 148.365 13.8032   2
 -21  -3   6 146.533 12.9555   3
  21   3  -6 142.440 13.1574   2
 -21   3   6 136.943 12.6474   5
 -21   3   6 124.519 13.5918   2
  21   3  -6 132.904 14.4064   5
  19  -3  -6 240.259 20.6021   2
  19  -3  -6 263.009 20.9490   5
 -19  -3   6 221.810 19.5161   3
  19   3  -6 270.362 20.1941   2
 -19   3   6 251.242 19.7894   5
 -19   3   6 258.809 20.2443   2
  19   3  -6 204.556 20.1176   5
 -17  -3   6 575.759 41.3670   3
 -17  -3   6 585.718 40.6888   5
  17  -3  -6 604.567 42.5093   2
  17  -3  -6 511.562 42.1412   5
  17   3  -6 509.975 41.5829   5
 -17   3   6 577.456 41.8954   2
 -15  -3   6 767.492 56.4938   5
 -15  -3   6 765.796 56.6213   3
  15  -3  -6 824.392 57.7101   5
  15  -3  -6 832.040 57.6892   2
  15  -3  -6 690.286 56.2246   4
  15   3  -6 713.731 56.9032   5
 -15   3   6 819.824 57.4367   2
  15   3  -6 805.720 57.1437   2
 -15   3   6 848.311 57.3286   5
  13  -3  -6 624.802 131.641   1
 -13  -3   6 853.714 62.0858   5
  13  -3  -6 858.023 62.6601   5
  13  -3  -6 1034.61 144.807   1
  13  -3  -6 835.401 62.5301   2
  13  -3  -6 792.306 61.6180   4
 -13  -3   6 860.832 61.8768   3
  13   3  -6 853.321 62.2843   2
 -13   3   6 928.208 62.8456   2
  13   3  -6 827.955 62.1616   5
 -13   3   6 976.555 62.7961   5
  11  -3  -6 1180.30 138.954   1
 -11  -3   6 1355.31 95.8540   5
 -11  -3   6 1339.16 95.3550   3
  11  -3  -6 1278.34 95.2117   4
  11  -3  -6 1604.03 158.360   1
  11  -3  -6 1408.95 96.0177   5
 -11  -3   6 1312.49 96.2661   2
  11  -3  -6 1301.35 95.8409   2
 -11   3   6 1453.16 96.2865   5
  11   3  -6 1318.32 95.6214   5
  11   3  -6 1220.98 127.226   1
 -11   3   6 1359.75 96.2956   2
   9  -3  -6 1134.64 81.7336   4
   9  -3  -6 1202.98 82.2371   5
  -9  -3   6 1160.47 82.4563   5
   9  -3  -6 1072.14 115.972   1
  -9  -3   6 1143.42 81.7942   3
  -9  -3   6 1153.93 82.9103   2
   9  -3  -6 1119.18 115.511   1
   9  -3  -6 1073.67 82.0603   2
  -9   3   6 1146.54 82.5944   5
   9   3  -6 1219.16 82.1451   2
   9   3  -6 1172.58 82.0511   5
   9   3  -6 1119.11 110.697   1
  -9   3   6 1172.75 82.7839   2
   7  -3  -6 891.140 68.3874   4
   7  -3  -6 991.893 68.7156   5
  -7  -3   6 969.864 88.1695   1
   7  -3  -6 847.131 94.3188   1
  -7  -3   6 1000.27 69.2576   5
   7  -3  -6 903.695 68.6083   2
  -7  -3   6 964.968 68.4880   3
   7  -3  -6 990.569 98.3074   1
  -7  -3   6 984.293 69.7583   2
   7   3  -6 1025.24 68.7771   2
   7   3  -6 1030.57 68.7318   5
   7   3  -6 927.311 91.6544   1
  -7   3   6 947.292 69.3590   2
  -7   3   6 950.875 69.1820   5
  -5  -3   6 83.0235 8.85080   2
   5  -3  -6 67.8483 6.37483   4
   5  -3  -6 68.2585 29.5138   1
   5  -3  -6 76.5850 6.58344   5
  -5  -3   6 112.380 30.8935   1
   5  -3  -6 68.1326 6.51358   2
   5  -3  -6 72.4061 38.2717   1
  -5  -3   6 89.5648 6.62596   3
  -5  -3   6 79.6650 7.39704   5
  -5   3   6 85.7166 7.81199   2
  -5   3   6 74.1437 7.28100   5
   5   3  -6 50.6429 21.7285   1
   5   3  -6 79.0241 6.70263   2
   5   3  -6 84.2569 6.67887   5
   3  -3  -6 97.2258 24.1462   1
   3  -3  -6 110.932 9.42720   2
   3  -3  -6 126.655 9.35243   5
   3  -3  -6 117.301 30.7942   1
  -3  -3   6 126.872 11.4920   2
  -3  -3   6 133.795 10.5103   5
  -3  -3   6 228.967 47.2719   1
   3  -3  -6 112.281 9.38792   4
   3   3  -6 206.429 41.4625   1
   3   3  -6 129.192 9.67366   2
  -3   3   6 109.559 10.1362   2
  -3   3   6 123.837 9.97685   5
   1  -3  -6 478.447 37.0701   2
   1  -3  -6 496.706 37.1470   4
  -1  -3   6 634.165 63.6807   1
  -1  -3   6 561.649 38.1147   5
   1  -3  -6 493.015 56.8204   1
   1  -3  -6 535.914 36.9639   5
   1  -3  -6 410.542 48.7784   1
  -1  -3   6 551.269 38.6313   2
  -1   3   6 500.600 37.3471   5
   1   3  -6 534.632 37.3632   2
  -1   3   6 497.382 37.5331   2
   1   3  -6 473.746 55.3836   1
   1   3  -6 570.324 37.3464   5
  -1  -3  -6 271.722 33.4758   1
  -1  -3  -6 279.413 40.2317   1
   1  -3   6 314.779 23.2613   2
   1  -3   6 282.870 44.0359   1
  -1  -3  -6 294.020 21.6778   4
   1  -3   6 315.222 22.7071   5
  -1  -3  -6 293.602 21.2491   5
  -1   3  -6 278.514 41.7675   1
  -1   3  -6 334.025 21.8295   5
   1   3   6 288.687 21.7460   5
  -1   3  -6 286.248 21.7751   2
   1   3   6 280.421 21.8760   2
  -3  -3  -6 518.684 52.0731   1
  -3  -3  -6 612.165 43.4249   4
  -3  -3  -6 574.804 58.8891   1
   3  -3   6 638.334 66.4129   1
   3  -3   6 642.289 44.4065   5
  -3  -3  -6 536.071 42.9666   3
   3  -3   6 658.600 44.9128   2
   3   3   6 581.106 43.3454   5
   3   3   6 601.025 43.4925   2
  -3   3  -6 613.437 62.9434   1
  -3   3  -6 636.108 43.4922   5
  -3   3  -6 655.126 43.5669   2
  -5  -3  -6 648.998 47.9858   3
  -5  -3  -6 550.699 56.0012   1
  -5  -3  -6 667.137 48.2969   4
   5  -3   6 712.006 49.7669   2
   5  -3   6 647.769 73.8654   1
  -5  -3  -6 628.217 61.2740   1
   5  -3   6 734.291 49.4261   5
   5   3   6 659.947 48.1725   5
  -5   3  -6 748.658 48.4366   2
  -5   3  -6 598.813 68.3911   1
  -5   3  -6 736.945 48.3879   5
   5   3   6 669.230 48.2961   2
  -7  -3  -6 2048.01 171.574   1
  -7  -3  -6 2276.27 163.338   4
  -7  -3  -6 2280.65 163.148   3
   7  -3   6 2349.51 164.737   2
   7  -3   6 2454.08 164.479   5
  -7  -3  -6 2034.11 170.613   1
   7   3   6 2387.48 163.249   5
  -7   3  -6 2044.55 182.763   1
   7   3   6 2441.79 163.331   2
  -7   3  -6 2581.13 163.478   5
  -7   3  -6 2423.83 163.445   2
   9  -3   6 1187.15 81.9290   5
  -9  -3  -6 1059.11 80.5415   4
   9  -3   6 1072.74 82.0027   2
   9  -3   6 1110.60 121.724   1
  -9  -3  -6 1106.06 80.4691   3
  -9   3  -6 1150.27 80.5917   2
  -9   3  -6 1244.28 80.7193   5
  -9   3  -6 967.655 105.332   1
   9   3   6 1229.07 80.7163   2
   9   3   6 1105.80 80.5884   5
  11  -3   6 924.389 70.5286   2
 -11  -3  -6 853.799 68.7571   4
  11  -3   6 969.339 70.3608   5
 -11  -3  -6 901.955 68.7621   3
 -11   3  -6 1082.76 69.0324   5
  11   3   6 1056.88 69.3715   2
 -11   3  -6 950.213 68.8486   2
 -13  -3  -6 272.672 23.6182   4
  13  -3   6 315.290 25.9148   5
 -13  -3  -6 304.906 23.7354   3
  13  -3   6 336.359 26.2606   2
 -13   3  -6 341.299 24.0875   2
  13   3   6 345.846 25.2045   2
  15  -3   6 64.5852 10.0609   2
  15  -3   6 49.0361 9.13992   5
 -15  -3  -6 47.2843 6.26660   4
 -15  -3  -6 61.2976 6.59128   3
 -15   3  -6 71.7630 7.08743   3
  15   3   6 67.0352 11.0721   2
 -15   3  -6 50.2684 7.26808   2
 -15   3  -6 67.1696 6.82342   5
  17  -3   6 24.5582 7.34772   2
 -17  -3  -6 25.9331 4.70144   3
 -17  -3  -6 19.9117 4.56050   4
  17  -3   6 26.5995 8.75606   5
 -17   3  -6 32.6774 5.75020   3
  17   3   6 25.8810 8.29970   2
 -17   3  -6 36.1452 5.64185   5
  19  -3   6 70.6428 12.2129   5
 -19  -3  -6 78.6901 8.22044   4
 -19  -3  -6 85.2512 8.26681   3
  19  -3   6 72.6556 11.8532   2
 -19   3  -6 79.6597 8.52321   3
  19   3   6 84.3473 12.8849   2
 -19   3  -6 68.9379 8.21804   5
 -21  -3  -6 101.846 10.1825   4
  21  -3   6 120.396 14.3916   2
 -21  -3  -6 131.821 10.7134   3
  21  -3   6 99.7269 14.7676   5
 -21   3  -6 113.697 10.8840   3
 -21   3  -6 89.8916 11.9355   5
  21   3   6 105.709 15.5625   2
  23  -3   6 74.4926 16.0870   5
 -23  -3  -6 118.713 10.8368   3
  23  -3   6 104.769 14.0085   2
 -23   3  -6 107.459 10.8577   3
 -25  -3  -6 37.4795 6.92514   3
  25  -3   6 24.5184 9.70970   2
 -25   3  -6 33.6891 6.12802   3
 -27  -3  -6 26.4190 5.89212   3
  27  -3   6 19.3315 9.26626   2
 -27   3  -6 17.9399 5.77997   3
 -29  -3  -6 20.4372 6.17903   3
  29  -3   6 2.44281 9.17847   2
 -29   3  -6 21.9661 5.39755   3
 -28  -4   6 21.3732 7.62422   3
  28  -4  -6 27.7882 6.60739   2
  28   4  -6 28.4630 6.56452   2
 -26  -4   6 2.20077 6.13828   3
  26  -4  -6 -7.0959 4.98892   2
  26   4  -6 9.62748 5.20629   2
  24  -4  -6 8.96230 6.19002   5
  24  -4  -6 18.4234 5.74243   2
 -24  -4   6 9.99884 5.94080   3
  24   4  -6 12.7924 5.20677   2
 -24   4   6 16.3149 5.68091   5
 -24   4   6 15.7257 12.6532   2
 -22  -4   6 18.1057 6.09296   3
  22  -4  -6 14.9305 6.05484   5
  22  -4  -6 16.8339 6.05029   2
 -22   4   6 13.0014 6.51564   2
  22   4  -6 15.5153 5.20937   2
 -22   4   6 19.6714 5.05955   5
 -20  -4   6 39.4385 6.69535   3
  20  -4  -6 23.4905 6.40434   2
  20  -4  -6 26.8875 6.61761   5
 -20   4   6 19.9490 5.07108   5
  20   4  -6 32.5127 6.03690   2
 -20   4   6 25.7358 6.16455   2
  20   4  -6 25.0536 7.63075   5
  18  -4  -6 3.93011 4.44851   5
  18  -4  -6 -1.3951 4.24426   2
  18  -4  -6 -2.5981 3.96170   4
 -18  -4   6 5.61697 4.20029   3
  18   4  -6 5.14440 3.88863   2
  18   4  -6 4.70978 5.37866   5
 -18   4   6 1.12556 3.23994   5
 -18   4   6 1.25895 3.96474   2
  16  -4  -6 12.8207 4.72799   2
 -16  -4   6 27.7806 5.03782   3
  16  -4  -6 21.4571 5.58915   5
  16  -4  -6 15.3181 4.11251   4
  16   4  -6 22.6986 4.61039   2
 -16   4   6 19.8743 4.72462   5
 -16   4   6 17.5017 4.87644   2
  14  -4  -6 33.1583 5.96597   2
 -14  -4   6 35.8805 5.44788   5
  14  -4  -6 41.8802 6.58212   5
 -14  -4   6 33.5782 5.30132   3
  14  -4  -6 34.1867 5.10408   4
 -14   4   6 38.8443 6.49242   2
 -14   4   6 35.2324 6.15778   5
  14   4  -6 41.4174 5.44059   2
  14   4  -6 44.0680 6.09135   5
 -12  -4   6 139.371 11.6586   5
 -12  -4   6 137.344 11.4438   3
  12  -4  -6 122.092 11.8066   2
  12  -4  -6 135.041 11.2904   4
  12  -4  -6 137.522 12.0213   5
  12   4  -6 151.946 11.8272   5
 -12   4   6 124.824 12.3351   2
  12   4  -6 157.953 11.7968   2
 -12   4   6 138.138 12.3245   5
  10  -4  -6 265.965 21.9988   2
 -10  -4   6 283.729 23.9490   2
 -10  -4   6 295.117 22.3109   5
  10  -4  -6 314.298 82.6003   1
 -10  -4   6 296.520 21.8340   3
  10  -4  -6 319.810 22.3048   5
  10  -4  -6 295.614 21.7685   4
 -10   4   6 296.433 22.9261   2
 -10   4   6 269.167 22.6228   5
  10   4  -6 300.390 22.0157   5
  10   4  -6 292.315 22.0331   2
  -8  -4   6 307.293 22.6798   5
   8  -4  -6 269.056 57.5646   1
  -8  -4   6 293.510 21.8841   3
  -8  -4   6 243.622 48.7783   1
   8  -4  -6 280.464 21.9865   2
   8  -4  -6 271.724 21.7759   4
  -8  -4   6 283.142 23.5781   2
   8  -4  -6 314.739 22.1145   5
  -8   4   6 297.560 22.8465   5
   8   4  -6 314.727 22.0809   5
  -8   4   6 312.818 23.1180   2
   8   4  -6 294.931 22.0472   2
   8   4  -6 291.155 60.0356   1
   6  -4  -6 68.4930 37.5903   1
  -6  -4   6 82.6087 7.90138   5
  -6  -4   6 74.3305 28.9771   1
   6  -4  -6 80.1932 6.62840   5
   6  -4  -6 89.0019 33.4138   1
  -6  -4   6 70.9685 9.55014   2
   6  -4  -6 69.0463 6.70222   2
  -6  -4   6 78.2154 6.66332   3
   6  -4  -6 69.3718 6.50670   4
  -6   4   6 78.5763 8.05689   2
  -6   4   6 75.1974 7.66159   5
   6   4  -6 81.2437 35.4126   1
   6   4  -6 73.7459 6.65551   5
   6   4  -6 81.5146 6.77240   2
  -4  -4   6 321.529 27.7939   2
   4  -4  -6 434.955 95.0261   1
   4  -4  -6 371.810 26.3375   4
   4  -4  -6 380.825 26.2010   5
   4  -4  -6 330.871 49.5891   1
   4  -4  -6 345.702 26.2208   2
  -4  -4   6 382.692 27.4403   5
  -4  -4   6 282.706 49.8281   1
   4   4  -6 331.481 54.8910   1
  -4   4   6 350.807 27.1146   2
   4   4  -6 383.654 26.5433   2
  -4   4   6 359.763 26.9313   5
   4   4  -6 381.750 26.4696   5
  -2  -4   6 441.928 55.3808   1
   2  -4  -6 438.594 31.9259   5
  -2  -4   6 483.667 33.4484   5
  -2  -4   6 454.378 33.9433   2
   2  -4  -6 380.062 49.1492   1
   2  -4  -6 471.355 62.4422   1
   2  -4  -6 433.331 32.2504   4
  -2   4   6 439.571 32.5830   5
   2   4  -6 447.001 57.2530   1
   2   4  -6 466.222 32.4660   2
  -2   4   6 421.286 32.7730   2
   2   4  -6 461.431 32.3852   5
   0  -4  -6 39.4453 3.35960   5
   0  -4  -6 8.80729 25.8627   1
   0  -4   6 42.5987 5.88952   5
   0  -4  -6 24.3672 16.3014   1
   0  -4   6 45.3609 7.25795   2
   0  -4  -6 38.8395 4.08733   4
   0  -4   6 32.9192 27.5772   1
   0   4   6 35.2211 4.62454   5
   0   4  -6 58.6944 32.5905   1
   0   4   6 42.0009 4.93442   2
   2  -4   6 463.970 60.0937   1
   2  -4   6 447.669 32.5273   5
   2  -4   6 438.726 33.0374   2
  -2  -4  -6 399.359 31.2010   4
  -2  -4  -6 371.699 53.2279   1
   2   4   6 387.497 31.2579   2
  -2   4  -6 466.852 65.9680   1
  -2   4  -6 478.562 31.4095   5
   2   4   6 378.723 31.1063   5
  -2   4  -6 500.082 31.5118   2
   4  -4   6 95.3720 9.92355   5
  -4  -4  -6 98.8614 7.75194   3
  -4  -4  -6 95.8056 26.1417   1
   4  -4   6 93.3137 10.5297   2
   4   4   6 104.626 8.20604   5
  -4   4  -6 93.4529 8.19016   5
   4   4   6 103.480 8.30542   2
  -4   4  -6 57.8890 29.0379   1
  -6  -4  -6 380.655 25.4309   3
   6  -4   6 333.603 27.5460   2
   6  -4   6 344.315 27.1590   5
   6   4   6 352.780 25.5731   5
   6   4   6 378.362 25.6770   2
  -6   4  -6 303.564 25.6727   2
  -8  -4  -6 831.913 57.6929   3
  -8  -4  -6 912.923 58.0244   4
   8  -4   6 818.752 59.7817   2
   8  -4   6 778.205 59.2726   5
  -8   4  -6 779.314 57.9279   2
   8   4   6 764.478 57.9155   5
  -8   4  -6 643.690 96.9472   1
  -8   4  -6 792.866 57.9592   5
   8   4   6 836.636 57.7483   2
 -10  -4  -6 662.831 43.1608   3
  10  -4   6 622.419 44.9742   5
  10  -4   6 615.330 45.2775   2
 -10   4  -6 540.669 43.1209   2
 -10   4  -6 543.372 43.1425   5
 -12  -4  -6 337.859 24.0551   4
  12  -4   6 312.866 26.4184   2
  12  -4   6 309.329 26.0333   5
 -12  -4  -6 314.014 23.9720   3
 -12   4  -6 308.425 24.1621   5
 -12   4  -6 297.285 24.1030   2
  12   4   6 363.134 25.1901   2
  14  -4   6 377.085 32.3072   5
 -14  -4  -6 403.146 30.2142   4
  14  -4   6 403.216 32.6696   2
 -14  -4  -6 384.392 30.1831   3
 -14   4  -6 389.532 30.4581   2
  14   4   6 458.584 31.7682   2
 -14   4  -6 433.175 30.5585   5
 -16  -4  -6 10.8699 3.57851   3
  16  -4   6 7.64290 7.22566   5
 -16  -4  -6 15.8814 3.59245   4
  16  -4   6 13.9981 6.46404   2
 -16   4  -6 12.5744 4.00305   5
  16   4   6 18.5239 8.71511   2
 -16   4  -6 11.1690 4.19699   3
 -16   4  -6 11.9711 5.62217   2
 -18  -4  -6 28.1549 5.04446   4
  18  -4   6 32.6516 9.70418   5
 -18  -4  -6 42.3616 6.19867   3
  18  -4   6 36.2207 8.62447   2
 -18   4  -6 39.5464 6.55427   5
 -20  -4  -6 94.6867 9.52656   4
  20  -4   6 96.4658 13.5568   2
  20  -4   6 107.020 15.4445   5
 -20  -4  -6 104.609 10.0761   3
 -20   4  -6 102.958 10.0931   3
 -20   4  -6 79.0407 9.91346   5
 -22  -4  -6 60.9141 7.69106   4
  22  -4   6 61.1047 13.2067   5
 -22  -4  -6 78.1376 8.70685   3
  22  -4   6 69.4020 11.7324   2
 -22   4  -6 70.0011 8.38640   3
 -22   4  -6 45.5101 10.7978   5
 -24  -4  -6 1.48933 5.25388   3
  24  -4   6 7.87193 8.40456   2
  24  -4   6 0.50696 13.4606   5
 -24   4  -6 7.63514 4.44671   3
 -26  -4  -6 2.92631 5.56675   3
  26  -4   6 -5.6149 8.71398   2
 -26   4  -6 8.57953 4.91673   3
  28  -4   6 16.1836 8.99958   2
 -28  -4  -6 16.1663 6.10855   3
 -28   4  -6 15.0206 5.52709   3
 -27  -5   6 33.5390 7.27257   3
  27  -5  -6 40.7321 7.71629   2
  27   5  -6 33.1139 7.46624   2
  25  -5  -6 106.965 11.6712   2
 -25  -5   6 95.7441 11.3916   3
  25   5  -6 96.6908 11.2947   2
  23  -5  -6 69.0276 9.87694   2
  23  -5  -6 61.7162 9.43620   5
 -23  -5   6 66.5618 8.72713   3
 -23   5   6 55.9045 9.26595   2
 -23   5   6 54.7546 9.14274   5
  23   5  -6 63.8127 8.84520   2
  21  -5  -6 147.730 15.3007   5
  21  -5  -6 164.300 15.2216   2
  21  -5  -6 124.001 15.5599   4
 -21  -5   6 154.634 14.4594   3
  21   5  -6 181.058 14.6446   2
 -21   5   6 162.798 15.0367   2
 -21   5   6 152.460 14.3015   5
  19  -5  -6 99.9265 11.2257   4
 -19  -5   6 113.169 11.5285   3
  19  -5  -6 104.786 12.0308   2
  19  -5  -6 101.514 12.1194   5
 -19   5   6 116.168 11.7711   2
  19   5  -6 105.894 18.3643   5
 -19   5   6 104.926 11.1417   5
  19   5  -6 130.648 11.5189   2
  17  -5  -6 75.9454 10.4299   5
 -17  -5   6 103.854 10.1023   3
  17  -5  -6 77.6680 10.4320   2
  17  -5  -6 77.0042 9.40106   4
  17   5  -6 105.524 9.98063   2
  17   5  -6 97.7674 11.5820   5
 -17   5   6 98.0170 10.2389   5
 -17   5   6 106.017 10.4846   2
  15  -5  -6 153.162 15.3908   2
 -15  -5   6 195.340 15.0574   3
  15  -5  -6 165.409 15.5835   5
  15  -5  -6 155.257 14.6247   4
  15   5  -6 201.213 15.1815   2
 -15   5   6 169.334 15.6370   2
 -15   5   6 187.851 15.5862   5
  15   5  -6 193.996 15.5844   5
  13  -5  -6 231.828 20.9744   2
 -13  -5   6 286.806 20.7839   3
  13  -5  -6 242.381 20.4520   4
  13  -5  -6 256.941 21.1316   5
 -13   5   6 268.904 21.5310   5
 -13   5   6 268.859 21.6165   2
  13   5  -6 293.229 20.9582   2
  13   5  -6 285.303 21.0332   5
  11  -5  -6 364.706 27.4997   5
 -11  -5   6 369.104 27.1573   5
  11  -5  -6 330.863 27.2935   2
  11  -5  -6 324.589 26.9899   4
 -11  -5   6 390.273 27.3095   3
  11   5  -6 418.089 27.5835   2
 -11   5   6 361.832 28.1829   5
 -11   5   6 346.631 28.1793   2
  11   5  -6 375.845 27.3733   5
  -9  -5   6 642.068 45.2306   3
   9  -5  -6 602.237 45.1321   4
   9  -5  -6 560.348 45.1092   2
  -9  -5   6 634.267 45.5866   5
   9  -5  -6 619.895 45.2539   5
   9   5  -6 674.325 45.4291   2
  -9   5   6 622.905 46.2824   2
  -9   5   6 610.510 46.1467   5
   9   5  -6 648.400 45.3251   5
  -7  -5   6 289.754 24.8375   2
   7  -5  -6 301.773 22.5306   4
   7  -5  -6 281.859 22.4983   2
   7  -5  -6 302.361 22.4685   5
  -7  -5   6 314.266 23.4578   5
  -7  -5   6 311.792 22.6511   3
   7   5  -6 313.523 22.6818   5
  -7   5   6 295.517 23.6981   2
  -7   5   6 294.856 23.6092   5
   7   5  -6 319.571 22.7630   2
   5  -5  -6 531.051 42.4251   2
   5  -5  -6 598.236 42.7268   4
  -5  -5   6 552.772 44.2251   2
  -5  -5   6 599.202 43.7304   5
   5  -5  -6 607.895 42.4738   5
   5   5  -6 640.161 42.8703   5
  -5   5   6 582.526 43.6433   2
  -5   5   6 573.667 43.4347   5
   5   5  -6 642.447 42.9543   2
   5   5  -6 570.195 78.3543   1
   3  -5  -6 55.6657 37.8587   1
  -3  -5   6 74.0901 10.1637   2
  -3  -5   6 65.2670 6.25170   4
  -3  -5   6 44.3192 33.0461   1
  -3  -5   6 71.8806 8.40181   5
   3  -5  -6 71.2328 5.88085   5
   3  -5  -6 71.2821 6.41957   4
   3   5  -6 77.0974 6.67618   5
  -3   5   6 67.5839 7.47550   5
   3   5  -6 74.8912 6.60022   2
  -3   5   6 74.7215 7.82577   2
   3   5  -6 36.7589 32.6484   1
   1  -5  -6 28.1687 3.87697   4
  -1  -5   6 45.4942 6.71486   5
  -1  -5   6 32.6372 6.95757   2
   1  -5  -6 28.0751 2.89080   5
  -1  -5   6 15.3871 31.9256   1
   1  -5  -6 49.7388 33.2609   1
   1   5  -6 31.7033 4.02256   2
  -1   5   6 34.0890 5.09390   2
   1   5  -6 15.7777 34.9994   1
  -1   5   6 29.3367 5.00055   5
   1   5  -6 29.3334 4.05071   5
   1  -5   6 22.8558 5.93507   2
  -1  -5  -6 19.9897 3.30016   4
   1  -5   6 46.7522 38.1598   1
  -1  -5  -6 29.8220 28.9814   1
   1  -5   6 12.2226 4.46799   5
  -1   5  -6 14.9942 2.95302   5
   1   5   6 12.7124 3.39780   2
  -1   5  -6 42.7152 43.4156   1
  -1   5  -6 15.7826 2.95025   2
   1   5   6 17.3425 3.23016   5
   3  -5   6 81.8971 51.0272   1
  -3  -5  -6 48.3195 5.33097   4
   3  -5   6 58.8708 8.03948   5
  -3  -5  -6 55.5836 5.38010   3
   3  -5   6 72.3297 9.50937   2
  -3  -5  -6 9.86827 24.1723   1
  -3   5  -6 50.6435 5.46215   2
  -3   5  -6 31.4666 56.1009   1
  -3   5  -6 67.1957 5.75635   5
   3   5   6 47.2307 5.94210   5
   3   5   6 55.9705 5.92564   2
   5  -5   6 26.8440 6.97109   2
   5  -5   6 27.7913 53.3418   1
   5  -5   6 27.7970 5.85235   5
  -5  -5  -6 34.4863 4.31506   3
  -5   5  -6 36.1842 4.64740   2
   5   5   6 39.1529 5.49941   5
  -5   5  -6 36.9251 4.66038   5
  -5   5  -6 -2.9353 38.2218   1
   5   5   6 42.8191 5.26741   2
   7  -5   6 34.8337 6.86359   5
   7  -5   6 36.5148 7.65549   2
  -7  -5  -6 38.1397 4.69448   3
   7  -5   6 46.2212 93.4518   1
  -7   5  -6 33.6229 4.87506   5
  -7   5  -6 33.7971 72.2493   1
  -7   5  -6 30.6921 4.79420   2
   7   5   6 45.5513 5.73583   2
   9  -5   6 67.7200 9.91969   5
  -9  -5  -6 75.2224 6.86347   3
   9  -5   6 88.7253 10.9277   2
  -9   5  -6 59.8852 6.76618   2
  -9   5  -6 60.7625 6.88147   5
   9   5   6 61.8002 7.40795   2
 -11  -5  -6 61.3108 6.82643   3
  11  -5   6 60.6319 10.3476   2
  11  -5   6 63.4224 10.2461   5
 -11  -5  -6 75.4327 6.78094   4
 -11   5  -6 61.3516 7.07119   5
 -11   5  -6 54.8689 6.97269   2
 -13  -5  -6 216.175 16.6318   4
  13  -5   6 209.499 19.3731   5
  13  -5   6 228.651 19.9876   2
 -13  -5  -6 208.366 16.7750   3
 -13   5  -6 193.467 16.8820   2
  15  -5   6 49.1757 9.62851   5
 -15  -5  -6 56.2130 6.74252   4
  15  -5   6 58.0359 9.95833   2
 -15  -5  -6 58.3323 7.18097   3
 -15   5  -6 59.7168 7.70639   5
 -15   5  -6 49.0896 8.06532   2
  17  -5   6 9.31042 7.72607   5
  17  -5   6 9.93065 7.03616   2
 -17  -5  -6 2.93998 3.85618   3
 -17  -5  -6 0.37620 3.31587   4
 -17   5  -6 2.74886 4.23846   5
 -17   5  -6 -2.2171 2.71481   3
 -17   5  -6 5.78766 6.01910   2
 -19  -5  -6 4.85600 4.17790   3
  19  -5   6 11.4249 7.24214   2
 -19  -5  -6 3.17378 3.83957   4
  19  -5   6 8.89240 8.11410   5
 -19   5  -6 2.77705 4.27282   3
 -19   5  -6 4.70927 4.76334   5
  21  -5   6 8.44582 9.17511   5
  21  -5   6 14.1935 7.97635   2
 -21  -5  -6 18.5061 4.71162   4
 -21  -5  -6 9.24253 5.02642   3
 -21   5  -6 3.93249 3.80934   3
 -21   5  -6 3.06901 5.52927   5
  23  -5   6 13.4875 11.6602   5
  23  -5   6 9.09192 7.97537   2
 -23  -5  -6 15.6891 6.22661   3
 -23   5  -6 3.85971 4.59283   3
  25  -5   6 -0.9324 8.27261   2
 -25  -5  -6 11.4341 5.97838   3
 -25   5  -6 3.62356 5.02851   3
 -27  -5  -6 17.4197 6.68772   3
  27  -5   6 -9.6734 8.41054   2
 -27   5  -6 6.74413 5.09098   3
 -26  -6   6 33.0267 6.89825   3
  26   6  -6 24.3604 7.22293   2
 -24  -6   6 70.9410 9.73613   3
  24   6  -6 60.9627 9.79743   2
 -24   6   6 72.8793 11.0541   2
  22  -6  -6 210.795 17.6709   2
  22  -6  -6 186.355 17.2995   5
 -22  -6   6 157.503 16.2371   3
 -22   6   6 193.861 17.0110   2
 -22   6   6 178.151 16.5554   5
  22   6  -6 167.632 15.9949   2
  20  -6  -6 273.673 22.0751   5
  20  -6  -6 251.682 20.8422   4
 -20  -6   6 242.362 21.3217   3
  20  -6  -6 290.804 22.2705   2
  20   6  -6 219.922 20.8014   2
 -20   6   6 255.954 21.2246   5
 -20   6   6 262.281 21.5955   2
  18  -6  -6 584.773 43.7395   5
  18  -6  -6 581.726 42.8700   4
  18  -6  -6 585.321 43.7117   2
 -18  -6   6 520.182 43.1169   3
  18   6  -6 561.990 43.0283   2
 -18   6   6 617.384 43.5522   5
 -18   6   6 583.090 43.5731   2
  16  -6  -6 488.897 37.7562   5
  16  -6  -6 492.322 37.6612   2
  16  -6  -6 453.558 36.8234   4
 -16  -6   6 488.421 37.3011   3
 -16   6   6 560.140 38.0204   5
 -16   6   6 571.455 38.2245   2
  16   6  -6 415.103 37.6523   5
  16   6  -6 499.739 37.2963   2
  14  -6  -6 655.794 46.6126   5
  14  -6  -6 591.575 45.9345   4
  14  -6  -6 623.046 46.4280   2
 -14  -6   6 582.671 46.1024   3
  14   6  -6 617.725 46.2108   2
 -14   6   6 708.495 47.2732   2
  14   6  -6 580.502 46.2956   5
 -14   6   6 661.069 47.0279   5
  12  -6  -6 53.5353 7.01205   5
  12  -6  -6 54.7331 7.69307   2
 -12  -6   6 47.3948 6.41973   3
  12  -6  -6 59.1726 6.78504   4
  12   6  -6 59.3304 6.94769   2
 -12   6   6 56.8956 8.45345   5
  12   6  -6 54.7676 7.75588   5
 -12   6   6 65.9594 8.68881   2
  10  -6  -6 459.418 34.4673   2
 -10  -6   6 467.966 34.5700   3
  10  -6  -6 474.120 34.5403   4
  10  -6  -6 499.553 34.5879   5
 -10  -6   6 412.276 33.8676   5
  10   6  -6 433.973 34.5414   5
  10   6  -6 473.014 34.6675   2
 -10   6   6 479.686 35.7684   5
 -10   6   6 515.427 35.9575   2
   8  -6  -6 159.091 12.7692   5
   8  -6  -6 161.029 13.0176   4
   8  -6  -6 145.495 13.1969   2
  -8  -6   6 155.073 13.5937   5
  -8  -6   6 166.639 13.0964   3
   8   6  -6 160.756 13.2040   5
   8   6  -6 188.411 13.3964   2
  -8   6   6 155.354 14.4562   5
  -8   6   6 151.407 14.4589   2
   6  -6  -6 7.92084 2.83994   4
  -6  -6   6 7.55216 4.05618   5
   6  -6  -6 5.77794 2.19918   5
  -6   6   6 8.25709 4.21445   2
   6   6  -6 7.63116 2.95542   5
   6   6  -6 8.10024 2.70834   2
  -6   6   6 8.99778 4.08496   5
  -4  -6   6 179.750 18.2310   2
   4  -6  -6 177.267 14.0197   5
   4  -6  -6 186.768 14.6757   4
  -4  -6   6 200.185 16.3816   5
   4   6  -6 191.211 14.8474   2
  -4   6   6 179.125 15.8329   2
  -4   6   6 184.585 15.7906   5
   4   6  -6 208.157 14.8825   5
  -2  -6   6 162.653 16.5278   2
   2  -6  -6 164.742 12.9595   4
  -2  -6   6 167.361 12.8068   4
   2  -6  -6 139.863 11.8163   5
  -2  -6   6 182.650 15.1028   5
  -2   6   6 151.510 13.8158   5
  -2   6   6 165.833 13.9396   2
   2   6  -6 169.152 13.0627   2
   2   6  -6 183.856 13.2076   5
   0  -6   6 254.020 21.4564   2
   0  -6  -6 161.669 48.2083   1
   0  -6   6 268.094 20.7759   5
   0  -6  -6 239.891 18.4682   4
   0   6   6 239.394 18.9818   2
   0   6  -6 253.526 18.6228   2
   0   6  -6 243.437 18.5590   5
   0   6   6 229.496 18.8503   5
  -2  -6  -6 270.303 21.7532   4
   2  -6   6 313.778 24.1383   5
   2  -6   6 296.628 24.7494   2
   2   6   6 286.705 21.9977   2
  -2   6  -6 290.993 21.9403   2
  -2   6  -6 327.463 22.0847   5
   2   6   6 261.528 21.8998   5
   4  -6   6 486.003 36.9020   5
  -4  -6  -6 463.379 34.7372   4
   4  -6   6 465.136 37.3527   2
  -4  -6  -6 445.428 34.2505   3
  -4   6  -6 511.748 35.0058   5
   4   6   6 440.439 34.5452   2
  -4   6  -6 518.161 35.0621   2
   6  -6   6 496.981 36.4519   5
   6  -6   6 472.855 36.6530   2
  -6  -6  -6 408.046 33.7737   4
  -6  -6  -6 420.376 33.4315   3
  -6   6  -6 541.107 34.3657   5
  -6   6  -6 480.914 34.1758   2
   6   6   6 431.853 33.6164   2
   8  -6   6 218.372 19.0006   5
  -8  -6  -6 180.332 15.5868   3
   8  -6   6 193.488 19.1489   2
  -8  -6  -6 168.380 15.6955   4
  -8   6  -6 222.364 16.1965   2
  -8   6  -6 234.390 16.4323   5
   8   6   6 201.816 16.1059   2
 -10  -6  -6 272.418 23.9932   4
  10  -6   6 330.619 27.4985   2
 -10  -6  -6 300.618 24.0849   3
  10  -6   6 337.221 27.0803   5
 -10   6  -6 349.289 24.6875   5
 -10   6  -6 340.072 24.5663   2
 -12  -6  -6 31.1494 5.43576   3
  12  -6   6 31.6130 8.29199   2
  12  -6   6 40.9964 8.66029   5
 -12  -6  -6 32.3517 5.55987   4
 -12   6  -6 39.8521 6.55979   5
 -12   6  -6 45.6755 6.66673   2
  14  -6   6 174.437 16.8283   2
 -14  -6  -6 133.527 12.9452   3
 -14  -6  -6 114.708 12.2102   4
  14  -6   6 159.678 16.4643   5
 -14   6  -6 167.389 13.6103   2
 -14   6  -6 145.643 13.2287   5
  16  -6   6 6.19692 7.25535   5
 -16  -6  -6 8.92131 4.95320   3
  16  -6   6 8.30148 7.06510   2
 -16   6  -6 8.43686 4.58171   5
 -16   6  -6 8.51168 5.90346   2
  18  -6   6 40.9064 9.98880   5
 -18  -6  -6 23.7796 5.24642   4
  18  -6   6 33.8571 8.95417   2
 -18  -6  -6 43.1797 7.48928   3
 -18   6  -6 54.7101 7.14438   3
 -18   6  -6 26.1188 8.19863   2
 -18   6  -6 42.4037 6.89524   5
  20  -6   6 31.3738 8.78427   2
  20  -6   6 25.2303 9.62895   5
 -20   6  -6 14.0742 6.37866   5
 -20   6  -6 25.0589 5.95680   3
 -22  -6  -6 13.1777 6.54365   3
 -22  -6  -6 12.2526 4.96120   4
  22  -6   6 -0.2191 8.24165   2
  22  -6   6 6.15312 10.8673   5
 -22   6  -6 7.22574 4.45341   3
 -24  -6  -6 16.9259 6.46225   3
  24  -6   6 7.49359 8.36139   2
 -24   6  -6 12.3807 4.75557   3
 -26  -6  -6 11.3533 7.22129   3
  26  -6   6 -4.3562 8.56282   2
 -26   6  -6 5.73225 5.30983   3
  25  -7  -6 6.30224 9.35389   2
 -25  -7   6 -1.6540 6.24881   3
  23  -7  -6 11.5907 8.52048   2
 -23  -7   6 14.8637 6.39119   3
 -23   7   6 -0.3606 7.32935   2
  23   7  -6 20.6656 6.68302   2
 -21  -7   6 0.51893 5.05211   3
  21  -7  -6 4.71865 5.75712   4
  21  -7  -6 6.14489 6.29322   5
  21  -7  -6 -2.9537 7.72402   2
  21   7  -6 4.90435 5.45060   2
 -21   7   6 -6.5509 4.85302   5
 -21   7   6 0.19545 5.58239   2
  19  -7  -6 7.49704 5.85376   5
  19  -7  -6 3.72019 7.52935   2
 -19  -7   6 16.5469 5.84023   3
  19  -7  -6 4.27191 5.34693   4
 -19   7   6 13.3947 5.88253   2
 -19   7   6 5.33781 5.37875   5
  19   7  -6 16.4626 5.49814   2
  17  -7  -6 125.676 12.4551   4
  17  -7  -6 126.084 13.1370   5
 -17  -7   6 128.196 12.7039   3
  17  -7  -6 119.543 14.2548   2
 -17   7   6 134.346 13.6063   5
 -17   7   6 129.745 13.5871   2
  17   7  -6 147.757 12.9403   2
  15  -7  -6 145.859 12.9185   5
  15  -7  -6 120.606 12.2388   4
  15  -7  -6 131.317 13.9272   2
 -15  -7   6 120.304 12.2964   3
 -15   7   6 162.247 13.9687   2
  15   7  -6 129.802 12.6181   2
 -15   7   6 124.324 13.5992   5
  13  -7  -6 105.384 10.2806   4
 -13  -7   6 103.806 10.2818   3
  13  -7  -6 87.2649 11.3700   2
  13  -7  -6 108.487 10.4646   5
  13   7  -6 104.297 12.0955   5
  13   7  -6 105.443 10.5620   2
 -13   7   6 100.979 12.1809   5
 -13   7   6 119.375 12.0190   2
  11  -7  -6 170.103 14.4849   4
  11  -7  -6 175.144 14.3568   5
 -11  -7   6 165.912 14.5002   3
 -11   7   6 176.908 15.9876   2
  11   7  -6 162.969 15.2934   5
 -11   7   6 170.119 16.3221   5
  11   7  -6 184.570 14.7927   2
  -9  -7   6 12.5107 3.51964   3
   9  -7  -6 9.28811 3.19857   5
   9  -7  -6 9.97135 3.09370   4
  -9   7   6 16.2691 5.57069   2
   9   7  -6 16.1778 3.90689   2
   9   7  -6 13.5165 4.61432   5
  -9   7   6 15.0749 5.69365   5
   7  -7  -6 51.9137 6.12510   4
  -7  -7   6 45.0675 6.94934   5
   7  -7  -6 55.3089 5.68473   5
  -7   7   6 60.5819 8.50790   2
   7   7  -6 55.7131 6.40649   2
   7   7  -6 48.5313 6.84665   5
  -7   7   6 55.4645 8.87631   5
   5  -7  -6 -0.5410 2.05909   4
   5  -7  -6 2.76615 2.12205   5
  -5  -7   6 2.74991 4.27614   5
   5   7  -6 0.85244 2.87296   5
  -5   7   6 -0.0035 4.18556   2
  -5   7   6 3.10952 4.90300   5
   5   7  -6 2.43771 2.71603   2
  -3  -7   6 43.1719 7.12432   5
   3  -7  -6 35.5676 4.91323   4
  -3   7   6 31.2349 6.16051   2
  -3   7   6 38.0761 6.38006   5
   3   7  -6 42.2850 5.22560   2
   3   7  -6 46.6212 5.64281   5
   1  -7  -6 51.1981 5.87535   4
  -1  -7   6 50.3993 6.28874   4
  -1  -7   6 63.2290 10.2717   2
  -1  -7   6 52.6163 9.21066   5
   1   7  -6 60.0990 6.18286   2
  -1   7   6 47.3086 8.15621   5
   1   7  -6 58.4231 6.34891   5
  -1   7   6 54.1709 7.57445   2
  -1  -7  -6 10.3830 2.93897   4
   1  -7   6 6.08571 5.49326   5
   1  -7   6 13.0483 8.05805   2
  -1   7  -6 14.9417 3.23283   2
  -1   7  -6 9.89223 3.14095   5
   1   7   6 12.8029 5.18068   5
   1   7   6 4.58567 4.18302   2
   3  -7   6 25.0863 6.91894   5
   3  -7   6 24.3632 8.37359   2
  -3  -7  -6 25.4188 4.38551   4
  -3   7  -6 23.4798 4.39329   2
   3   7   6 16.4166 4.71261   2
  -3   7  -6 37.5816 5.04426   5
   5  -7   6 54.4429 11.2379   2
   5  -7   6 81.8783 11.8124   5
  -5  -7  -6 83.9069 7.75081   3
  -5   7  -6 65.6801 7.49011   2
   5   7   6 94.1189 8.66732   2
  -5   7  -6 69.4339 7.78252   5
   7  -7   6 134.019 15.3140   5
  -7  -7  -6 163.324 11.8061   4
  -7  -7  -6 144.640 11.7253   3
   7  -7   6 126.126 16.4151   2
   7   7   6 153.870 12.4416   2
  -7   7  -6 118.869 11.6826   2
  -7   7  -6 116.867 11.8751   5
   9  -7   6 432.539 34.9215   2
  -9  -7  -6 426.319 31.4163   3
  -9  -7  -6 459.377 31.6573   4
   9  -7   6 433.356 34.4077   5
  -9   7  -6 392.884 31.8243   5
  -9   7  -6 398.632 31.7253   2
  11  -7   6 201.362 20.0784   5
  11  -7   6 200.464 20.2512   2
 -11  -7  -6 206.476 16.9128   3
 -11  -7  -6 198.270 16.5224   4
 -11   7  -6 210.670 17.3024   5
 -11   7  -6 215.316 17.1131   2
 -13  -7  -6 475.398 36.2828   3
  13  -7   6 480.857 38.8234   5
  13  -7   6 511.223 39.3296   2
 -13  -7  -6 489.354 36.1745   4
 -13   7  -6 477.222 36.5355   2
  15  -7   6 121.916 15.3522   2
 -15  -7  -6 104.305 11.7905   3
  15  -7   6 101.994 15.0518   5
 -15  -7  -6 107.185 10.6710   4
 -15   7  -6 110.819 11.8036   5
 -15   7  -6 119.509 11.9043   2
  17  -7   6 2.18641 8.12878   5
  17  -7   6 3.13341 7.51171   2
 -17  -7  -6 2.93796 4.04898   4
 -17  -7  -6 -1.2358 6.22126   3
 -17   7  -6 8.35246 5.47839   5
 -17   7  -6 2.83253 6.54661   2
  19  -7   6 15.7282 9.41460   5
  19  -7   6 2.88737 8.17270   2
 -19  -7  -6 10.6549 6.48046   3
 -19  -7  -6 13.7735 4.93674   4
 -19   7  -6 5.60948 6.12637   5
 -19   7  -6 3.33048 8.95137   2
 -19   7  -6 3.84528 4.54504   3
 -21  -7  -6 22.0732 5.65741   4
 -21  -7  -6 14.1134 7.12521   3
  21  -7   6 21.4904 8.88847   2
 -21   7  -6 11.9616 4.94474   3
  23  -7   6 3.32478 8.65224   2
 -23  -7  -6 9.03045 5.96866   4
 -23  -7  -6 15.7459 7.44684   3
 -23   7  -6 14.7349 5.32168   3
 -25  -7  -6 6.44891 8.93324   3
  25  -7   6 -3.1889 8.48619   2
 -25   7  -6 13.4237 5.26076   3
 -24  -8   6 43.7337 7.42281   3
 -22  -8   6 23.5502 6.54813   3
 -22   8   6 22.7967 7.07832   2
  22   8  -6 16.4530 7.47154   2
 -20  -8   6 27.5130 6.97791   3
  20  -8  -6 21.3426 17.3155   2
  20  -8  -6 37.5743 7.12257   4
 -20   8   6 37.0560 7.60458   2
  20   8  -6 46.2395 7.44827   2
  18  -8  -6 50.2243 8.93809   5
  18  -8  -6 67.1205 15.7771   2
  18  -8  -6 57.5418 8.63830   4
 -18  -8   6 46.2742 7.86938   3
 -18   8   6 57.4069 9.25204   5
  18   8  -6 61.4827 9.00361   2
 -18   8   6 59.7773 9.84147   2
 -16  -8   6 123.829 13.3401   3
  16  -8  -6 127.494 13.7856   5
  16  -8  -6 117.483 12.9117   4
 -16   8   6 160.926 14.4727   2
 -16   8   6 132.328 14.6156   5
  16   8  -6 157.919 13.3067   2
 -14  -8   6 462.052 37.6419   3
  14  -8  -6 465.010 37.2846   5
  14  -8  -6 481.360 37.4594   4
  14   8  -6 550.980 37.7111   2
 -14   8   6 487.019 38.6714   5
 -14   8   6 542.210 38.8292   2
 -12  -8   6 493.714 36.4738   3
  12  -8  -6 471.517 36.2426   4
  12  -8  -6 454.427 35.7394   5
 -12   8   6 508.329 37.6609   2
 -12   8   6 444.079 37.4422   5
  12   8  -6 520.771 36.4742   2
  10  -8  -6 437.422 32.3766   5
  10  -8  -6 457.562 33.1740   4
  10   8  -6 461.178 33.2352   2
  10   8  -6 406.536 33.7227   5
 -10   8   6 415.743 34.4871   5
 -10   8   6 445.681 34.4800   2
   8  -8  -6 253.164 20.7754   5
   8  -8  -6 280.214 21.8583   4
  -8   8   6 279.100 23.4323   2
  -8   8   6 263.042 23.6937   5
   8   8  -6 316.513 22.1559   2
   8   8  -6 283.545 22.5252   5
   6  -8  -6 459.587 34.4519   4
   6   8  -6 436.669 34.7226   5
  -6   8   6 469.053 36.0708   5
  -6   8   6 461.392 35.8929   2
   6   8  -6 486.838 34.6905   2
   4  -8  -6 6.84066 3.22436   4
  -4  -8   6 5.47540 4.62347   5
   4   8  -6 15.1957 4.26312   5
   4   8  -6 18.8506 4.18709   2
  -4   8   6 12.3000 6.61320   5
  -4   8   6 7.99041 5.18300   2
  -2  -8   6 33.3968 6.74095   5
   2  -8  -6 32.2074 5.24410   4
   2   8  -6 39.5970 6.37783   5
  -2   8   6 29.3036 7.90056   5
  -2   8   6 42.0894 7.00916   2
   2   8  -6 37.9381 5.46152   2
   0  -8   6 -1.0254 5.49369   5
   0  -8  -6 3.25611 2.95065   4
   0  -8   6 5.19154 3.60863   4
   0   8  -6 1.56332 3.19953   5
   0   8   6 6.59049 4.91467   2
   0   8  -6 0.83371 2.68301   2
   2  -8   6 10.6243 9.28636   2
  -2  -8  -6 16.5255 3.98968   4
   2  -8   6 12.5942 3.95809   4
   2  -8   6 9.33627 6.13564   5
   2   8   6 18.5291 5.29394   2
  -2   8  -6 9.30014 3.62452   2
  -2   8  -6 11.2133 4.09854   5
   4  -8   6 1.32858 8.85297   2
   4  -8   6 -0.8817 6.38282   5
  -4  -8  -6 4.14197 2.92137   4
  -4   8  -6 2.79347 2.95353   2
  -4   8  -6 2.67772 3.55582   5
   4   8   6 5.37601 5.16632   2
  -6  -8  -6 38.8630 5.34113   4
   6  -8   6 37.3555 9.05600   5
   6  -8   6 25.4477 10.1113   2
  -6   8  -6 26.3266 5.32580   5
  -6   8  -6 24.4880 4.82744   2
   6   8   6 26.6708 6.62377   2
   8  -8   6 67.2235 11.3926   5
  -8  -8  -6 83.5230 8.04217   4
   8  -8   6 59.9722 12.0993   2
  -8  -8  -6 64.7475 9.01145   3
  -8   8  -6 81.8812 9.08587   5
  -8   8  -6 71.5351 8.52075   2
 -10  -8  -6 226.500 16.9657   4
 -10  -8  -6 187.625 17.3841   3
  10  -8   6 208.169 21.9836   2
  10  -8   6 225.464 20.8511   5
 -10   8  -6 191.885 17.4747   5
 -10   8  -6 207.906 17.4297   2
 -12  -8  -6 112.035 10.7718   4
  12  -8   6 129.496 16.6961   2
  12  -8   6 109.272 15.1518   5
 -12  -8  -6 110.142 12.1730   3
 -12   8  -6 113.520 11.5432   2
  14  -8   6 125.469 16.1817   2
 -14  -8  -6 81.8304 9.88449   4
  14  -8   6 109.011 15.1333   5
 -14  -8  -6 105.693 12.2305   3
 -14   8  -6 96.8366 11.7297   5
 -14   8  -6 119.467 11.5609   2
 -16  -8  -6 40.2999 6.74241   4
 -16  -8  -6 50.5129 8.71978   3
  16  -8   6 57.0781 11.1770   2
  16  -8   6 51.7609 10.2407   5
 -16   8  -6 35.4226 7.52933   5
 -16   8  -6 47.2407 8.04812   2
 -18  -8  -6 17.2690 5.52331   4
  18  -8   6 30.7528 9.86609   2
 -18  -8  -6 24.8038 8.36898   3
  18  -8   6 18.3089 9.40889   5
 -18   8  -6 21.8532 7.11905   5
 -18   8  -6 22.6835 5.18029   3
 -18   8  -6 21.5333 8.30999   2
  20  -8   6 -0.2498 9.29643   2
 -20  -8  -6 23.7732 5.81000   4
 -20  -8  -6 17.8803 8.02666   3
 -22  -8  -6 -4.1544 6.32559   4
  22  -8   6 4.53452 9.33040   2
 -22  -8  -6 2.52338 8.36849   3
 -22   8  -6 -3.9729 5.07130   3
 -24   8  -6 6.66005 5.20729   3
  21  -9  -6 90.3317 11.8216   4
 -21   9   6 79.2981 12.5307   2
  19  -9  -6 100.312 10.9369   4
  19   9  -6 90.8689 12.0701   2
 -19   9   6 102.250 12.4513   2
  17  -9  -6 152.551 14.3035   4
 -17   9   6 173.827 15.9183   2
  17   9  -6 139.537 14.3882   2
 -17   9   6 150.789 17.9841   5
  15  -9  -6 125.237 13.7961   5
  15  -9  -6 121.614 12.2759   4
  15   9  -6 98.6541 12.0378   2
 -15   9   6 135.742 14.2082   2
 -15   9   6 118.605 14.8087   5
  13  -9  -6 134.678 13.9770   5
  13  -9  -6 140.564 13.5465   4
 -13   9   6 154.018 16.9371   5
 -13   9   6 171.779 15.6532   2
  13   9  -6 131.873 13.5941   2
  11  -9  -6 43.1547 7.26627   4
  11  -9  -6 32.0240 6.49629   5
  11   9  -6 42.0766 7.08825   2
 -11   9   6 43.7958 9.75985   5
 -11   9   6 51.7710 9.45436   2
   9  -9  -6 39.5400 6.86650   4
  -9   9   6 53.4711 10.2839   5
   9   9  -6 53.6539 7.83338   2
  -9   9   6 46.4339 9.08727   2
   7   9  -6 17.6215 6.80589   5
  -7   9   6 24.8951 9.70812   5
  -7   9   6 31.5090 7.81387   2
   7   9  -6 19.6575 5.01152   2
   5  -9  -6 36.0599 5.81985   4
  -5   9   6 35.6948 7.85904   2
   5   9  -6 20.5044 6.45497   5
  -5   9   6 36.2066 9.90408   5
   5   9  -6 29.7571 5.74626   2
   3  -9  -6 101.189 10.0976   4
  -3   9   6 110.719 12.5042   2
  -3   9   6 86.5025 15.7313   5
   3   9  -6 115.795 10.7131   2
   3   9  -6 108.035 11.8234   5
  -1  -9   6 35.5073 5.98751   4
   1  -9  -6 49.4453 6.47454   4
  -1  -9   6 42.5630 7.13123   5
   1   9  -6 52.9851 7.07364   2
   1   9  -6 50.5084 7.29733   5
  -1   9   6 45.5960 7.73899   2
   1  -9   6 51.4209 7.61885   4
  -1  -9  -6 46.8176 6.59997   4
   1  -9   6 45.0333 8.58581   5
   1   9   6 54.4460 9.14162   2
  -1   9  -6 50.0491 8.36633   5
  -1   9  -6 56.5835 6.97041   2
   3  -9   6 110.251 13.5459   5
   3  -9   6 93.3800 10.2158   4
  -3  -9  -6 97.5279 9.71616   4
   3   9   6 103.153 11.7466   2
  -3   9  -6 101.189 11.1315   5
  -3   9  -6 113.266 10.3850   2
  -5  -9  -6 239.919 21.4307   4
   5  -9   6 294.372 24.7715   5
   5  -9   6 263.661 21.7986   4
   5   9   6 259.356 22.3645   2
  -5   9  -6 310.368 22.2449   2
  -5   9  -6 292.320 22.5684   5
   7  -9   6 42.8882 9.91260   5
   7  -9   6 50.2475 13.2483   2
  -7  -9  -6 46.8471 7.08155   4
  -7   9  -6 54.5014 8.89862   5
  -7   9  -6 60.8536 8.04789   2
   9  -9   6 120.553 19.6249   2
   9  -9   6 129.691 15.9126   5
  -9  -9  -6 97.5095 10.9541   4
  -9   9  -6 123.785 12.3672   5
  -9   9  -6 130.169 12.1707   2
  11  -9   6 108.065 15.2489   5
  11  -9   6 106.158 16.2415   2
 -11  -9  -6 76.4888 12.5766   3
 -11   9  -6 124.594 11.8085   2
 -13  -9  -6 24.2717 5.37269   4
  13  -9   6 15.4616 9.39550   5
  13  -9   6 13.6689 11.7983   2
 -13  -9  -6 21.4935 7.99052   3
 -13   9  -6 11.7100 5.87167   2
 -13   9  -6 11.1192 6.17883   5
 -15  -9  -6 10.9645 5.12684   4
  15  -9   6 15.4134 11.5566   2
  15  -9   6 9.82936 9.54512   5
 -15  -9  -6 12.9893 8.52271   3
 -15   9  -6 1.77674 6.32931   2
 -15   9  -6 11.3058 6.98704   5
  17  -9   6 5.80473 11.1224   2
 -17  -9  -6 -4.4259 8.63964   3
 -17  -9  -6 5.76690 5.30681   4
 -17   9  -6 3.25934 4.39025   3
 -17   9  -6 3.43241 7.61183   2
 -19  -9  -6 0.12036 9.61932   3
 -19  -9  -6 4.37562 5.81852   4
 -19   9  -6 -0.2364 4.10887   3
 -19   9  -6 1.64133 9.73163   2
  21  -9   6 -5.6525 11.7465   2
 -21   9  -6 -1.2277 4.84957   3
 -20  10   6 17.7284 7.96893   2
  18 -10  -6 43.7065 7.65444   4
 -18  10   6 47.8927 8.93853   2
  16 -10  -6 25.2753 6.14665   4
 -16  10   6 29.6099 8.06299   2
  16  10  -6 18.7139 7.21645   2
  14 -10  -6 65.5500 9.15238   4
  14  10  -6 65.7651 10.1446   2
 -14  10   6 79.0868 11.7319   2
  12 -10  -6 48.5370 7.73406   4
 -12  10   6 29.8317 12.4057   5
 -12  10   6 45.3841 9.43514   2
  12  10  -6 54.6982 8.91607   2
  10 -10  -6 19.7330 5.42038   4
  10  10  -6 18.2099 5.99155   2
 -10  10   6 10.5891 12.3635   5
 -10  10   6 24.1842 8.30529   2
   8 -10  -6 14.0400 4.79903   4
  -8  10   6 20.8525 12.7931   5
  -8  10   6 17.0162 7.84319   2
   8  10  -6 14.2416 5.71079   2
   6 -10  -6 8.75371 4.29172   4
  -6  10   6 -0.7064 15.4313   5
   6  10  -6 11.5532 5.07660   2
  -6  10   6 8.65504 7.43669   2
   4 -10  -6 70.2640 8.45671   4
  -4  10   6 83.6211 11.7650   2
   4  10  -6 57.2282 10.9933   5
   4  10  -6 79.6127 9.38965   2
   2 -10  -6 197.570 16.7146   4
  -2  10   6 201.874 18.5305   2
   2  10  -6 175.813 19.3484   5
   2  10  -6 221.823 17.4168   2
   0 -10   6 30.8561 6.33765   4
   0 -10  -6 32.2179 5.76631   4
   0  10  -6 46.9944 8.79952   5
   0  10  -6 50.3354 7.51072   2
   0  10   6 43.1608 8.20810   2
  -2 -10  -6 10.2558 3.97639   4
   2 -10   6 13.9562 5.41067   4
   2 -10   6 11.6620 7.68621   5
   2  10   6 23.6382 7.59167   2
  -2  10  -6 18.1445 5.06698   2
  -2  10  -6 22.3371 6.71839   5
   4 -10   6 44.6043 9.99601   5
  -4 -10  -6 83.2322 8.08993   4
   4 -10   6 67.9376 8.75411   4
  -4  10  -6 57.6161 8.66842   2
  -4  10  -6 36.3148 8.23636   5
   4  10   6 62.9373 10.1683   2
   6 -10   6 70.2307 9.36560   4
   6 -10   6 55.7395 11.0630   5
  -6  10  -6 64.6301 9.16111   2
  -6  10  -6 62.0725 10.6470   5
  -8 -10  -6 215.667 16.6127   4
   8 -10   6 169.272 20.6148   5
   8 -10   6 187.092 16.8497   4
  -8  10  -6 195.070 17.1427   2
  10 -10   6 122.690 17.9101   5
 -10 -10  -6 139.525 12.5389   4
  10 -10   6 137.298 13.8170   4
 -10  10  -6 145.867 13.8004   2
 -10  10  -6 125.087 14.9936   5
  12 -10   6 29.4417 11.0540   5
  12 -10   6 42.6183 7.84286   4
 -12 -10  -6 33.0592 6.20227   4
 -12  10  -6 33.7827 8.68202   5
 -12  10  -6 38.7318 7.71109   2
 -14 -10  -6 11.0996 5.28679   4
  14 -10   6 15.7217 6.18899   4
 -14  10  -6 16.2131 6.92768   2
  16 -10   6 12.5239 6.03413   4
 -16 -10  -6 15.0629 5.88434   4
 -16  10  -6 8.03576 7.45034   2
  18 -10   6 5.27741 6.43934   4
 -18 -10  -6 4.61502 6.55543   4
 -18  10  -6 1.37515 5.47572   3
 -18  10  -6 7.06496 11.2496   2
  20 -10   6 -2.6755 7.83401   4
 -17  11   6 39.2097 9.35247   2
  15 -11  -6 418.346 33.5764   4
 -15  11   6 464.478 35.1947   2
  13 -11  -6 195.542 17.8884   4
 -13  11   6 237.527 20.4262   2
  13  11  -6 204.312 18.5925   2
  11 -11  -6 225.909 19.0781   4
  11  11  -6 217.924 19.3053   2
 -11  11   6 235.183 21.3223   2
   9 -11  -6 178.558 16.2401   4
  -9  11   6 196.750 18.7745   2
   9  11  -6 177.480 16.5799   2
   7 -11  -6 172.444 15.8609   4
  -7  11   6 187.218 18.6650   2
   7  11  -6 192.713 16.7357   2
   5 -11  -6 55.6502 8.42689   4
   5  11  -6 74.1755 9.99139   2
  -5  11   6 87.9126 11.7873   2
   3 -11  -6 20.8075 5.08901   4
   3  11  -6 27.7001 6.96526   2
  -3  11   6 24.7006 8.46295   2
   1 -11  -6 28.6456 5.79987   4
  -1  11   6 20.2621 8.67631   2
   1  11  -6 32.5054 7.13264   2
  -1 -11  -6 2.30673 4.06326   4
   1  11   6 -5.1727 8.56569   2
  -1  11  -6 6.13305 9.85670   5
  -1  11  -6 -4.0455 5.06461   2
  -3 -11  -6 36.2400 6.07910   4
   3 -11   6 22.0074 6.58234   4
  -3  11  -6 36.8790 7.00192   2
   3  11   6 23.9360 11.3594   2
  -3  11  -6 22.3003 9.73094   5
   5 -11   6 8.85803 5.92286   4
  -5 -11  -6 11.9599 4.87500   4
  -5  11  -6 4.12916 5.58382   2
  -7 -11  -6 63.9372 8.16440   4
   7 -11   6 46.3700 8.00637   4
  -7  11  -6 50.9376 13.1113   5
  -7  11  -6 68.4258 9.58222   2
  -9 -11  -6 198.352 15.9924   4
   9 -11   6 181.625 16.9866   4
  -9  11  -6 176.917 17.0575   2
 -11 -11  -6 86.1677 10.4111   4
  11 -11   6 112.078 12.3978   4
 -11  11  -6 114.166 12.1257   2
  13 -11   6 71.2678 11.3826   4
 -13 -11  -6 62.6145 9.15583   4
 -13  11  -6 82.0036 10.9367   2
  15 -11   6 71.7152 10.6655   4
 -15  11  -6 52.3391 9.58047   2
 -14  12   6 1.93027 10.0890   2
  12 -12  -6 2.13910 5.59300   4
 -12  12   6 7.56808 9.23725   2
  10 -12  -6 18.1528 6.05639   4
  10  12  -6 10.2646 8.02726   2
 -10  12   6 21.8874 10.1293   2
   8 -12  -6 4.49086 5.05765   4
   8  12  -6 10.9741 7.33736   2
  -8  12   6 8.15367 9.31011   2
   6 -12  -6 14.3708 5.36130   4
   6  12  -6 7.71979 7.08180   2
  -6  12   6 21.5229 10.0024   2
   4 -12  -6 9.64018 5.02610   4
   4  12  -6 -3.7014 6.84174   2
  -4  12   6 21.9527 9.68115   2
   2 -12  -6 4.61837 4.77683   4
  -2  12   6 26.2537 10.2517   2
   2  12  -6 0.77938 6.49062   2
   0 -12  -6 34.1719 6.67089   4
   0  12   6 61.3074 12.3969   2
   0  12  -6 56.7445 9.25711   2
  -2 -12  -6 48.7479 7.46656   4
  -2  12  -6 41.3063 8.51332   2
  -4 -12  -6 27.4576 6.13611   4
  -4  12  -6 41.3718 8.23683   2
  -6 -12  -6 13.3941 5.49118   4
   6 -12   6 19.3429 8.26861   4
  -6  12  -6 14.8073 7.10453   2
  -8 -12  -6 17.6991 5.83394   4
   8 -12   6 20.7871 7.69567   4
  -8  12  -6 14.8470 7.35127   2
  10 -12   6 16.0964 8.61215   4
 -10 -12  -6 23.2973 6.34299   4
 -10  12  -6 8.25050 6.90772   2
 -12  12  -6 11.8188 7.38141   2
   7 -13  -6 15.0062 6.26834   4
   5 -13  -6 39.5726 7.34757   4
   3 -13  -6 16.3741 5.76856   4
   3  13  -6 17.6583 8.42425   2
   1 -13  -6 12.5983 5.46638   4
   1  13  -6 21.9923 8.31466   2
  -1 -13  -6 16.8052 5.64447   4
  -1  13  -6 -0.3845 7.81554   2
  -3 -13  -6 14.4400 5.92735   4
  -3  13  -6 16.0509 7.97759   2
  -5 -13  -6 -5.6725 5.48477   4
  -5  13  -6 2.15055 7.39780   2
  -7  13  -6 19.9249 10.4309   2
  30   0  -7 11.0809 5.64312   2
  28   0  -7 43.2149 7.32010   2
  26   0  -7 17.6136 8.26203   5
  26   0  -7 40.5884 7.10412   2
  24   0  -7 41.6444 7.07164   2
  24   0  -7 29.3764 6.83710   5
 -24   0   7 26.6766 10.1014   5
  22   0  -7 51.8542 8.15167   2
 -22   0   7 41.7170 6.50510   5
  22   0  -7 37.1496 7.30134   5
  20   0  -7 114.122 11.7121   2
  20   0  -7 107.871 12.0785   5
 -20   0   7 101.050 10.6561   5
 -18   0   7 3.22035 5.69970   2
  18   0  -7 8.75612 4.77269   5
 -18   0   7 12.2121 4.78185   3
  18   0  -7 9.82920 4.67080   2
 -18   0   7 14.2390 4.23661   5
 -16   0   7 37.1503 6.04402   5
 -16   0   7 38.5918 6.66526   2
  16   0  -7 38.1895 6.48872   5
  16   0  -7 32.1551 5.89974   2
 -16   0   7 40.4145 5.83532   3
 -14   0   7 5.65985 3.11759   5
  14   0  -7 3.77848 2.84604   5
 -14   0   7 5.51776 3.02446   3
  14   0  -7 5.82460 3.05576   2
 -14   0   7 8.92393 4.20227   2
 -12   0   7 3.60284 2.67757   3
 -12   0   7 0.96720 3.22362   2
  12   0  -7 -0.1274 2.12705   2
  12   0  -7 2.25485 48.7963   1
 -12   0   7 0.09252 2.70134   5
  12   0  -7 2.32032 2.40223   5
  12   0  -7 -24.736 45.0113   1
  10   0  -7 8.48784 2.59496   2
 -10   0   7 13.4933 2.66868   3
  10   0  -7 -13.355 30.2119   1
  10   0  -7 15.0908 30.5266   1
 -10   0   7 11.5044 4.01345   2
 -10   0   7 15.9426 3.61988   5
  10   0  -7 14.3289 2.86573   5
   8   0  -7 72.6646 7.29133   2
   8   0  -7 34.7958 29.9762   1
   8   0  -7 56.3309 29.6181   1
   8   0  -7 90.7256 7.56257   5
  -8   0   7 98.0809 8.35709   5
  -8   0   7 85.0139 8.72866   2
   6   0  -7 99.0640 8.92041   2
   6   0  -7 81.6972 25.7644   1
  -6   0   7 113.008 10.0912   2
  -6   0   7 125.451 9.74302   5
   6   0  -7 93.5694 42.6660   1
  -4   0   7 178.758 14.4565   2
  -4   0   7 195.224 14.2468   5
   4   0  -7 176.091 35.5199   1
   4   0  -7 182.497 13.5516   5
   4   0  -7 178.966 13.6051   2
   4   0  -7 162.049 13.2301   4
  -2   0   7 171.227 13.6690   2
  -2   0   7 182.290 13.4989   5
   2   0  -7 155.371 12.7025   4
   2   0  -7 136.547 30.4290   1
  -2   0   7 143.236 39.3902   1
   2   0  -7 180.634 12.8644   5
   2   0  -7 168.920 12.8827   2
   0   0   7 206.719 16.4098   5
   0   0  -7 167.163 32.0616   1
   0   0   7 205.921 38.0841   1
   0   0  -7 221.065 15.9587   2
   0   0  -7 230.395 15.9432   5
   0   0   7 209.124 16.6298   2
   0   0  -7 215.880 15.9981   4
  -2   0  -7 319.065 22.0426   4
   2   0   7 289.992 22.2796   5
   2   0   7 299.555 22.6129   2
  -2   0  -7 311.443 21.7611   2
  -2   0  -7 249.191 36.6857   1
   2   0   7 259.220 44.1485   1
   4   0   7 250.455 20.6378   2
   4   0   7 236.509 44.1070   1
  -4   0  -7 279.290 19.8127   2
   4   0   7 243.575 20.3369   5
  -4   0  -7 296.194 20.2476   4
  -4   0  -7 283.162 19.7343   5
   6   0   7 124.852 11.4714   5
  -6   0  -7 129.449 10.7896   2
  -6   0  -7 148.847 11.1815   4
  -6   0  -7 147.284 10.6100   5
   6   0   7 117.723 30.3359   1
  -8   0  -7 91.7236 8.32830   3
   8   0   7 83.9376 9.26048   5
  -8   0  -7 104.385 8.53950   4
   8   0   7 92.0002 9.81847   2
  -8   0  -7 104.362 7.84661   5
  10   0   7 11.7462 4.17015   5
  10   0   7 14.9056 4.74644   2
 -10   0  -7 16.6089 3.44598   4
 -10   0  -7 12.1518 3.05824   3
 -12   0  -7 3.83807 1.88779   5
  12   0   7 8.05648 5.05359   2
 -12   0  -7 6.61457 2.72485   3
 -12   0  -7 4.49618 2.71793   4
  12   0   7 0.79196 5.08503   5
  14   0   7 0.89318 5.66652   2
 -14   0  -7 4.12847 2.41435   3
 -14   0  -7 7.02680 2.80419   4
  14   0   7 -1.9712 6.37859   5
  16   0   7 7.57950 7.96915   5
 -16   0  -7 9.22103 3.46607   3
  16   0   7 6.33939 6.57848   2
  18   0   7 4.16786 7.20436   2
  18   0   7 3.11603 10.4633   5
 -18   0  -7 2.52653 3.17922   3
 -20   0  -7 52.4072 7.45705   3
  20   0   7 45.1223 10.9764   2
 -22   0  -7 30.0554 5.78689   3
  22   0   7 26.5458 10.1874   2
 -24   0  -7 27.1893 5.62858   3
  24   0   7 13.6671 10.1143   2
  26   0   7 74.1146 13.5248   2
 -26   0  -7 101.462 10.2646   3
  28   0   7 31.0413 12.1726   2
  29  -1  -7 30.7886 5.96992   2
  29   1  -7 27.0157 6.22085   2
  27  -1  -7 6.13885 5.22853   2
  27   1  -7 10.9801 5.11629   2
  25  -1  -7 55.2994 8.45727   2
  25  -1  -7 38.0097 7.87405   5
  25   1  -7 37.8754 7.07650   2
  25   1  -7 44.4224 9.05478   5
 -25   1   7 37.5598 8.40154   5
 -23  -1   7 30.7366 12.3426   3
  23  -1  -7 23.3073 6.93271   5
  23  -1  -7 18.2582 5.76105   2
  23   1  -7 7.63579 6.46846   5
 -23   1   7 15.5358 5.50195   5
  23   1  -7 25.2464 5.98103   2
  21  -1  -7 88.7880 10.5879   2
  21  -1  -7 81.8794 10.8069   5
 -21  -1   7 81.1729 9.53438   5
 -21  -1   7 81.7519 10.7361   3
  21   1  -7 93.8057 11.1120   5
 -21   1   7 95.4164 9.57467   5
  21   1  -7 94.2570 10.3909   2
  19  -1  -7 285.282 22.2921   2
 -19  -1   7 270.073 20.9240   5
  19  -1  -7 251.344 22.0169   5
 -19  -1   7 234.919 20.8152   3
 -19   1   7 280.797 22.1385   2
  19   1  -7 250.528 21.7311   2
  19   1  -7 256.920 21.8140   5
 -19   1   7 292.730 21.3162   5
 -17  -1   7 45.5336 7.01344   3
  17  -1  -7 58.6035 8.09594   5
  17  -1  -7 52.8552 7.62239   2
 -17  -1   7 61.3998 7.15375   5
 -17   1   7 61.7052 8.68316   2
  17   1  -7 43.9192 7.63636   5
  17   1  -7 54.1484 7.45814   2
 -17   1   7 58.6572 7.14859   5
 -15  -1   7 89.4285 10.5016   2
 -15  -1   7 101.354 9.59906   5
  15  -1  -7 101.281 9.79694   2
 -15  -1   7 86.6380 8.66536   3
  15  -1  -7 113.075 10.1758   5
 -15   1   7 110.277 9.70377   5
  15   1  -7 82.6477 9.43858   5
 -15   1   7 101.854 10.3460   2
  15   1  -7 89.4247 9.45851   2
 -13  -1   7 17.5834 3.30099   3
 -13  -1   7 20.9866 5.13832   2
  13  -1  -7 16.9857 3.57114   5
  13  -1  -7 27.8861 4.67575   2
 -13  -1   7 22.0814 4.55307   5
  13   1  -7 17.1996 3.66573   2
 -13   1   7 19.0357 3.96528   5
  13   1  -7 14.9871 3.41903   5
 -13   1   7 18.4041 4.70129   2
 -11  -1   7 105.408 10.3053   2
 -11  -1   7 95.5869 9.57988   5
  11  -1  -7 115.875 9.32270   2
  11  -1  -7 43.3351 37.2845   1
  11  -1  -7 80.2229 82.7805   1
 -11  -1   7 95.6053 8.44822   3
  11  -1  -7 119.552 9.40477   5
  11   1  -7 90.0087 44.4352   1
  11   1  -7 91.0389 8.92594   2
 -11   1   7 103.212 10.1386   2
  11   1  -7 117.776 9.26758   5
 -11   1   7 97.8836 9.56495   5
  11   1  -7 144.347 82.5759   1
   9  -1  -7 197.845 14.7205   2
  -9  -1   7 211.383 15.4136   5
  -9  -1   7 202.598 14.1019   3
   9  -1  -7 193.053 47.8763   1
   9  -1  -7 163.142 14.2965   4
  -9  -1   7 193.912 15.6707   2
   9  -1  -7 231.630 55.4694   1
   9  -1  -7 201.996 14.7814   5
   9   1  -7 132.160 40.9282   1
   9   1  -7 181.452 14.6063   5
  -9   1   7 185.966 15.5940   2
  -9   1   7 192.079 15.2350   5
   9   1  -7 158.623 14.4667   2
   9   1  -7 232.922 46.1065   1
  -7  -1   7 27.3452 4.81737   5
   7  -1  -7 30.2072 3.71269   2
   7  -1  -7 26.5368 27.3929   1
   7  -1  -7 21.1569 3.69916   4
  -7  -1   7 28.6703 4.89019   2
   7  -1  -7 15.6549 21.8369   1
   7  -1  -7 33.6350 3.93504   5
   7   1  -7 28.7254 3.79795   5
   7   1  -7 30.6308 3.77040   2
  -7   1   7 30.6839 4.60349   5
   7   1  -7 34.0678 39.2652   1
   7   1  -7 16.5355 26.1728   1
  -7   1   7 36.0808 5.36814   2
   5  -1  -7 497.309 34.2521   2
  -5  -1   7 412.565 54.2623   1
   5  -1  -7 437.233 55.9599   1
   5  -1  -7 429.641 54.4083   1
  -5  -1   7 482.631 34.7702   5
   5  -1  -7 455.826 33.8641   4
  -5  -1   7 483.454 35.1144   2
   5  -1  -7 502.840 34.2207   5
  -5   1   7 517.679 34.7545   5
   5   1  -7 470.077 34.2053   5
   5   1  -7 447.102 34.1958   2
   5   1  -7 370.968 52.8983   1
  -5   1   7 505.320 35.0667   2
   3  -1  -7 490.382 35.1199   4
   3  -1  -7 449.619 53.2023   1
   3  -1  -7 559.270 35.3174   5
  -3  -1   7 473.997 56.1182   1
  -3  -1   7 479.023 35.7869   5
   3  -1  -7 614.127 65.1633   1
  -3  -1   7 488.355 36.1618   2
   3  -1  -7 524.573 35.3192   2
   3   1  -7 464.975 35.3217   4
  -3   1   7 504.401 35.9735   2
   3   1  -7 415.432 35.2222   2
   3   1  -7 474.920 35.2709   5
  -3   1   7 485.207 35.6410   5
   1  -1  -7 180.934 12.9209   2
   1  -1  -7 192.058 12.8791   5
  -1  -1   7 155.274 13.4169   5
  -1  -1   7 182.937 36.4841   1
   1  -1  -7 180.234 12.9204   4
   1  -1  -7 167.755 29.9372   1
  -1  -1   7 158.083 13.8281   2
   1   1  -7 134.087 29.9106   1
  -1   1   7 177.942 13.3259   5
   1   1  -7 147.968 12.8543   5
  -1   1   7 181.240 13.6741   2
  -1  -1  -7 515.937 32.9091   5
  -1  -1  -7 451.611 48.3403   1
  -1  -1  -7 483.864 32.9389   2
   1  -1   7 452.999 33.8567   2
  -1  -1  -7 494.723 33.0910   4
   1  -1   7 400.292 52.7166   1
   1  -1   7 448.970 33.5276   5
   1   1   7 469.455 55.3101   1
   1   1   7 493.746 33.5766   2
  -1   1  -7 376.214 47.8846   1
  -1   1  -7 425.626 32.9944   2
  -1   1  -7 406.606 32.9475   4
   1   1   7 495.351 33.3824   5
  -1   1  -7 428.969 32.9455   5
  -3  -1  -7 2191.98 147.130   4
  -3  -1  -7 1856.54 158.482   1
   3  -1   7 1914.37 165.467   1
  -3  -1  -7 2211.68 146.783   5
  -3  -1  -7 2110.45 146.800   2
  -3  -1  -7 2248.39 146.899   3
   3  -1   7 2004.80 147.495   5
   3   1   7 2143.06 147.449   2
  -3   1  -7 2035.70 146.918   5
   3   1   7 2314.74 167.571   1
  -3   1  -7 1963.86 146.937   2
   3   1   7 2120.36 147.267   5
  -3   1  -7 1917.41 147.067   4
   5  -1   7 644.943 75.3083   1
  -5  -1  -7 616.001 65.7999   1
   5  -1   7 710.837 53.3879   5
  -5  -1  -7 797.620 53.0207   4
  -5  -1  -7 852.045 52.8806   3
   5  -1   7 699.155 53.7045   2
  -5  -1  -7 747.180 52.4682   5
  -5   1  -7 686.784 52.9925   4
  -5   1  -7 755.401 52.7159   5
   5   1   7 768.539 74.9900   1
  -5   1  -7 661.508 52.6750   2
   5   1   7 798.810 53.3858   2
   5   1   7 795.637 53.1882   5
  -7  -1  -7 140.028 9.90934   4
  -7  -1  -7 136.932 9.85098   3
   7  -1   7 85.7387 36.2111   1
   7  -1   7 116.575 10.6487   5
   7  -1   7 116.009 11.1770   2
  -7   1  -7 105.917 9.53227   2
  -7   1  -7 108.115 9.32973   5
  -7   1  -7 106.167 9.83751   4
   7   1   7 140.469 10.3915   5
  -7   1  -7 65.5006 28.0096   1
   9  -1   7 209.365 16.9516   2
  -9  -1  -7 209.359 15.3793   3
  -9  -1  -7 201.364 15.4211   4
   9  -1   7 200.483 16.4807   5
  -9   1  -7 187.507 15.5406   4
  -9   1  -7 190.237 15.0023   5
   9   1   7 217.055 16.5416   2
  -9   1  -7 186.678 15.2583   2
   9   1   7 205.344 16.2307   5
 -11  -1  -7 12.9122 3.18892   3
  11  -1   7 7.65285 4.68161   5
 -11  -1  -7 13.1068 3.14159   4
  11  -1   7 10.8493 4.99414   2
  11   1   7 10.3100 4.95009   5
 -11   1  -7 13.4239 2.69769   5
 -11   1  -7 16.7412 3.47552   4
 -11   1  -7 6.47813 2.56151   3
  11   1   7 10.8223 4.76919   2
 -13  -1  -7 14.7106 3.48453   3
  13  -1   7 7.65323 5.70450   5
 -13  -1  -7 15.5147 3.60409   4
  13  -1   7 13.5099 5.92463   2
 -13   1  -7 16.1025 3.05606   5
  13   1   7 8.61797 6.39307   5
 -13   1  -7 15.3753 3.75607   3
  13   1   7 10.8518 5.92689   2
  15  -1   7 305.900 24.9436   2
  15  -1   7 285.053 25.0172   5
 -15  -1  -7 312.462 22.4492   3
 -15  -1  -7 263.666 22.2688   4
  15   1   7 262.049 25.3200   5
 -15   1  -7 289.633 21.4664   5
  15   1   7 324.010 24.8805   2
 -15   1  -7 303.443 22.5387   3
 -17  -1  -7 62.8328 7.77677   4
  17  -1   7 87.5566 14.6966   5
  17  -1   7 96.2947 12.5047   2
 -17  -1  -7 72.6465 8.09982   3
  17   1   7 61.6013 11.3588   2
 -17   1  -7 87.8606 8.13792   3
 -19  -1  -7 34.7993 5.50625   3
  19  -1   7 27.6306 8.93108   2
  19  -1   7 25.9656 12.4744   5
  19   1   7 32.1812 9.66990   2
 -19   1  -7 26.3148 5.29472   3
 -21  -1  -7 7.63494 4.03223   3
  21  -1   7 8.70122 14.8886   5
  21  -1   7 9.28653 8.67532   2
 -21   1  -7 10.2688 4.70602   3
  21   1   7 5.74942 9.38748   2
  23  -1   7 24.6173 10.3542   2
 -23  -1  -7 36.0519 6.52977   3
  23   1   7 25.7683 10.8871   2
 -23   1  -7 34.8074 6.54919   3
 -25  -1  -7 137.332 13.2681   3
  25  -1   7 183.710 18.2128   2
 -25   1  -7 157.594 13.5368   3
  25   1   7 108.952 16.9431   2
 -27  -1  -7 177.958 15.1178   3
  27  -1   7 188.606 19.4599   2
  27   1   7 149.096 20.7265   2
 -27   1  -7 169.713 14.9318   3
 -29  -1  -7 23.3281 5.75352   3
 -29   1  -7 27.6069 6.12299   3
  30  -2  -7 53.0205 8.42983   2
  30   2  -7 36.1513 7.20889   2
  28  -2  -7 76.0380 9.06077   2
  28   2  -7 61.2531 9.16969   2
  26  -2  -7 55.0215 8.37414   2
  26   2  -7 55.4230 8.59860   2
  24  -2  -7 85.7143 10.5005   2
 -24  -2   7 77.9806 11.8546   3
  24  -2  -7 82.8527 11.5474   5
  24   2  -7 99.6540 10.3187   2
  24   2  -7 76.6438 13.3920   5
 -24   2   7 64.4862 10.1260   5
  22  -2  -7 18.9856 6.23707   5
 -22  -2   7 22.8019 7.28926   3
  22  -2  -7 30.8130 6.69236   2
 -22   2   7 19.6752 9.17853   2
  22   2  -7 32.0807 6.57315   2
 -22   2   7 36.0356 6.25282   5
  22   2  -7 21.9992 7.16520   5
 -20  -2   7 11.0953 5.62241   3
 -20  -2   7 14.4312 4.54800   5
  20  -2  -7 7.37073 5.11071   2
  20  -2  -7 17.4915 6.14384   5
  20   2  -7 9.45114 5.49754   5
 -20   2   7 12.4384 5.90257   2
 -20   2   7 15.4441 4.71380   5
  20   2  -7 10.4134 4.67030   2
  18  -2  -7 321.738 27.5876   2
 -18  -2   7 357.171 26.5046   5
  18  -2  -7 340.000 27.7153   5
 -18  -2   7 347.904 26.6844   3
 -18   2   7 370.975 27.6088   2
 -18   2   7 380.631 27.1758   5
  18   2  -7 314.415 27.1992   5
  18   2  -7 354.835 27.4359   2
  16  -2  -7 101.329 10.0952   5
  16  -2  -7 88.8051 9.71133   2
 -16  -2   7 86.7250 8.84305   3
 -16  -2   7 91.6118 9.03272   5
  16   2  -7 81.7062 9.42140   5
 -16   2   7 93.8530 9.37176   5
  16   2  -7 82.4631 9.09798   2
 -16   2   7 88.9401 9.94625   2
 -14  -2   7 188.656 15.1733   5
 -14  -2   7 164.349 16.1001   2
  14  -2  -7 169.105 15.2481   2
 -14  -2   7 179.681 14.4992   3
  14  -2  -7 175.994 15.4056   5
  14   2  -7 196.699 15.3484   5
 -14   2   7 180.261 15.7959   2
  14   2  -7 194.188 15.2158   2
 -14   2   7 197.697 15.6006   5
 -12  -2   7 223.873 19.2617   2
  12  -2  -7 199.376 71.6333   1
 -12  -2   7 251.439 18.7150   5
  12  -2  -7 236.359 18.5225   5
  12  -2  -7 218.882 17.5588   4
 -12  -2   7 233.184 17.6895   3
  12  -2  -7 106.186 60.4100   1
  12  -2  -7 253.137 18.5274   2
  12   2  -7 230.291 18.2947   5
 -12   2   7 253.696 19.2430   2
  12   2  -7 216.284 18.2353   2
 -12   2   7 251.748 18.9489   5
  10  -2  -7 112.773 48.3463   1
  10  -2  -7 92.3886 8.27053   2
 -10  -2   7 91.4504 9.85378   2
  10  -2  -7 82.6052 7.72406   4
  10  -2  -7 98.0911 8.41679   5
 -10  -2   7 99.6150 8.93087   5
  10  -2  -7 73.9421 79.4631   1
 -10  -2   7 90.2375 7.77532   3
 -10   2   7 92.1063 9.34974   2
  10   2  -7 66.3367 41.4297   1
 -10   2   7 92.3446 8.96051   5
  10   2  -7 97.1014 8.27367   5
   8  -2  -7 40.0109 4.52573   4
   8  -2  -7 42.8795 4.88565   5
  -8  -2   7 43.7906 5.68656   5
   8  -2  -7 48.1973 34.8079   1
  -8  -2   7 46.1205 6.98008   2
   8  -2  -7 45.3347 34.2823   1
  -8  -2   7 46.9015 4.59462   3
   8  -2  -7 41.6579 4.73108   2
   8   2  -7 53.3926 38.1797   1
  -8   2   7 43.3756 5.72553   5
   8   2  -7 47.4269 4.79272   2
  -8   2   7 42.7920 6.16274   2
   8   2  -7 45.9933 4.91864   5
   6  -2  -7 105.697 32.2162   1
  -6  -2   7 152.450 13.0653   2
   6  -2  -7 157.218 43.7539   1
  -6  -2   7 173.408 12.7593   5
  -6  -2   7 218.940 41.1118   1
   6  -2  -7 152.597 11.6956   5
   6  -2  -7 126.486 11.5530   2
   6  -2  -7 136.949 11.3882   4
   6   2  -7 156.496 11.8204   2
   6   2  -7 160.154 35.4719   1
  -6   2   7 144.118 12.6579   2
  -6   2   7 141.101 12.3119   5
   6   2  -7 171.933 11.8731   5
   4  -2  -7 287.787 21.4634   5
   4  -2  -7 227.242 41.7169   1
   4  -2  -7 265.534 46.8274   1
   4  -2  -7 268.294 21.3305   4
  -4  -2   7 315.706 22.3753   5
   4  -2  -7 278.167 21.4762   2
  -4  -2   7 290.574 46.5581   1
  -4  -2   7 304.185 22.7995   2
  -4   2   7 284.974 22.0073   5
   4   2  -7 255.086 45.2595   1
   4   2  -7 326.072 21.7584   2
  -4   2   7 286.785 22.2944   2
   4   2  -7 325.474 21.6937   5
   2  -2  -7 75.0467 7.21435   2
   2  -2  -7 84.3633 7.11550   5
  -2  -2   7 100.134 8.92162   2
   2  -2  -7 84.6620 7.19845   4
  -2  -2   7 85.5283 26.6186   1
   2  -2  -7 81.2786 26.6933   1
  -2  -2   7 98.8308 8.27500   5
   2   2  -7 95.9022 30.6571   1
   2   2  -7 98.2175 7.49785   2
  -2   2   7 88.8702 8.13554   2
  -2   2   7 89.0533 7.75711   5
   0  -2  -7 909.586 91.0141   1
   0  -2  -7 1119.96 78.7678   4
   0  -2   7 1198.27 100.904   1
   0  -2  -7 1058.56 78.5693   2
   0  -2  -7 1140.93 78.5732   5
   0  -2   7 1144.47 79.5034   5
   0   2  -7 1164.66 78.8665   5
   0   2  -7 1099.91 97.4666   1
   0   2   7 1099.79 78.9927   5
   0   2   7 1156.06 79.2679   2
   0   2  -7 1096.62 78.8765   2
  -2  -2  -7 709.493 72.5345   1
  -2  -2  -7 826.116 60.7606   4
   2  -2   7 884.305 61.5195   5
  -2  -2  -7 842.371 60.4002   5
   2  -2   7 893.291 61.9965   2
  -2   2  -7 927.467 60.8174   5
   2   2   7 844.983 61.0904   2
  -2   2  -7 895.274 60.8542   2
   2   2   7 828.483 60.8894   5
  -2   2  -7 826.341 79.6904   1
   4  -2   7 790.378 54.1101   5
   4  -2   7 751.337 79.4104   1
  -4  -2  -7 730.213 52.9581   3
  -4  -2  -7 733.307 52.7202   5
   4  -2   7 821.109 54.6484   2
  -4  -2  -7 701.416 53.2324   4
   4   2   7 705.959 53.4602   2
   4   2   7 684.454 53.3021   5
  -4   2  -7 667.073 72.0832   1
  -4   2  -7 836.706 53.3049   5
  -4   2  -7 749.249 53.2601   2
   6  -2   7 896.475 63.5616   2
  -6  -2  -7 792.594 62.2107   4
   6  -2   7 901.867 63.1511   5
   6  -2   7 877.419 94.3340   1
  -6  -2  -7 836.150 62.0512   3
   6   2   7 905.961 62.5791   2
   6   2   7 861.302 62.3832   5
  -6   2  -7 900.505 62.2333   2
  -6   2  -7 886.901 85.2921   1
   8  -2   7 476.971 34.2036   5
  -8  -2  -7 386.963 32.8875   4
   8  -2   7 459.210 34.5173   2
  -8  -2  -7 410.756 32.8257   3
   8  -2   7 437.680 87.5887   1
   8   2   7 473.088 33.4899   2
   8   2   7 449.485 33.3272   5
  -8   2  -7 524.146 33.0244   5
 -10  -2  -7 295.174 24.8922   4
 -10  -2  -7 321.716 24.9026   3
  10  -2   7 321.311 26.3345   5
  10  -2   7 362.501 26.8839   2
  10   2   7 317.043 25.7244   5
 -10   2  -7 341.962 24.9642   2
  10   2   7 343.617 25.9442   2
 -10   2  -7 393.550 24.9958   5
  12  -2   7 26.5832 6.59907   2
  12  -2   7 26.3868 6.49224   5
 -12  -2  -7 42.2929 4.82539   3
 -12   2  -7 23.6976 5.12793   2
  12   2   7 41.3342 7.41376   5
 -12   2  -7 28.4417 4.28728   5
  12   2   7 38.4245 6.82721   2
 -14  -2  -7 234.400 17.3646   3
  14  -2   7 201.351 19.7453   2
  14  -2   7 195.175 19.7853   5
 -14  -2  -7 228.103 17.3310   4
 -14   2  -7 207.479 17.4564   3
  14   2   7 267.899 19.8996   2
 -14   2  -7 215.585 17.0591   5
 -16  -2  -7 406.515 27.2894   3
 -16  -2  -7 358.547 27.0888   4
  16  -2   7 321.902 29.8968   5
  16  -2   7 361.980 29.7271   2
 -16   2  -7 354.986 27.4238   3
  16   2   7 376.191 29.6461   2
 -16   2  -7 337.592 26.5411   5
  18  -2   7 10.1031 7.48927   2
 -18  -2  -7 6.61247 3.76278   3
 -18  -2  -7 9.32166 3.44982   4
  18  -2   7 11.5867 9.22082   5
 -18   2  -7 9.16456 3.75734   5
  18   2   7 7.25952 8.97454   2
 -18   2  -7 8.91547 3.75383   3
  20  -2   7 8.59941 11.2150   5
  20  -2   7 14.0826 8.31369   2
 -20  -2  -7 11.0886 3.91152   3
  20   2   7 5.20863 9.94302   2
 -20   2  -7 6.01038 3.97320   3
  22  -2   7 52.7731 11.1523   2
  22  -2   7 50.8288 15.0993   5
 -22  -2  -7 48.8031 7.50250   3
 -22   2  -7 52.3731 7.60531   3
  22   2   7 40.5114 11.8181   2
 -24  -2  -7 248.556 20.0170   3
  24  -2   7 271.125 23.5820   2
 -24   2  -7 254.295 20.3475   3
  24   2   7 210.431 23.9805   2
  26  -2   7 253.715 23.6719   2
 -26  -2  -7 238.476 20.0700   3
 -26   2  -7 256.825 20.2486   3
  28  -2   7 138.311 17.3072   2
 -28  -2  -7 139.611 13.3714   3
 -28   2  -7 143.467 12.7950   3
  29  -3  -7 68.6495 9.90095   2
  29   3  -7 104.416 10.8555   2
  27  -3  -7 46.0694 7.77094   2
  27   3  -7 53.0552 8.42686   2
  25  -3  -7 33.2321 7.91573   5
 -25  -3   7 45.5798 8.77113   3
  25  -3  -7 41.0427 7.46635   2
  25   3  -7 53.0257 8.11544   2
 -25   3   7 32.0317 7.40987   5
 -23  -3   7 122.259 13.3974   3
  23  -3  -7 121.253 13.9190   5
  23  -3  -7 132.050 13.4773   2
 -23   3   7 130.338 16.7020   2
 -23   3   7 119.677 12.7068   5
  23   3  -7 138.115 16.7762   5
  23   3  -7 156.478 13.4354   2
  21  -3  -7 35.6886 7.83911   2
 -21  -3   7 58.8507 8.14705   3
 -21   3   7 41.5132 6.80993   5
  21   3  -7 47.2499 7.81630   2
 -21   3   7 43.5617 8.47952   2
  21   3  -7 51.1160 8.95437   5
  19  -3  -7 174.004 16.9419   5
  19  -3  -7 162.908 16.9199   2
 -19  -3   7 196.757 16.4618   3
 -19   3   7 196.111 16.4418   5
 -19   3   7 187.385 16.8860   2
  19   3  -7 212.375 17.4604   5
  19   3  -7 198.946 16.7344   2
 -17  -3   7 134.405 11.7010   3
  17  -3  -7 98.8742 11.9697   2
 -17  -3   7 121.615 10.9265   5
  17  -3  -7 102.637 11.9661   5
  17   3  -7 130.663 12.1776   5
 -17   3   7 111.619 11.6329   5
  17   3  -7 144.917 11.9951   2
 -17   3   7 136.586 12.3221   2
  15  -3  -7 143.997 13.9490   2
 -15  -3   7 153.792 13.2714   3
 -15  -3   7 167.347 13.4122   5
  15  -3  -7 149.416 14.0112   5
  15   3  -7 164.055 13.8437   2
  15   3  -7 154.502 13.7922   5
 -15   3   7 164.093 14.0491   5
 -15   3   7 169.016 14.4237   2
 -13  -3   7 -1.4525 7.55957   2
 -13  -3   7 24.9566 4.13405   3
  13  -3  -7 20.3773 4.53539   2
  13  -3  -7 17.7181 4.08939   5
  13  -3  -7 17.8583 3.80737   4
 -13  -3   7 19.7476 4.23471   5
  13   3  -7 29.2037 4.69645   2
 -13   3   7 21.6417 5.12010   2
  13   3  -7 27.7564 4.41169   5
 -13   3   7 26.4932 5.10954   5
  11  -3  -7 45.1815 5.54435   2
 -11  -3   7 35.4038 5.77014   5
  11  -3  -7 48.0588 5.73917   5
  11  -3  -7 -19.321 67.6846   1
 -11  -3   7 45.1553 7.68408   2
 -11  -3   7 45.1166 5.01441   3
  11  -3  -7 39.0412 4.95783   4
 -11   3   7 52.6694 6.98610   2
 -11   3   7 41.1853 6.27793   5
  11   3  -7 45.9760 5.55568   5
  11   3  -7 37.7220 5.14450   2
  -9  -3   7 36.9978 4.42837   3
   9  -3  -7 71.8539 46.0793   1
   9  -3  -7 38.9062 4.44581   4
   9  -3  -7 47.8337 5.08345   5
   9  -3  -7 -18.177 50.0017   1
   9  -3  -7 43.7229 4.96595   2
  -9  -3   7 30.9829 5.52800   5
  -9  -3   7 32.9516 6.63545   2
  -9   3   7 40.1829 6.02433   5
  -9   3   7 41.2341 6.41527   2
   9   3  -7 31.0413 4.79226   5
   9   3  -7 69.4530 46.3934   1
   9   3  -7 33.1740 4.64389   2
  -7  -3   7 64.3871 5.65179   3
  -7  -3   7 61.9915 32.3783   1
  -7  -3   7 56.5679 8.64709   2
   7  -3  -7 61.2408 5.83325   5
   7  -3  -7 54.3101 5.74481   2
   7  -3  -7 61.1969 5.57352   4
  -7  -3   7 55.9450 6.78828   5
   7  -3  -7 49.8954 42.9143   1
   7  -3  -7 64.7981 36.3360   1
  -7   3   7 56.1795 7.22006   2
   7   3  -7 60.4969 5.89547   5
   7   3  -7 60.5658 5.82388   2
   7   3  -7 48.6408 36.1585   1
  -7   3   7 53.5936 6.74104   5
  -5  -3   7 388.867 32.0285   2
   5  -3  -7 432.285 58.5726   1
  -5  -3   7 314.508 55.9367   1
   5  -3  -7 427.868 66.0329   1
   5  -3  -7 479.990 30.6196   5
   5  -3  -7 434.578 30.4972   4
  -5  -3   7 385.898 31.3151   5
   5  -3  -7 412.400 30.5319   2
  -5   3   7 454.779 31.2913   5
   5   3  -7 294.598 57.6443   1
  -5   3   7 447.612 31.5733   2
  -3  -3   7 195.735 14.5491   5
   3  -3  -7 100.017 35.8725   1
   3  -3  -7 164.972 13.2243   4
   3  -3  -7 174.762 13.1283   5
  -3  -3   7 251.098 47.5025   1
   3  -3  -7 155.458 13.1999   2
  -3  -3   7 196.293 15.3739   2
  -3   3   7 177.727 13.8376   5
  -3   3   7 171.094 14.0878   2
   3   3  -7 197.036 39.6068   1
  -1  -3   7 127.401 12.1681   5
   1  -3  -7 100.642 25.2154   1
  -1  -3   7 137.960 13.2650   2
   1  -3  -7 162.256 11.3790   4
   1  -3  -7 155.085 11.2605   2
   1  -3  -7 171.174 11.0213   5
   1  -3  -7 129.970 33.8683   1
  -1   3   7 161.188 11.8195   5
   1   3  -7 123.063 11.2560   5
   1   3  -7 79.1261 30.2558   1
   1   3  -7 130.974 11.3620   2
  -1   3   7 154.331 11.9920   2
   1  -3   7 337.607 25.0036   5
  -1  -3  -7 269.317 39.6006   1
  -1  -3  -7 379.315 51.3871   1
   1  -3   7 320.892 25.5938   2
   1   3   7 359.032 24.1362   5
  -1   3  -7 244.407 48.3626   1
   1   3   7 363.741 24.3829   2
  -1   3  -7 282.925 23.8043   5
  -3  -3  -7 127.300 8.25533   5
   3  -3   7 121.020 11.3880   2
  -3  -3  -7 133.610 9.13627   4
  -3  -3  -7 96.0242 29.6607   1
   3  -3   7 46.7550 32.5997   1
  -3  -3  -7 106.985 8.50510   3
   3  -3   7 104.186 10.2458   5
  -3   3  -7 95.2899 8.93884   2
   3   3   7 105.761 9.43478   2
  -3   3  -7 62.7370 34.9490   1
   3   3   7 106.344 9.21598   5
  -3   3  -7 96.6608 8.90353   5
   5  -3   7 292.012 66.2684   1
  -5  -3  -7 427.335 53.4039   1
   5  -3   7 406.237 31.5459   5
   5  -3   7 417.720 32.0640   2
  -5  -3  -7 420.704 29.9796   3
   5   3   7 433.990 30.4751   5
   5   3   7 425.594 30.5781   2
   7  -3   7 336.103 26.3829   5
  -7  -3  -7 319.043 48.1711   1
   7  -3   7 324.682 26.8217   2
  -7  -3  -7 363.062 24.8288   3
   7   3   7 356.085 25.3595   2
  -7   3  -7 235.147 52.1191   1
   7   3   7 341.048 25.2126   5
  -9  -3  -7 344.831 46.9069   1
   9  -3   7 350.979 26.9751   5
   9  -3   7 345.772 27.2807   2
  -9  -3  -7 372.308 25.1902   3
  -9   3  -7 296.243 25.1050   2
   9   3   7 340.983 25.7698   5
 -11  -3  -7 11.4264 3.24478   3
 -11  -3  -7 10.8449 2.95773   4
  11  -3   7 9.43574 5.54244   2
  11  -3   7 6.80981 5.19368   5
 -11   3  -7 7.13808 2.75942   5
  11   3   7 3.11147 5.41254   2
 -11   3  -7 8.89509 3.48002   2
  13  -3   7 83.9858 11.3090   2
 -13  -3  -7 93.5959 8.30549   4
 -13  -3  -7 86.9760 8.25957   3
  13  -3   7 77.3452 11.3189   5
 -13   3  -7 79.0861 9.20497   2
  13   3   7 104.059 11.9420   2
  15  -3   7 9.16012 6.88469   5
  15  -3   7 5.29258 5.92320   2
 -15  -3  -7 1.45371 2.84227   4
 -15  -3  -7 3.62946 3.07604   3
  15   3   7 1.75077 8.21688   2
 -15   3  -7 1.85815 10.4039   2
 -15   3  -7 3.30842 3.24410   5
 -15   3  -7 -1.0144 2.82881   3
  17  -3   7 97.7810 14.6431   5
 -17  -3  -7 100.655 9.51104   4
  17  -3   7 93.1057 13.6012   2
 -17  -3  -7 97.1410 9.73752   3
 -17   3  -7 96.6372 9.54181   5
  17   3   7 130.730 15.0470   2
 -17   3  -7 105.060 10.0034   3
  19  -3   7 28.2279 9.46913   5
 -19  -3  -7 15.5196 4.42929   4
 -19  -3  -7 29.4732 4.98229   3
  19  -3   7 23.6095 8.44177   2
  19   3   7 28.5610 10.4640   2
 -19   3  -7 9.88597 4.71142   5
 -19   3  -7 15.9260 4.74497   3
  21  -3   7 4.95021 12.5735   5
 -21  -3  -7 55.3811 7.21376   3
  21  -3   7 37.4020 10.1692   2
 -21  -3  -7 42.2130 6.75263   4
  21   3   7 21.9259 11.6444   2
 -21   3  -7 35.3261 6.89397   3
  23  -3   7 87.6097 14.2009   2
 -23  -3  -7 102.125 10.3597   3
 -23   3  -7 81.5752 10.2245   3
 -25  -3  -7 97.6456 10.4281   3
 -25   3  -7 76.7970 9.88866   3
  27  -3   7 15.6539 10.0766   2
 -27   3  -7 20.5315 5.64712   3
 -29   3  -7 -3.0164 5.31931   3
  28  -4  -7 23.9018 6.39450   2
  28   4  -7 30.5728 6.96293   2
  26  -4  -7 72.2590 10.1897   2
 -26  -4   7 72.6204 9.68539   3
  26   4  -7 73.8922 9.56691   2
 -24  -4   7 30.7625 7.72970   3
  24  -4  -7 37.4078 7.25848   2
  24  -4  -7 26.9314 7.20596   5
 -24   4   7 33.2678 14.4158   2
 -24   4   7 27.0200 6.37549   5
  24   4  -7 28.5631 6.66894   2
 -22  -4   7 7.45806 6.34791   3
  22  -4  -7 9.12443 6.17104   5
  22  -4  -7 13.6902 5.79719   2
  22   4  -7 9.42883 5.14871   2
 -22   4   7 4.61546 4.72950   5
 -22   4   7 7.25752 6.64518   2
  20  -4  -7 23.1470 6.59790   2
  20  -4  -7 8.02584 5.16259   5
 -20  -4   7 14.1396 6.20199   3
 -20   4   7 9.92235 4.96384   5
  20   4  -7 11.5948 7.21413   5
 -20   4   7 15.6236 5.74447   2
  20   4  -7 21.2105 5.57788   2
  18  -4  -7 7.96489 4.82302   5
 -18  -4   7 12.7631 5.43232   3
  18  -4  -7 9.72493 5.66194   2
  18   4  -7 5.56000 4.13269   2
 -18   4   7 7.86425 4.31101   5
 -18   4   7 14.6826 5.33004   2
  18   4  -7 8.29167 5.74643   5
  16  -4  -7 86.8531 9.88315   2
  16  -4  -7 73.2595 8.73864   4
 -16  -4   7 69.7643 8.93536   3
  16  -4  -7 91.3700 9.80640   5
 -16  -4   7 70.3281 8.32035   5
 -16   4   7 101.941 9.68052   5
  16   4  -7 81.1444 8.86133   2
 -16   4   7 89.5426 9.88637   2
  16   4  -7 80.4245 9.70892   5
 -14  -4   7 22.0216 4.55304   5
  14  -4  -7 29.4571 4.71513   4
  14  -4  -7 29.0216 5.32832   5
  14  -4  -7 23.5396 5.04636   2
 -14  -4   7 25.1277 4.63468   3
 -14   4   7 33.4159 6.37974   2
 -14   4   7 34.9525 5.81464   5
  14   4  -7 21.7716 4.96758   5
  14   4  -7 36.3719 5.65596   2
 -12  -4   7 66.9464 7.13522   3
  12  -4  -7 80.1142 7.75460   2
 -12  -4   7 71.9474 7.85951   5
  12  -4  -7 65.4385 7.03213   4
  12  -4  -7 81.3968 7.80501   5
  12   4  -7 59.3955 7.38122   5
 -12   4   7 72.2596 8.59923   5
 -12   4   7 72.1277 8.72322   2
  12   4  -7 69.9124 7.40391   2
 -10  -4   7 41.2107 6.37008   5
  10  -4  -7 44.0676 5.61872   2
 -10  -4   7 45.2661 8.64360   2
  10  -4  -7 45.6801 5.53962   5
  10  -4  -7 43.5260 5.20075   4
 -10  -4   7 49.1570 5.23818   3
 -10   4   7 40.8178 6.66264   5
 -10   4   7 47.3651 7.17958   2
  10   4  -7 44.8953 5.48887   5
  10   4  -7 39.0760 5.25641   2
   8  -4  -7 139.888 11.5869   2
  -8  -4   7 150.503 12.6991   5
  -8  -4   7 142.285 14.3428   2
  -8  -4   7 146.363 11.4875   3
   8  -4  -7 155.708 11.6376   5
   8  -4  -7 145.992 11.3793   4
  -8   4   7 153.687 12.8470   5
   8   4  -7 132.875 11.5960   2
  -8   4   7 136.733 12.9213   2
   8   4  -7 127.217 11.5130   5
   6  -4  -7 16.3186 3.33503   2
   6  -4  -7 20.3891 3.19378   4
  -6  -4   7 19.2165 6.04199   2
  -6  -4   7 47.1750 58.8079   1
   6  -4  -7 -11.402 50.2220   1
   6  -4  -7 18.9754 2.91684   5
  -6  -4   7 17.8058 4.28770   5
   6   4  -7 11.7222 2.88109   2
   6   4  -7 15.8340 3.13800   5
  -6   4   7 15.8355 4.39901   2
  -6   4   7 16.5757 3.80277   5
   6   4  -7 7.98533 37.3904   1
  -4  -4   7 92.2590 39.8705   1
   4  -4  -7 87.4693 6.67321   5
   4  -4  -7 80.4879 6.89697   4
   4  -4  -7 134.931 55.9502   1
   4  -4  -7 80.6629 7.19863   2
  -4  -4   7 88.8465 8.55130   5
  -4  -4   7 71.8158 10.0135   2
  -4   4   7 80.7528 8.20988   2
   4   4  -7 112.125 60.9121   1
   4   4  -7 66.6774 6.86350   5
   4   4  -7 62.3056 6.87631   2
  -4   4   7 88.1777 7.94243   5
  -2  -4   7 68.7944 9.89400   2
   2  -4  -7 91.5677 7.01675   4
  -2  -4   7 75.7418 8.51102   5
  -2  -4   7 35.5441 36.3216   1
   2  -4  -7 86.1281 40.2304   1
   2  -4  -7 92.3746 6.54705   5
  -2   4   7 85.4307 7.88637   2
  -2   4   7 86.8616 7.66133   5
   2   4  -7 3.86343 46.8411   1
   2   4  -7 67.3947 6.98968   2
   2   4  -7 64.9743 6.85679   5
   0  -4   7 451.573 78.1610   1
   0  -4  -7 442.994 68.8706   1
   0  -4   7 441.708 35.8837   2
   0  -4  -7 505.587 33.5175   5
   0  -4  -7 531.622 34.2322   4
   0  -4   7 450.987 35.2448   5
   0   4   7 512.275 34.5990   2
   0   4  -7 396.927 34.0889   2
   0   4  -7 395.016 64.9468   1
   0   4   7 487.863 34.3352   5
   0   4  -7 462.957 34.1538   5
   2  -4   7 200.503 16.7997   5
  -2  -4  -7 221.670 15.3430   4
  -2  -4  -7 190.522 41.5983   1
   2  -4   7 179.153 17.3706   2
  -2   4  -7 139.543 42.0111   1
  -2   4  -7 184.557 15.2711   2
   2   4   7 207.254 15.4463   5
   2   4   7 218.360 15.6613   2
  -2   4  -7 192.249 15.2648   5
   4  -4   7 358.317 75.5971   1
  -4  -4  -7 415.825 30.3441   3
   4  -4   7 395.196 32.8083   2
  -4  -4  -7 425.686 59.2004   1
   4  -4   7 446.744 32.4146   5
  -4  -4  -7 449.639 30.9472   4
   4   4   7 449.367 31.0743   2
  -4   4  -7 426.657 30.9251   5
  -4   4  -7 384.667 30.8844   2
  -4   4  -7 380.121 68.0436   1
   4   4   7 434.916 30.9115   5
  -6  -4  -7 279.447 20.1089   3
  -6  -4  -7 283.003 20.5466   4
   6  -4   7 269.397 22.7653   2
   6  -4   7 268.084 22.1648   5
  -6  -4  -7 191.660 38.0323   1
  -6   4  -7 216.615 57.2035   1
   6   4   7 296.687 20.7444   2
   6   4   7 264.084 20.6473   5
  -6   4  -7 288.046 20.6094   5
  -6   4  -7 270.075 20.6104   2
   8  -4   7 0.08701 4.50635   5
   8  -4   7 -3.4029 4.50192   2
  -8  -4  -7 4.51914 2.87106   3
  -8  -4  -7 4.56759 2.43116   4
   8   4   7 3.00365 3.96253   2
  -8   4  -7 5.78522 2.76692   2
  -8   4  -7 4.18562 2.42284   5
 -10  -4  -7 105.961 9.02412   4
 -10  -4  -7 113.944 9.01744   3
  10  -4   7 96.7239 12.2132   2
  10  -4   7 94.4339 11.6361   5
 -10   4  -7 100.471 9.15018   2
 -10   4  -7 87.5588 8.86738   5
 -12  -4  -7 79.6852 8.21142   4
  12  -4   7 88.7741 11.9646   5
  12  -4   7 101.740 12.3572   2
 -12  -4  -7 83.8689 8.29694   3
 -12   4  -7 86.7794 8.82825   2
  12   4   7 91.0847 11.9775   2
 -12   4  -7 92.9814 8.68798   5
  14  -4   7 225.337 20.4332   5
 -14  -4  -7 200.817 17.0583   4
 -14  -4  -7 205.799 17.1157   3
  14  -4   7 203.492 20.0077   2
 -14   4  -7 228.493 17.8027   2
  14   4   7 242.327 20.3812   2
  16  -4   7 8.33946 7.19767   5
 -16  -4  -7 8.67148 3.37544   4
 -16  -4  -7 7.66172 3.76855   3
  16  -4   7 8.96497 6.97288   2
 -16   4  -7 0.13315 6.34739   2
  16   4   7 8.36207 10.1332   2
 -16   4  -7 7.32216 2.98190   3
 -16   4  -7 8.35058 4.11848   5
  18  -4   7 10.5831 7.63638   2
 -18  -4  -7 12.0881 4.79982   3
 -18  -4  -7 11.4521 3.87977   4
  18  -4   7 4.47657 9.18264   5
 -18   4  -7 6.72286 3.86112   3
 -18   4  -7 10.3882 4.44521   5
  20  -4   7 3.34976 7.45571   2
 -20  -4  -7 5.75780 4.37526   4
 -20  -4  -7 3.88496 4.41958   3
  20  -4   7 11.7664 10.3084   5
 -20   4  -7 -0.2446 5.09155   5
 -20   4  -7 -0.0926 4.01650   3
 -22  -4  -7 14.1571 5.80806   3
  22  -4   7 -9.1609 12.1134   5
 -22  -4  -7 5.78103 4.49693   4
  22  -4   7 16.6142 8.58224   2
 -22   4  -7 18.8294 6.24983   3
 -24  -4  -7 27.0669 6.31287   3
  24  -4   7 32.5984 9.60573   2
 -24   4  -7 31.0342 5.78964   3
  26  -4   7 92.5018 13.9625   2
 -26  -4  -7 84.7295 10.3436   3
 -26   4  -7 72.2011 9.27640   3
  28  -4   7 24.3670 9.94102   2
 -28  -4  -7 8.84373 10.2306   3
 -28   4  -7 25.2277 5.94918   3
  27  -5  -7 44.5514 7.93974   2
  27   5  -7 36.7386 7.68634   2
  25  -5  -7 62.4767 10.1325   2
 -25  -5   7 52.5563 8.58024   3
  25   5  -7 56.5288 8.43782   2
  23  -5  -7 58.4919 8.91877   2
 -23  -5   7 50.6120 8.54010   3
  23  -5  -7 56.6286 8.87690   5
 -23   5   7 33.7660 7.40037   5
  23   5  -7 34.5637 7.19594   2
 -23   5   7 47.8125 9.24954   2
  21  -5  -7 50.3689 8.66485   5
  21  -5  -7 65.3198 9.25269   2
 -21  -5   7 38.5134 7.21089   3
 -21   5   7 40.6552 7.93842   2
 -21   5   7 30.4211 6.74202   5
  21   5  -7 39.4575 7.17669   2
  19  -5  -7 37.3442 7.41637   2
 -19  -5   7 40.9004 7.74078   3
  19  -5  -7 29.8036 6.77318   5
  19  -5  -7 21.7624 8.63310   4
 -19   5   7 43.9857 6.86550   5
  19   5  -7 39.5923 7.11283   2
 -19   5   7 41.8385 7.42620   2
  19   5  -7 36.8499 9.11170   5
  17  -5  -7 29.3194 5.90390   4
 -17  -5   7 29.7200 6.02890   3
  17  -5  -7 27.8472 6.32658   5
  17  -5  -7 35.4689 7.18465   2
  17   5  -7 20.0384 6.90917   5
 -17   5   7 31.0489 6.43211   5
 -17   5   7 31.9952 6.54161   2
  17   5  -7 39.1213 6.52909   2
  15  -5  -7 72.5981 8.61360   4
  15  -5  -7 84.1121 9.71642   2
 -15  -5   7 80.4579 8.99205   3
  15  -5  -7 86.2536 9.63515   5
 -15   5   7 95.4022 10.1635   5
  15   5  -7 77.8761 10.1295   5
  15   5  -7 80.0339 8.94818   2
 -15   5   7 87.6430 10.2482   2
  13  -5  -7 129.567 11.6840   5
  13  -5  -7 123.267 11.6918   2
 -13  -5   7 117.629 11.1854   5
 -13  -5   7 127.780 11.2581   3
  13  -5  -7 108.340 10.9677   4
  13   5  -7 122.664 11.6625   5
 -13   5   7 147.622 12.8022   5
  13   5  -7 131.687 11.5699   2
 -13   5   7 129.305 12.7309   2
  11  -5  -7 44.5858 5.85545   4
 -11  -5   7 58.9851 7.11810   5
  11  -5  -7 51.5594 6.39852   5
  11  -5  -7 52.3804 6.86926   2
 -11  -5   7 49.7573 6.14124   3
 -11   5   7 58.2734 8.44481   2
  11   5  -7 57.4300 6.75961   5
  11   5  -7 55.4415 6.37302   2
 -11   5   7 44.5858 7.88189   5
   9  -5  -7 74.2399 8.08848   2
   9  -5  -7 76.1113 7.65623   5
   9  -5  -7 76.8694 7.66091   4
  -9  -5   7 89.6883 7.88184   3
  -9  -5   7 94.5418 9.21577   5
  -9   5   7 81.6739 9.60707   2
  -9   5   7 78.0402 9.53241   5
   9   5  -7 88.5111 8.06424   2
   9   5  -7 89.9645 8.22843   5
  -7  -5   7 4.42899 3.81529   5
   7  -5  -7 11.2587 2.68417   4
  -7  -5   7 11.3866 7.30152   2
   7  -5  -7 14.1172 3.68936   2
   7  -5  -7 12.7813 2.72712   5
  -7   5   7 5.80263 3.85472   5
   7   5  -7 6.89699 2.71671   5
  -7   5   7 11.6606 4.60294   2
   7   5  -7 6.18474 2.51850   2
  -5  -5   7 10.9341 4.26301   5
  -5  -5   7 14.0636 6.65947   2
   5  -5  -7 15.2725 3.87667   2
   5  -5  -7 12.4933 2.41478   5
   5  -5  -7 11.3982 2.63584   4
  -5   5   7 14.5220 4.14377   5
  -5   5   7 9.55979 4.06053   2
   5   5  -7 11.2325 2.68465   5
   5   5  -7 12.1567 2.94747   2
  -3  -5   7 5.16116 60.2783   1
  -3  -5   7 7.14748 5.85949   2
  -3  -5   7 15.2717 4.71187   5
   3  -5  -7 14.0987 2.84060   4
  -3   5   7 22.5179 4.32921   5
   3   5  -7 8.78113 2.44761   5
   3   5  -7 9.85051 2.58718   2
  -3   5   7 16.3272 4.06023   2
   1  -5  -7 256.786 19.7565   5
  -1  -5   7 436.970 93.1739   1
  -1  -5   7 265.631 23.1808   2
  -1  -5   7 292.627 22.5267   5
   1  -5  -7 278.169 20.6746   4
   1   5  -7 251.325 62.3538   1
  -1   5   7 283.550 21.0770   5
   1   5  -7 274.434 20.7901   2
   1   5  -7 287.168 20.7711   5
  -1   5   7 267.617 21.2623   2
  -1  -5  -7 822.739 58.1786   4
   1  -5   7 695.097 101.297   1
  -1  -5  -7 715.895 91.0377   1
   1  -5   7 868.568 59.8792   5
   1  -5   7 809.967 60.3143   2
   1   5   7 817.727 58.3800   2
  -1   5  -7 765.569 100.453   1
  -1   5  -7 798.224 58.2520   2
  -1   5  -7 886.137 58.3098   5
   1   5   7 767.440 58.1531   5
  -3  -5  -7 1673.67 117.105   4
   3  -5   7 1789.15 118.853   5
   3  -5   7 1465.81 160.544   1
   3  -5   7 1654.32 119.154   2
   3   5   7 1541.29 116.897   5
  -3   5  -7 1766.56 117.209   5
   3   5   7 1672.40 117.088   2
  -3   5  -7 1643.43 117.191   2
  -3   5  -7 1477.59 154.193   1
   5  -5   7 650.487 122.835   1
  -5  -5  -7 712.495 54.6099   4
   5  -5   7 794.799 57.1410   2
   5  -5   7 817.466 56.6464   5
  -5  -5  -7 675.981 54.0209   3
  -5   5  -7 810.490 54.8929   2
   5   5   7 637.375 54.4360   5
  -5   5  -7 886.914 54.9591   5
  -5   5  -7 806.656 113.574   1
   5   5   7 770.703 54.6347   2
   7  -5   7 294.315 23.8624   2
  -7  -5  -7 238.448 20.3181   3
  -7  -5  -7 238.555 20.6197   4
   7  -5   7 286.677 23.1337   5
   7   5   7 267.246 20.8749   2
  -7   5  -7 286.504 20.9445   2
  -7   5  -7 320.936 21.1253   5
   9  -5   7 238.151 22.0159   2
  -9  -5  -7 198.190 18.7381   3
   9  -5   7 253.389 21.5925   5
   9   5   7 236.330 19.5505   2
  -9   5  -7 284.432 19.3484   2
  -9   5  -7 276.650 19.3892   5
  11  -5   7 15.0148 6.57398   2
  11  -5   7 19.7357 6.77056   5
  11   5   7 12.5491 7.95140   2
 -11   5  -7 15.8212 3.77344   5
 -13  -5  -7 152.158 11.7806   4
  13  -5   7 120.669 15.0902   2
  13  -5   7 121.633 15.2068   5
 -13  -5  -7 147.677 12.0719   3
 -13   5  -7 111.128 11.9856   2
 -15  -5  -7 46.6115 7.14312   3
  15  -5   7 38.3172 9.88062   5
 -15  -5  -7 45.8419 6.29667   4
  15  -5   7 32.6096 9.26965   2
 -17  -5  -7 13.3488 4.82989   3
  17  -5   7 11.5384 7.52566   2
  17  -5   7 9.11183 7.81395   5
 -17  -5  -7 19.9239 4.24358   4
 -17   5  -7 -4.8580 7.16325   2
 -17   5  -7 1.84932 4.54053   5
 -17   5  -7 13.2775 5.15431   3
  19  -5   7 3.25566 9.56378   5
 -19  -5  -7 10.7475 5.71559   3
  19  -5   7 5.03117 8.01079   2
 -19  -5  -7 8.22838 4.35151   4
 -19   5  -7 6.30929 5.10108   5
 -19   5  -7 8.16291 4.43968   3
  21  -5   7 8.52357 10.6603   5
  21  -5   7 26.6233 9.04835   2
 -21  -5  -7 22.5569 6.59190   3
 -21  -5  -7 20.2881 5.28371   4
 -21   5  -7 13.4503 4.91729   3
 -21   5  -7 9.02514 6.72584   5
 -23  -5  -7 111.311 11.8965   3
  23  -5   7 104.500 14.8126   2
 -23   5  -7 98.8826 10.7834   3
  25  -5   7 90.3992 13.1807   2
 -25  -5  -7 90.7042 11.2894   3
 -25   5  -7 85.5187 9.77824   3
  27  -5   7 146.727 16.6971   2
 -27   5  -7 135.667 12.6557   3
 -26  -6   7 81.4424 16.3875   3
  26   6  -7 61.4456 9.57311   2
 -24  -6   7 88.6625 12.2820   3
  24  -6  -7 106.088 13.2770   2
 -24   6   7 92.2347 13.9137   2
  24   6  -7 124.206 11.8635   2
  22  -6  -7 71.4295 11.7928   5
 -22  -6   7 89.4476 11.1142   3
  22  -6  -7 78.2652 12.0581   2
 -22   6   7 72.7021 10.9566   5
 -22   6   7 93.8804 11.7998   2
  20  -6  -7 218.745 20.5552   2
  20  -6  -7 199.786 20.0672   5
 -20  -6   7 219.181 19.8208   3
 -20   6   7 240.014 20.1919   2
 -20   6   7 230.950 19.9512   5
  20   6  -7 275.482 19.9021   2
  18  -6  -7 258.620 23.1540   2
  18  -6  -7 246.685 22.0164   4
  18  -6  -7 267.996 22.8700   5
 -18  -6   7 270.111 22.6129   3
 -18   6   7 335.320 23.5621   2
 -18   6   7 278.573 22.8021   5
  16  -6  -7 112.567 12.0001   4
 -16  -6   7 116.832 12.0398   3
  16  -6  -7 124.465 13.2454   2
  16  -6  -7 114.600 12.6285   5
  16   6  -7 116.914 14.3410   5
  16   6  -7 151.815 12.6381   2
 -16   6   7 121.066 13.1417   5
 -16   6   7 148.653 13.4403   2
  14  -6  -7 381.866 31.1345   2
  14  -6  -7 375.380 30.6008   4
  14  -6  -7 403.792 31.0919   5
 -14  -6   7 394.685 30.9470   3
  14   6  -7 430.935 31.2062   2
 -14   6   7 421.425 32.0424   5
 -14   6   7 448.171 32.2917   2
  14   6  -7 402.109 31.4513   5
  12  -6  -7 130.737 12.4646   2
 -12  -6   7 130.458 11.8628   3
  12  -6  -7 138.581 11.9033   5
  12  -6  -7 125.132 11.6178   4
 -12   6   7 126.832 13.5205   5
  12   6  -7 128.612 12.5675   5
 -12   6   7 141.911 13.5609   2
  12   6  -7 136.814 12.0247   2
 -10  -6   7 77.7527 8.42875   3
  10  -6  -7 89.6965 8.65366   4
  10  -6  -7 85.7486 9.32694   2
  10  -6  -7 92.9599 8.47931   5
 -10  -6   7 80.6772 9.39588   5
 -10   6   7 98.9078 10.9567   2
 -10   6   7 88.6432 10.9480   5
  10   6  -7 92.6572 8.82691   2
  10   6  -7 89.6999 9.29805   5
   8  -6  -7 29.7916 4.39366   5
   8  -6  -7 28.5176 4.56953   4
  -8  -6   7 22.1976 5.47697   5
   8   6  -7 21.1357 4.27025   2
  -8   6   7 25.9124 5.81540   5
  -8   6   7 20.7105 5.59190   2
   8   6  -7 15.9583 3.97720   5
  -6  -6   7 41.3690 6.75026   5
   6  -6  -7 34.5608 4.52021   5
   6  -6  -7 36.5437 4.95342   4
  -6   6   7 24.0597 5.93008   5
  -6   6   7 35.5877 6.57731   2
   6   6  -7 45.9332 5.30266   2
   6   6  -7 47.6324 5.67912   5
   4  -6  -7 68.0081 5.22121   5
  -4  -6   7 29.2138 9.32008   2
  -4  -6   7 52.8763 8.68332   5
   4  -6  -7 64.4219 6.13889   4
  -4   6   7 58.7197 8.09081   5
   4   6  -7 45.9184 6.02392   5
  -4   6   7 55.0131 8.00086   2
   4   6  -7 45.8830 5.91526   2
   2  -6  -7 70.1304 6.41059   4
  -2  -6   7 50.2519 9.08192   5
  -2   6   7 63.0854 7.83606   2
   2   6  -7 50.7899 6.16392   2
  -2   6   7 56.7339 7.75776   5
   2   6  -7 58.2381 6.52134   5
   0  -6   7 116.094 13.9092   5
   0  -6  -7 157.700 11.7550   4
   0   6   7 130.859 12.2912   5
   0   6   7 144.577 12.4050   2
   2  -6   7 312.183 28.2095   2
   2  -6   7 341.206 27.4840   5
   2   6   7 358.326 25.4450   5
  -2   6  -7 278.403 24.9993   5
   2   6   7 389.046 25.6261   2
   4  -6   7 462.551 37.1865   2
   4  -6   7 489.083 36.7028   5
  -4  -6  -7 531.513 34.4292   4
  -4   6  -7 411.789 34.2468   2
   4   6   7 499.910 34.3338   2
  -4   6  -7 405.394 34.1928   5
   6  -6   7 506.269 39.9581   2
   6  -6   7 492.698 39.2549   5
  -6  -6  -7 561.820 37.0764   4
  -6   6  -7 449.251 36.9005   2
   6   6   7 531.416 36.8640   2
  -6   6  -7 474.008 36.9703   5
  -8  -6  -7 257.337 19.6319   3
   8  -6   7 264.737 22.8838   5
  -8  -6  -7 271.530 19.9913   4
   8  -6   7 247.796 23.3741   2
   8   6   7 254.482 20.1845   2
  -8   6  -7 238.195 20.0533   5
  -8   6  -7 267.852 20.1287   2
 -10  -6  -7 70.3801 7.29088   4
 -10  -6  -7 57.9691 8.06853   3
  10  -6   7 75.3637 12.4254   2
  10  -6   7 61.4711 10.7703   5
 -10   6  -7 70.2305 7.71867   2
 -10   6  -7 66.7099 7.67064   5
  12  -6   7 -2.2527 7.07803   2
 -12  -6  -7 1.67587 4.58548   3
 -12  -6  -7 0.59556 3.16131   4
  12  -6   7 -1.9891 6.40832   5
 -12   6  -7 3.14945 4.10446   2
 -12   6  -7 -1.2498 3.44605   5
 -14  -6  -7 -0.7781 3.12497   4
 -14  -6  -7 -2.5219 5.00534   3
  14  -6   7 4.03935 7.13210   2
  14  -6   7 -3.1640 7.58525   5
 -14   6  -7 2.66263 5.11690   2
  16  -6   7 166.786 18.2278   5
 -16  -6  -7 144.203 14.0815   3
 -16  -6  -7 134.005 13.0871   4
  16  -6   7 166.233 17.4084   2
 -16   6  -7 144.397 13.8705   5
 -16   6  -7 167.176 14.9603   2
 -18  -6  -7 38.8061 6.64850   4
  18  -6   7 38.5220 10.5902   5
  18  -6   7 40.0359 9.84070   2
 -18  -6  -7 44.3020 7.21716   3
 -18   6  -7 39.9441 7.08563   5
 -18   6  -7 28.0151 9.59999   2
 -20  -6  -7 13.0588 6.23174   3
  20  -6   7 11.9224 10.2958   5
  20  -6   7 7.32334 8.26543   2
 -20  -6  -7 18.1062 5.11144   4
 -20   6  -7 21.5200 6.12723   3
 -20   6  -7 4.37813 6.41990   5
 -22  -6  -7 13.3070 6.65176   3
  22  -6   7 12.7071 9.15622   2
 -22  -6  -7 16.8009 5.15299   4
 -22   6  -7 5.31795 4.49673   3
  24  -6   7 28.1465 9.99163   2
 -24  -6  -7 57.5373 8.76360   3
 -24   6  -7 40.2036 6.49417   3
  26  -6   7 3.50987 9.81862   2
 -26   6  -7 9.27084 5.66698   3
 -25  -7   7 2.50730 8.62027   3
 -23  -7   7 28.5175 6.70577   3
  23  -7  -7 33.1947 10.4790   2
  23   7  -7 33.2414 7.16792   2
 -23   7   7 18.3381 8.55124   2
  21  -7  -7 25.8887 9.89378   2
 -21  -7   7 40.9623 8.17420   3
  21   7  -7 31.5379 7.09510   2
 -21   7   7 38.7793 7.64849   2
 -19  -7   7 28.7387 7.08294   3
  19  -7  -7 27.2594 7.43837   5
  19  -7  -7 41.6790 9.85124   2
  19  -7  -7 30.3277 7.01203   4
 -19   7   7 31.2761 7.23585   2
 -19   7   7 37.8659 7.77347   5
  19   7  -7 31.9916 6.67711   2
 -17  -7   7 6.45753 4.92561   3
  17  -7  -7 3.71881 5.00059   4
  17  -7  -7 4.83842 5.45638   5
  17  -7  -7 1.38458 8.02600   2
 -17   7   7 7.58223 5.48498   5
 -17   7   7 0.94218 5.42912   2
  17   7  -7 11.6994 5.14780   2
  15  -7  -7 34.6670 8.40109   2
  15  -7  -7 29.5393 6.26077   5
 -15  -7   7 24.0816 5.85376   3
  15  -7  -7 23.4540 5.53183   4
  15   7  -7 30.2783 6.18536   2
 -15   7   7 22.8222 6.51585   2
 -15   7   7 27.9826 6.70206   5
  13  -7  -7 70.3180 8.51461   4
 -13  -7   7 74.1165 8.53607   3
  13  -7  -7 62.4083 8.37793   5
  13   7  -7 68.2991 9.69860   5
  13   7  -7 88.8410 9.18788   2
 -13   7   7 62.8156 10.9911   5
 -13   7   7 82.2090 10.7783   2
  11  -7  -7 49.8113 6.71017   5
  11  -7  -7 48.9822 6.85714   4
 -11  -7   7 48.8471 6.88702   3
 -11   7   7 53.9059 8.65716   2
  11   7  -7 48.6558 7.02929   2
  11   7  -7 44.3919 7.39525   5
 -11   7   7 49.8024 9.04126   5
   9  -7  -7 18.2050 3.88133   5
   9  -7  -7 16.0571 4.03050   4
  -9   7   7 20.7683 6.47935   2
  -9   7   7 17.5165 6.99957   5
   9   7  -7 27.6531 5.51592   5
   9   7  -7 32.4109 5.35046   2
  -7  -7   7 270.952 22.1898   5
   7  -7  -7 300.445 21.6360   4
   7  -7  -7 279.567 20.7579   5
   7   7  -7 290.999 21.7850   2
  -7   7   7 270.889 23.3277   2
  -7   7   7 271.453 23.4361   5
   7   7  -7 263.173 21.7707   5
   5  -7  -7 56.8321 5.62678   5
  -5  -7   7 57.9586 8.65928   5
   5  -7  -7 63.3753 6.71705   4
  -5   7   7 60.5847 8.79085   5
   5   7  -7 64.7097 6.78122   2
  -5   7   7 56.4078 9.04458   2
   5   7  -7 62.1074 7.44890   5
  -3  -7   7 125.549 14.1116   5
   3  -7  -7 155.340 11.8472   4
   3   7  -7 115.272 11.7168   5
  -3   7   7 144.313 13.8903   5
   3   7  -7 137.988 11.7723   2
  -3   7   7 149.946 13.3738   2
  -1  -7   7 71.3701 10.9176   5
  -1  -7   7 66.7944 11.7314   2
   1  -7  -7 76.9668 7.35731   4
   1   7  -7 60.9590 7.39880   5
  -1   7   7 85.1517 8.93774   2
   1   7  -7 65.6002 7.22271   2
  -1   7   7 68.6344 9.68366   5
  -1  -7  -7 85.7066 7.55513   4
   1  -7   7 71.5538 11.6722   5
   1  -7   7 56.0045 11.5035   2
   1   7   7 65.9622 9.91253   5
  -1   7  -7 59.4596 7.43634   5
  -1   7  -7 67.9776 7.30573   2
   1   7   7 91.6147 8.82434   2
   3  -7   7 14.8357 7.15808   5
  -3  -7  -7 6.37379 3.04246   4
   3  -7   7 5.16375 8.46664   2
  -3   7  -7 8.74815 3.13514   2
   3   7   7 10.6621 4.68076   2
  -3   7  -7 5.22606 3.18454   5
  -5  -7  -7 13.8151 3.91860   4
   5  -7   7 18.9662 7.53323   5
   5  -7   7 12.1449 8.60402   2
  -5   7  -7 11.7650 3.67996   2
  -5   7  -7 17.2178 4.22136   5
   5   7   7 11.1609 5.19690   2
   7  -7   7 19.4187 8.70203   2
   7  -7   7 17.0080 7.69740   5
  -7  -7  -7 -1.0460 5.15555   3
  -7  -7  -7 10.2961 3.51716   4
   7   7   7 15.5750 5.97703   2
  -7   7  -7 19.5857 4.51177   5
  -7   7  -7 16.1843 4.20028   2
   9  -7   7 14.9124 7.67040   5
  -9  -7  -7 3.89107 5.32820   3
  -9  -7  -7 10.5606 3.61578   4
   9  -7   7 13.4653 8.24651   2
  -9   7  -7 8.80320 4.18716   2
  -9   7  -7 20.2604 4.62485   5
 -11  -7  -7 6.65507 5.67457   3
  11  -7   7 9.81211 8.79815   2
 -11  -7  -7 5.12208 3.68093   4
  11  -7   7 7.34432 7.57211   5
 -11   7  -7 7.59674 4.36280   2
 -11   7  -7 12.3729 4.32070   5
 -13  -7  -7 8.97104 4.27646   4
  13  -7   7 5.99945 8.31712   2
 -13  -7  -7 2.44973 6.17240   3
  13  -7   7 0.80033 7.75252   5
 -13   7  -7 -0.4591 4.88689   2
  15  -7   7 19.7594 9.20125   2
 -15  -7  -7 18.4569 7.17152   3
 -15  -7  -7 17.8808 4.76337   4
  15  -7   7 28.1383 9.63633   5
 -15   7  -7 23.3578 6.09201   5
 -15   7  -7 26.3727 6.80320   2
 -17  -7  -7 27.4383 7.73896   3
  17  -7   7 19.7833 8.97257   2
 -17  -7  -7 25.0555 5.30876   4
  17  -7   7 25.1040 9.76924   5
 -17   7  -7 16.6957 4.77254   3
 -17   7  -7 16.1212 7.95353   2
 -17   7  -7 10.8963 6.01585   5
 -19  -7  -7 2.59351 7.12972   3
  19  -7   7 -3.5084 8.20964   2
  19  -7   7 6.30594 9.83338   5
 -19  -7  -7 4.70219 4.56203   4
 -19   7  -7 6.92863 5.69947   3
 -19   7  -7 4.13316 6.32296   5
  21  -7   7 2.29072 9.04041   2
 -21  -7  -7 25.8965 5.83065   4
 -21  -7  -7 25.7569 8.53121   3
 -21   7  -7 8.60026 5.04845   3
  23  -7   7 12.1765 9.64165   2
 -23  -7  -7 25.6257 8.40997   3
 -23   7  -7 13.7275 5.53611   3
 -25   7  -7 3.55829 6.14509   3
  22   8  -7 4.77734 6.98301   2
 -22   8   7 10.8393 7.30291   2
  20  -8  -7 40.6754 8.20803   4
  20   8  -7 29.4714 6.92474   2
 -20   8   7 43.1428 8.12675   2
  18  -8  -7 18.5281 7.70809   5
 -18  -8   7 12.6234 5.89092   3
  18  -8  -7 15.9083 6.33997   4
 -18   8   7 8.94449 6.70814   5
 -18   8   7 21.7082 7.22319   2
  18   8  -7 19.1743 6.07685   2
  16  -8  -7 8.99587 5.06624   4
  16  -8  -7 5.13813 6.42396   5
 -16   8   7 14.0227 6.77716   2
  16   8  -7 7.61503 5.30108   2
 -16   8   7 14.7780 7.38852   5
  14  -8  -7 10.0043 4.75659   4
  14  -8  -7 -0.0843 5.36048   5
 -14   8   7 9.35112 6.38282   2
  14   8  -7 5.35474 4.92543   2
 -14   8   7 4.04674 6.93099   5
  12  -8  -7 6.45684 4.04510   4
  12  -8  -7 4.46828 4.69297   5
 -12   8   7 8.89483 7.29218   5
  12   8  -7 9.42013 4.83373   2
 -12   8   7 10.6374 6.38893   2
  12   8  -7 7.07695 9.96844   5
  10  -8  -7 7.48356 4.25496   5
  10  -8  -7 9.74998 4.24142   4
  10   8  -7 16.6696 7.17006   5
  10   8  -7 14.1091 4.53786   2
 -10   8   7 20.8177 7.05507   2
 -10   8   7 10.5715 7.61194   5
   8  -8  -7 5.85614 3.55506   5
   8  -8  -7 -0.0648 3.12798   4
   8   8  -7 3.08926 3.61829   2
  -8   8   7 4.04401 7.43724   5
  -8   8   7 10.8349 6.46043   2
   8   8  -7 0.57635 5.37163   5
   6  -8  -7 30.2032 5.10165   4
   6   8  -7 23.2912 4.76416   2
  -6   8   7 32.0511 7.47900   2
  -6   8   7 12.0449 8.14452   5
   6   8  -7 21.8628 5.46731   5
   4  -8  -7 152.568 12.9421   4
  -4  -8   7 154.086 14.3525   5
   4   8  -7 158.940 13.2051   2
  -4   8   7 140.794 14.9861   2
   4   8  -7 151.306 13.6372   5
  -4   8   7 142.976 16.4163   5
  -2  -8   7 154.681 16.2807   5
   2  -8  -7 179.585 14.4459   4
   2   8  -7 185.568 14.6551   2
  -2   8   7 202.509 16.1814   2
  -2   8   7 160.086 17.3951   5
   2   8  -7 156.708 14.6424   5
   0  -8   7 188.882 18.5514   5
   0  -8  -7 193.790 15.8583   4
   0   8   7 185.928 16.8517   2
   0   8  -7 205.003 16.1624   2
   0   8  -7 201.406 16.3744   5
  -2  -8  -7 196.439 16.2703   4
   2  -8   7 194.081 19.5902   5
   2  -8   7 190.452 16.3369   4
  -2   8  -7 202.441 16.7350   5
   2   8   7 217.367 17.1478   2
  -2   8  -7 203.040 16.5602   2
  -4  -8  -7 145.542 13.0947   4
   4  -8   7 167.373 19.7825   2
   4  -8   7 150.866 17.1697   5
  -4   8  -7 174.221 13.7260   2
  -4   8  -7 161.767 13.9047   5
   4   8   7 134.082 14.1311   2
   6  -8   7 146.749 18.9610   2
  -6  -8  -7 118.693 11.8980   4
   6  -8   7 148.252 16.8214   5
  -6   8  -7 147.143 12.9392   5
   6   8   7 124.186 13.6950   2
  -6   8  -7 151.043 12.5048   2
   8  -8   7 60.3782 12.6990   2
  -8  -8  -7 54.5050 7.59464   4
   8  -8   7 59.5589 11.3921   5
  -8   8  -7 74.2195 8.45601   2
  -8   8  -7 69.8756 9.00165   5
  10  -8   7 59.5929 12.3804   2
  10  -8   7 58.6079 11.2231   5
 -10  -8  -7 47.4123 7.47057   4
 -10   8  -7 70.3354 8.95585   5
 -10   8  -7 70.4939 8.51277   2
  12  -8   7 17.1914 10.4781   2
 -12  -8  -7 10.3557 7.81233   3
  12  -8   7 14.6756 9.17624   5
 -12  -8  -7 7.30547 4.22052   4
 -12   8  -7 11.1873 5.27205   2
  14  -8   7 6.73712 9.16747   5
  14  -8   7 1.95395 9.67008   2
 -14  -8  -7 32.0292 8.37593   3
 -14   8  -7 5.17379 5.60167   5
 -14   8  -7 11.1394 6.04364   2
 -16  -8  -7 3.98289 4.56558   4
  16  -8   7 4.96579 9.64966   2
  16  -8   7 14.0293 9.18613   5
 -16  -8  -7 7.31715 8.90960   3
 -16   8  -7 3.16749 6.05994   5
 -16   8  -7 8.44377 7.26797   2
 -18  -8  -7 13.8515 9.30156   3
  18  -8   7 -8.8171 9.36047   2
 -18  -8  -7 12.5512 5.13350   4
 -18   8  -7 11.8183 5.62573   3
 -18   8  -7 -2.6110 9.43629   2
 -20  -8  -7 22.0067 9.91165   3
  20  -8   7 17.2078 10.2168   2
 -20  -8  -7 15.4628 5.66510   4
 -20   8  -7 14.5419 5.53993   3
  22  -8   7 20.4534 10.6042   2
 -22  -8  -7 0.55826 6.65229   4
 -22   8  -7 4.72920 6.01254   3
 -21   9   7 117.071 14.9194   2
  19  -9  -7 222.173 20.1827   4
 -19   9   7 241.571 21.5734   2
  19   9  -7 257.756 20.4777   2
  17  -9  -7 190.271 17.4807   4
 -17   9   7 228.033 19.2762   2
  17   9  -7 196.791 17.7052   2
  15  -9  -7 154.369 15.7958   4
  15   9  -7 183.020 16.2572   2
 -15   9   7 193.723 17.9272   2
 -15   9   7 194.699 19.4028   5
  13  -9  -7 86.9075 10.1516   4
 -13   9   7 95.1587 12.7704   2
 -13   9   7 72.3670 11.9880   5
  13   9  -7 90.8088 10.5329   2
  11  -9  -7 155.491 13.7082   4
 -11   9   7 170.589 16.5508   2
  11   9  -7 133.606 13.8265   2
 -11   9   7 135.576 18.5179   5
   9  -9  -7 25.5881 5.09948   4
   9   9  -7 22.3837 8.90848   5
  -9   9   7 24.7362 7.82894   2
   9   9  -7 26.2725 5.83587   2
  -9   9   7 22.7162 10.0286   5
   7  -9  -7 45.1221 6.71711   4
  -7   9   7 36.1580 10.5782   5
   7   9  -7 33.3537 6.18167   2
  -7   9   7 30.2009 8.32328   2
   7   9  -7 23.6477 7.70490   5
   5  -9  -7 14.2548 4.56068   4
  -5   9   7 11.1639 10.6328   5
   5   9  -7 22.7979 5.01053   2
  -5   9   7 15.6071 7.37012   2
   5   9  -7 21.6093 6.39718   5
  -3  -9   7 15.8269 7.87825   5
   3  -9  -7 32.1347 5.31342   4
  -3   9   7 30.8186 7.46403   2
   3   9  -7 16.0481 5.55465   5
   3   9  -7 16.1058 4.59406   2
   1  -9  -7 104.851 9.38182   4
  -1  -9   7 64.1756 11.9774   5
  -1   9   7 92.3215 11.5668   2
   1   9  -7 82.2445 9.51750   2
   1  -9   7 98.8940 10.2786   4
  -1  -9  -7 118.633 10.1283   4
   1  -9   7 77.7136 13.7000   5
  -1   9  -7 90.9250 11.1221   5
   1   9   7 110.390 12.0202   2
  -1   9  -7 97.9585 10.1458   2
   3  -9   7 163.905 14.8788   4
  -3  -9  -7 206.226 14.9388   4
   3  -9   7 158.068 18.0881   5
   3   9   7 198.555 16.3140   2
  -3   9  -7 134.590 15.4594   5
  -3   9  -7 161.787 14.8185   2
   5  -9   7 542.994 42.5906   5
  -5  -9  -7 570.304 39.9598   4
   5  -9   7 533.255 39.9517   4
  -5   9  -7 507.217 40.3510   5
   5   9   7 530.798 40.1895   2
  -5   9  -7 532.903 40.1732   2
   7  -9   7 204.935 25.2289   2
   7  -9   7 196.146 21.0898   5
  -7  -9  -7 204.805 16.8091   4
  -7   9  -7 198.514 17.7868   5
  -7   9  -7 207.254 17.4186   2
   9  -9   7 32.2409 10.2292   5
  -9  -9  -7 44.2415 6.86126   4
   9  -9   7 44.1081 13.7329   2
  -9   9  -7 39.9613 7.40840   5
  -9   9  -7 45.2083 7.44163   2
 -11  -9  -7 -0.0690 4.12941   4
  11  -9   7 9.72598 12.6225   2
  11  -9   7 6.75425 9.33984   5
 -11   9  -7 -7.1843 4.98157   2
  13  -9   7 -10.407 12.1762   2
 -13  -9  -7 -0.1565 4.23486   4
  13  -9   7 -2.7455 9.69051   5
 -13   9  -7 3.86420 6.67531   5
 -13   9  -7 6.13938 6.13781   2
 -15  -9  -7 19.9046 5.67535   4
  15  -9   7 13.3953 17.6265   5
  15  -9   7 29.9338 12.7929   2
 -15   9  -7 20.5381 7.48479   2
 -15   9  -7 11.3008 8.97475   5
 -17  -9  -7 -1.0290 5.17004   4
  17  -9   7 -4.4962 11.8033   2
 -17   9  -7 13.0742 8.70064   2
 -17   9  -7 8.30491 4.87825   3
 -19  -9  -7 5.41930 5.57275   4
  19  -9   7 19.3405 12.4953   2
 -19   9  -7 6.01506 4.31457   3
 -21   9  -7 -2.0314 5.80701   3
  18 -10  -7 8.92938 8.64264   4
 -18  10   7 4.20890 7.53535   2
  16 -10  -7 11.4165 6.46040   4
  16  10  -7 14.8039 6.86536   2
 -16  10   7 25.5785 8.44124   2
  14 -10  -7 16.4241 6.11155   4
  14  10  -7 19.4160 6.44410   2
 -14  10   7 20.3082 8.27127   2
  12 -10  -7 24.8376 6.08507   4
  12  10  -7 20.9430 6.62331   2
 -12  10   7 30.8105 9.05579   2
  10 -10  -7 7.63637 4.87548   4
 -10  10   7 8.70924 7.74805   2
 -10  10   7 23.1224 13.3276   5
  10  10  -7 10.2366 5.73886   2
   8 -10  -7 3.25872 4.54497   4
  -8  10   7 16.0017 14.6535   5
  -8  10   7 4.28375 7.46643   2
   8  10  -7 7.00881 5.30742   2
   6 -10  -7 12.3813 5.04300   4
  -6  10   7 19.6838 8.12425   2
   6  10  -7 13.8845 12.0361   5
   6  10  -7 15.7195 5.52554   2
   4 -10  -7 29.3110 5.73478   4
   4  10  -7 19.1699 9.17542   5
   4  10  -7 27.1864 6.46400   2
  -4  10   7 42.0430 8.90414   2
   2 -10  -7 76.7133 8.36742   4
   2  10  -7 50.9649 10.4667   5
  -2  10   7 73.2124 11.4262   2
   2  10  -7 66.0012 8.76449   2
   0 -10  -7 11.3928 4.27419   4
   0  10  -7 11.7361 7.47080   5
   0  10   7 8.23723 7.53504   2
   0  10  -7 8.70345 4.72034   2
   2 -10   7 1.74875 5.82945   4
   2 -10   7 1.52294 9.38427   5
  -2 -10  -7 -2.0054 3.60346   4
  -2  10  -7 1.38697 4.45092   2
  -2  10  -7 -6.6780 6.21901   5
   2  10   7 0.77737 8.24149   2
   4 -10   7 57.7776 11.5551   5
  -4 -10  -7 78.7719 8.63979   4
   4 -10   7 71.8478 9.84512   4
  -4  10  -7 95.9658 9.81469   2
  -4  10  -7 62.7430 9.82907   5
   4  10   7 72.2499 12.2601   2
   6 -10   7 33.0838 10.7728   5
   6 -10   7 40.0185 7.46140   4
  -6 -10  -7 36.8655 6.43535   4
  -6  10  -7 45.1944 7.43073   2
  -6  10  -7 36.8872 8.14558   5
   8 -10   7 41.0900 7.73267   4
  -8 -10  -7 22.7147 5.51761   4
   8 -10   7 18.5593 11.0685   5
  -8  10  -7 38.2302 7.22971   2
  10 -10   7 16.5400 6.62582   4
  10 -10   7 9.02387 11.2826   5
 -10 -10  -7 22.5543 5.52667   4
 -10  10  -7 22.0241 8.01326   5
 -10  10  -7 29.6310 7.01636   2
  12 -10   7 7.13349 6.33818   4
 -12 -10  -7 4.05102 4.67231   4
 -12  10  -7 2.87716 6.22395   2
  14 -10   7 -0.8427 6.27988   4
 -14 -10  -7 -4.6529 4.97382   4
 -14  10  -7 2.03551 6.80250   2
 -16 -10  -7 -3.0953 5.58404   4
  16 -10   7 1.85661 6.74340   4
 -16  10  -7 -3.5780 8.27552   2
 -16  10  -7 3.10830 4.78340   3
  18 -10   7 8.07912 7.09351   4
 -18  10  -7 -1.0803 4.11110   3
  15 -11  -7 35.1001 8.11931   4
 -15  11   7 31.2602 10.0709   2
  13 -11  -7 90.4140 11.8486   4
 -13  11   7 128.302 15.4591   2
  13  11  -7 91.4137 12.3717   2
  11 -11  -7 20.8885 6.20535   4
  11  11  -7 12.4233 6.54531   2
 -11  11   7 15.9467 9.03173   2
   9 -11  -7 20.8529 6.09918   4
   9  11  -7 21.2063 6.81291   2
  -9  11   7 31.8884 9.89986   2
   7 -11  -7 4.68071 5.04323   4
   7  11  -7 -2.8068 5.51076   2
  -7  11   7 6.20577 8.97423   2
   5 -11  -7 1.77340 4.50636   4
   5  11  -7 5.49462 5.72815   2
  -5  11   7 -1.7538 8.70458   2
   3 -11  -7 17.3841 5.26523   4
  -3  11   7 18.6464 8.91733   2
   3  11  -7 13.8368 6.33602   2
   1 -11  -7 117.825 11.9984   4
  -1  11   7 124.693 15.7868   2
   1  11  -7 136.401 13.3703   2
  -1 -11  -7 42.9498 7.41332   4
  -1  11  -7 68.2178 9.60162   2
   1  11   7 42.5128 11.1727   2
  -1  11  -7 26.1296 15.4845   5
  -3 -11  -7 32.3394 6.04954   4
   5 -11   7 24.9912 7.84549   4
  -5  11  -7 24.3102 6.96169   2
  -7 -11  -7 15.2509 5.13192   4
   7 -11   7 16.3566 7.16673   4
  -7  11  -7 25.6227 6.87093   2
  -9 -11  -7 14.6404 5.48872   4
   9 -11   7 11.5165 7.43596   4
  -9  11  -7 10.4313 6.58780   2
 -11 -11  -7 2.76496 5.13653   4
  11 -11   7 -5.3682 7.29946   4
 -11  11  -7 2.36008 6.51965   2
  13 -11   7 0.05380 7.38527   4
 -13 -11  -7 -3.0022 5.68682   4
 -13  11  -7 -2.7411 7.07388   2
 -15  11  -7 -0.8148 5.25748   3
 -12  12   7 16.8466 11.1805   2
  10 -12  -7 10.1129 6.12251   4
 -10  12   7 2.67228 10.4663   2
   8 -12  -7 19.9112 5.94950   4
   8  12  -7 5.77823 7.64609   2
  -8  12   7 11.9024 10.3915   2
   6 -12  -7 16.3996 5.60958   4
  -6  12   7 10.1795 10.6569   2
   6  12  -7 6.51372 7.16804   2
   4 -12  -7 37.5585 6.52055   4
  -4  12   7 36.5524 11.2935   2
   4  12  -7 23.0461 8.11829   2
   2 -12  -7 114.662 11.0819   4
   2  12  -7 94.8338 12.9141   2
  -2  12   7 90.7293 14.5668   2
   0 -12  -7 109.904 10.7456   4
   0  12   7 79.5286 16.8981   2
   0  12  -7 100.280 12.5483   2
  -2 -12  -7 108.104 11.2488   4
  -2  12  -7 113.407 13.0744   2
  -4 -12  -7 56.8960 8.31772   4
  -4  12  -7 67.9657 10.7022   2
  -6 -12  -7 56.0209 8.52681   4
  -6  12  -7 77.5811 10.8437   2
  -8 -12  -7 10.6697 5.85751   4
  -8  12  -7 37.9810 7.70129   2
 -10 -12  -7 7.33289 5.72216   4
 -10  12  -7 -0.8299 6.92946   2
   3 -13  -7 3.95021 5.69230   4
   1 -13  -7 3.53942 5.45056   4
   1  13  -7 1.70263 9.88325   2
  -1 -13  -7 8.15895 5.67316   4
  -1  13  -7 9.49107 8.50249   2
  -3 -13  -7 17.5358 8.35942   4
  30   0  -8 100.394 11.7727   2
  28   0  -8 146.518 13.9529   2
  26   0  -8 171.827 15.7901   2
  24   0  -8 299.613 23.1583   2
  24   0  -8 242.672 23.5732   5
 -24   0   8 290.785 26.9763   5
  22   0  -8 355.312 26.6444   2
  22   0  -8 290.623 26.5543   5
 -22   0   8 325.159 25.4258   5
  20   0  -8 267.043 25.7630   5
  20   0  -8 358.223 26.3568   2
 -20   0   8 336.572 25.2190   5
  18   0  -8 416.016 33.4215   5
 -18   0   8 431.690 33.6020   2
 -18   0   8 447.093 33.0005   5
  18   0  -8 431.370 33.5306   2
  16   0  -8 643.684 45.2549   2
 -16   0   8 581.187 44.7569   5
 -16   0   8 586.645 45.1752   2
  16   0  -8 602.507 45.0750   5
 -14   0   8 385.633 30.3430   5
  14   0  -8 395.145 30.2730   2
 -14   0   8 381.661 30.7630   2
  14   0  -8 427.158 30.4249   5
  12   0  -8 62.4970 6.69301   2
  12   0  -8 66.1761 6.91585   5
 -12   0   8 56.4175 7.45061   5
 -12   0   8 61.0268 8.37690   2
  10   0  -8 398.448 77.7412   1
 -10   0   8 481.767 34.8500   5
  10   0  -8 466.238 34.2225   5
  10   0  -8 437.225 112.479   1
  10   0  -8 467.107 34.2635   2
 -10   0   8 458.299 35.1628   2
   8   0  -8 593.029 38.4402   5
   8   0  -8 482.543 72.7895   1
  -8   0   8 550.085 39.0210   5
   8   0  -8 438.905 87.6266   1
  -8   0   8 504.314 39.2353   2
   8   0  -8 485.676 38.2524   2
   6   0  -8 1030.41 71.1371   5
   6   0  -8 846.929 96.1664   1
   6   0  -8 996.173 71.1465   2
  -6   0   8 1023.62 72.1049   2
   6   0  -8 957.100 97.8283   1
  -6   0   8 1037.78 71.7772   5
  -4   0   8 1001.63 69.4742   2
  -4   0   8 1032.66 69.2009   5
   4   0  -8 880.560 68.0962   4
   4   0  -8 997.784 68.5439   5
   4   0  -8 979.799 68.5616   2
   4   0  -8 820.029 89.5845   1
   2   0  -8 889.172 66.5964   4
  -2   0   8 912.284 67.2661   5
   2   0  -8 936.867 66.7441   5
  -2   0   8 924.330 67.5609   2
  -2   0   8 1138.31 104.385   1
   2   0  -8 942.323 66.7831   2
   0   0  -8 411.018 29.1279   2
   0   0  -8 392.145 29.1441   4
   0   0   8 406.677 29.6452   5
   0   0   8 396.764 29.9153   2
   0   0   8 444.800 60.1016   1
   0   0  -8 403.390 50.4517   1
   0   0  -8 386.903 29.0156   5
  -2   0  -8 1994.69 137.905   4
   2   0   8 2003.46 138.289   5
   2   0   8 2075.50 163.424   1
  -2   0  -8 1932.14 137.663   2
   2   0   8 2045.97 138.572   2
  -2   0  -8 1641.58 152.968   1
  -2   0  -8 1922.64 137.624   5
  -4   0  -8 74.3716 6.78431   4
   4   0   8 82.3813 7.39928   5
   4   0   8 67.1994 36.2056   1
  -4   0  -8 77.7666 6.26238   5
  -4   0  -8 35.7927 24.0850   1
   4   0   8 74.6167 7.72317   2
  -4   0  -8 69.9413 6.60485   2
  -6   0  -8 1.91125 2.97066   2
   6   0   8 3.10203 3.28707   2
  -6   0  -8 2.00630 2.31752   4
  -6   0  -8 2.80869 2.47366   3
   6   0   8 0.69340 2.58662   5
  -6   0  -8 2.01607 1.63396   5
  -8   0  -8 30.0190 4.41932   4
   8   0   8 28.8714 5.96350   2
  -8   0  -8 25.6878 3.44473   5
   8   0   8 29.5038 5.25484   5
  -8   0  -8 34.3053 4.43512   3
  10   0   8 2.11806 4.30548   2
 -10   0  -8 3.60403 2.60626   4
  10   0   8 1.12464 4.07776   5
 -10   0  -8 1.51632 1.89903   5
 -10   0  -8 1.42694 2.41983   3
  12   0   8 41.4412 7.54270   2
 -12   0  -8 39.1390 5.33811   3
 -12   0  -8 43.9747 5.54435   4
 -12   0  -8 38.1710 4.13331   5
  12   0   8 45.5662 7.82716   5
 -14   0  -8 70.4881 7.88397   4
  14   0   8 78.7354 11.2450   2
  14   0   8 93.4002 12.4721   5
 -14   0  -8 81.0444 7.84533   3
  16   0   8 389.967 32.6782   2
 -16   0  -8 426.864 30.0408   3
  16   0   8 365.304 33.8699   5
 -18   0  -8 43.3596 6.63857   3
  18   0   8 29.4494 14.2109   5
  18   0   8 29.5597 9.89470   2
 -20   0  -8 335.148 25.8499   3
  20   0   8 327.266 29.1502   2
  22   0   8 178.481 19.1341   2
 -22   0  -8 164.853 14.9564   3
  24   0   8 13.7938 10.7875   2
 -24   0  -8 8.36828 4.81587   3
  26   0   8 6.81406 11.4276   2
 -26   0  -8 17.4135 4.98901   3
 -28   0  -8 20.8867 5.81242   3
  29  -1  -8 37.7452 6.78657   2
  29   1  -8 24.7844 5.99280   2
  27  -1  -8 15.0700 5.81020   2
  27   1  -8 11.3414 5.40821   2
  25  -1  -8 36.1440 7.13986   2
  25  -1  -8 38.2999 8.42588   5
  25   1  -8 25.5486 6.48310   2
  25   1  -8 29.9232 13.1701   5
  23  -1  -8 11.1471 5.25166   2
  23  -1  -8 12.1232 6.13757   5
  23   1  -8 12.8142 5.21466   2
 -23   1   8 13.7699 5.81024   5
  23   1  -8 18.3688 7.75249   5
  21  -1  -8 3.77119 5.04815   2
  21  -1  -8 14.6265 6.23436   5
 -21  -1   8 4.31853 4.91564   5
  21   1  -8 7.62250 5.51568   5
 -21   1   8 -1.3462 8.83541   2
 -21   1   8 3.78565 4.65954   5
  21   1  -8 8.95207 5.40102   2
  19  -1  -8 38.9694 7.69283   5
  19  -1  -8 42.9186 7.84582   2
 -19  -1   8 42.1033 7.09509   5
  19   1  -8 27.8660 5.91089   2
 -19   1   8 43.0677 8.09679   2
 -19   1   8 40.8326 6.59578   5
  19   1  -8 25.2599 6.06113   5
  17  -1  -8 35.3141 6.73044   5
  17  -1  -8 53.4187 7.65821   2
 -17  -1   8 53.6306 7.08427   3
 -17  -1   8 46.3222 8.47790   2
 -17  -1   8 42.8691 7.28188   5
  17   1  -8 43.3268 7.05173   5
 -17   1   8 49.0904 7.95267   2
  17   1  -8 58.3352 7.40328   2
 -17   1   8 47.5235 7.35295   5
  15  -1  -8 17.2994 4.97745   5
  15  -1  -8 14.2492 4.06726   2
 -15  -1   8 13.6968 4.49247   3
 -15  -1   8 20.1730 4.98106   5
 -15  -1   8 15.0885 5.78301   2
 -15   1   8 23.7571 5.75577   2
  15   1  -8 19.8985 5.04480   5
  15   1  -8 10.8484 3.78940   2
 -15   1   8 18.6884 4.72762   5
 -13  -1   8 19.4502 3.96625   3
 -13  -1   8 27.5039 5.68822   2
  13  -1  -8 11.0105 3.55015   5
 -13  -1   8 16.6942 4.35850   5
  13  -1  -8 11.3432 3.94779   2
 -13   1   8 13.4827 4.07696   5
  13   1  -8 18.8560 4.14417   2
  13   1  -8 21.6118 4.12180   5
 -13   1   8 17.1614 5.08048   2
  11  -1  -8 10.6349 3.33884   2
 -11  -1   8 13.7641 4.64144   2
  11  -1  -8 3.76698 105.354   1
  11  -1  -8 10.9618 3.42861   5
  11  -1  -8 49.0002 47.1511   1
 -11  -1   8 19.1744 3.44130   3
 -11   1   8 12.5456 4.13605   5
  11   1  -8 17.6903 3.75586   2
 -11   1   8 10.2139 4.28546   2
   9  -1  -8 4.21552 2.34726   2
  -9  -1   8 4.98084 3.93800   2
   9  -1  -8 0.68246 34.3847   1
   9  -1  -8 3.71155 2.12184   5
   9  -1  -8 4.36298 50.4183   1
  -9  -1   8 3.68823 2.95610   5
   9   1  -8 2.14727 2.06610   5
   9   1  -8 9.11066 48.9771   1
   9   1  -8 3.30907 2.37289   2
   9   1  -8 22.6314 48.5353   1
  -9   1   8 3.44935 3.00628   5
  -9   1   8 3.26903 3.59618   2
   7  -1  -8 23.5653 3.46250   4
   7  -1  -8 25.7186 3.51591   5
   7  -1  -8 16.2555 3.26319   2
   7  -1  -8 19.2001 32.4757   1
   7  -1  -8 19.0995 36.4697   1
  -7  -1   8 22.5425 4.30173   5
  -7  -1   8 15.1966 4.59394   2
  -7   1   8 21.8571 4.27163   5
   7   1  -8 19.3943 35.1133   1
   7   1  -8 14.8236 3.11783   2
   7   1  -8 23.3734 31.0810   1
   7   1  -8 12.6700 2.92430   5
  -7   1   8 21.4051 4.68815   2
   5  -1  -8 97.7205 8.54672   4
   5  -1  -8 110.191 8.71176   5
  -5  -1   8 62.6535 31.1488   1
   5  -1  -8 97.0982 34.4072   1
  -5  -1   8 116.468 9.75865   5
  -5  -1   8 104.557 10.2315   2
   5  -1  -8 102.542 8.71198   2
   5  -1  -8 137.959 48.4136   1
   5   1  -8 112.622 8.82338   2
   5   1  -8 65.7980 30.8410   1
  -5   1   8 107.008 9.53602   5
   5   1  -8 97.9073 8.67664   5
  -5   1   8 111.906 10.0825   2
   3  -1  -8 182.752 39.7406   1
  -3  -1   8 93.4354 31.2782   1
   3  -1  -8 151.832 11.8469   4
  -3  -1   8 164.669 12.8047   5
   3  -1  -8 155.971 11.9862   2
   3  -1  -8 176.901 38.5369   1
  -3  -1   8 170.823 13.3867   2
   3  -1  -8 152.530 11.8540   5
   3   1  -8 148.585 11.8900   5
   3   1  -8 151.048 11.9937   2
  -3   1   8 144.472 12.9008   2
   3   1  -8 162.918 52.6896   1
  -3   1   8 152.848 12.5861   5
  -1  -1   8 41.7087 5.41578   5
   1  -1  -8 43.2360 4.07803   5
   1  -1  -8 20.3078 20.4276   1
   1  -1  -8 41.4839 4.41064   4
  -1  -1   8 44.8166 6.13135   2
   1  -1  -8 36.5206 4.32229   2
  -1  -1   8 31.6972 25.8465   1
   1   1  -8 46.4146 4.41354   5
   1   1  -8 38.7817 4.31437   4
   1   1  -8 32.0379 20.6654   1
  -1   1   8 34.7434 5.16128   5
  -1   1   8 30.3280 5.24697   2
   1   1  -8 35.9589 4.34518   2
  -1  -1  -8 231.988 17.0699   2
   1  -1   8 270.133 50.9497   1
  -1  -1  -8 238.874 16.9791   5
  -1  -1  -8 178.188 37.2265   1
   1  -1   8 247.103 18.4174   2
  -1  -1  -8 239.813 17.3170   4
   1  -1   8 237.912 17.9473   5
  -1   1  -8 238.796 17.1515   5
   1   1   8 216.884 17.7945   2
  -1   1  -8 219.896 17.1616   2
  -1   1  -8 192.162 40.2458   1
   1   1   8 235.497 51.2768   1
  -1   1  -8 228.875 17.2123   4
   1   1   8 214.885 17.5988   5
  -3  -1  -8 22.2109 3.75138   3
   3  -1   8 17.0023 3.63997   5
  -3  -1  -8 18.2969 3.30898   2
  -3  -1  -8 21.1459 3.39260   4
  -3  -1  -8 19.9907 2.72313   5
   3  -1   8 32.2355 32.9030   1
   3   1   8 27.1353 31.5180   1
   3   1   8 21.1123 4.15548   2
  -3   1  -8 22.4187 3.82832   4
  -3   1  -8 -7.8666 19.5190   1
  -3   1  -8 24.1851 3.04562   5
  -3   1  -8 20.6530 3.33794   2
   3   1   8 22.2296 3.89803   5
  -5  -1  -8 116.643 9.52028   4
   5  -1   8 153.126 46.2124   1
  -5  -1  -8 109.259 8.75305   5
   5  -1   8 102.197 10.4614   2
  -5  -1  -8 114.208 9.51041   3
   5  -1   8 110.944 10.2201   5
  -5   1  -8 106.378 9.52465   4
   5   1   8 110.228 9.90514   5
  -5   1  -8 123.052 9.29596   2
  -5   1  -8 125.488 9.13002   5
   5   1   8 117.000 10.2688   2
   7  -1   8 223.691 17.3097   5
  -7  -1  -8 217.326 16.3181   4
  -7  -1  -8 216.237 15.4854   5
  -7  -1  -8 210.427 16.1257   3
   7  -1   8 206.630 17.7008   2
  -7   1  -8 227.068 16.5503   4
  -7   1  -8 200.434 15.8106   5
   7   1   8 197.005 16.7558   5
  -7   1  -8 205.417 16.0435   2
  -9  -1  -8 46.2350 4.78600   4
  -9  -1  -8 39.6073 4.94768   3
   9  -1   8 27.1350 5.46704   5
   9  -1   8 34.9820 6.57702   2
  -9   1  -8 34.8327 5.89333   2
  -9   1  -8 33.3376 4.96130   4
   9   1   8 40.6415 6.40822   2
   9   1   8 42.4406 7.12902   5
  -9   1  -8 29.3917 4.12144   5
 -11  -1  -8 5.35278 2.89002   4
  11  -1   8 13.4024 5.58155   2
  11  -1   8 8.16854 5.17341   5
 -11  -1  -8 4.81589 2.98237   3
 -11   1  -8 9.52961 3.31364   3
  11   1   8 6.71465 5.47937   5
  11   1   8 2.23930 4.99928   2
 -11   1  -8 7.52542 2.56592   5
 -11   1  -8 10.0623 3.40933   4
 -13  -1  -8 20.9541 3.89729   4
 -13  -1  -8 14.3035 3.98729   3
  13  -1   8 17.6173 6.47148   2
  13  -1   8 20.0221 6.91651   5
 -13   1  -8 13.9206 4.18991   3
 -13   1  -8 16.6017 3.37558   5
  13   1   8 14.5472 6.65017   2
  13   1   8 12.2543 7.87915   5
  15  -1   8 129.257 15.3432   2
 -15  -1  -8 150.501 12.1090   4
 -15  -1  -8 143.373 11.9495   3
 -15   1  -8 120.670 11.8628   3
  15   1   8 150.115 15.6976   2
  15   1   8 117.751 18.2738   5
 -17  -1  -8 271.274 19.7431   4
  17  -1   8 211.626 22.9402   2
 -17  -1  -8 257.923 19.7232   3
 -17   1  -8 223.466 19.5514   3
  17   1   8 264.842 23.4144   2
  19  -1   8 151.225 18.2566   2
  19  -1   8 113.177 20.3419   5
 -19  -1  -8 179.243 13.9776   3
  19   1   8 168.768 18.8069   2
 -19   1  -8 150.598 13.9661   3
 -21  -1  -8 300.388 23.5472   3
  21  -1   8 259.225 26.7986   2
  21   1   8 330.454 27.4423   2
 -21   1  -8 306.585 23.7341   3
 -23  -1  -8 165.462 13.2843   3
  23  -1   8 127.254 17.5953   2
  23   1   8 151.453 18.4154   2
 -23   1  -8 124.471 13.0501   3
 -25  -1  -8 110.630 10.2839   3
  25  -1   8 69.9474 13.6985   2
 -25   1  -8 88.3985 9.89673   3
  25   1   8 76.9516 14.3792   2
 -27  -1  -8 -0.3188 5.05007   3
  27  -1   8 2.28425 10.9323   2
 -27   1  -8 10.5668 5.71206   3
  28  -2  -8 38.6929 7.29784   2
  28   2  -8 51.1210 7.50174   2
  26  -2  -8 13.9450 5.91250   2
  26   2  -8 31.2576 6.41745   2
  24  -2  -8 12.5558 5.92554   2
  24  -2  -8 9.20968 6.32828   5
 -24   2   8 13.4712 6.50766   5
  24   2  -8 21.9395 9.45510   5
  24   2  -8 29.7671 6.57767   2
  22  -2  -8 56.0413 9.40699   2
  22  -2  -8 39.4149 8.03425   5
  22   2  -8 70.9302 11.5215   5
 -22   2   8 58.0214 11.4937   2
 -22   2   8 61.3364 8.64704   5
  22   2  -8 77.4933 9.20876   2
 -20  -2   8 8.28623 4.85220   5
  20  -2  -8 -0.3032 4.69874   2
 -20  -2   8 -0.6266 6.76903   3
  20  -2  -8 4.22186 5.29922   5
  20   2  -8 5.17948 6.05712   5
 -20   2   8 6.65052 6.62835   2
  20   2  -8 2.33089 4.28673   2
 -20   2   8 1.81879 4.19861   5
 -18  -2   8 162.396 14.9254   3
  18  -2  -8 159.623 15.4538   2
 -18  -2   8 173.958 14.6213   5
  18  -2  -8 159.067 15.6220   5
  18   2  -8 163.823 15.5853   5
 -18   2   8 161.730 15.7594   2
 -18   2   8 181.284 15.1558   5
  18   2  -8 175.128 15.4164   2
 -16  -2   8 49.6060 6.68451   3
  16  -2  -8 54.3225 7.77966   5
 -16  -2   8 43.7768 7.23074   5
  16  -2  -8 44.1147 7.44831   2
  16   2  -8 44.1490 7.19974   5
 -16   2   8 54.6700 7.63683   5
 -16   2   8 53.0987 8.17758   2
  14  -2  -8 73.2658 8.14614   2
 -14  -2   8 64.0062 8.16881   5
  14  -2  -8 66.2288 8.13951   5
 -14  -2   8 59.3015 10.2475   2
 -14  -2   8 65.7538 7.48695   3
 -14   2   8 70.5181 8.41568   5
  14   2  -8 77.8272 8.04004   2
  14   2  -8 66.9436 7.97359   5
 -14   2   8 65.6086 9.02105   2
 -12  -2   8 77.0528 8.07819   3
  12  -2  -8 104.342 8.94316   5
  12  -2  -8 98.5573 8.81127   2
 -12  -2   8 82.9585 10.6321   2
 -12  -2   8 88.1928 9.29634   5
  12   2  -8 83.3848 8.46282   2
 -12   2   8 91.9867 9.52073   5
 -12   2   8 87.6899 10.0662   2
  12   2  -8 77.6676 8.49831   5
 -10  -2   8 43.5103 5.42212   3
  10  -2  -8 50.8218 5.68406   2
 -10  -2   8 47.5826 6.68665   5
  10  -2  -8 9.87785 60.2471   1
  10  -2  -8 108.094 68.9763   1
  10  -2  -8 51.8523 6.01566   4
  10  -2  -8 53.3666 5.82221   5
 -10  -2   8 60.3688 8.40731   2
  10   2  -8 47.9052 5.74803   5
 -10   2   8 54.3448 7.74410   2
  10   2  -8 49.1726 5.66223   2
 -10   2   8 47.4113 6.73801   5
   8  -2  -8 52.6280 5.16302   5
   8  -2  -8 44.7475 5.06611   2
   8  -2  -8 34.2427 44.7453   1
  -8  -2   8 49.2762 7.66013   2
   8  -2  -8 24.3962 42.5084   1
  -8  -2   8 41.3770 6.28578   5
   8  -2  -8 41.9304 5.10271   4
   8   2  -8 41.1189 5.13532   5
   8   2  -8 36.2426 4.97445   2
   8   2  -8 33.3973 36.7455   1
  -8   2   8 53.3177 6.39206   5
  -8   2   8 54.1070 7.14191   2
   8   2  -8 2.35971 29.6000   1
   6  -2  -8 28.9130 3.91946   2
   6  -2  -8 18.7785 32.5776   1
  -6  -2   8 26.6480 5.64416   2
  -6  -2   8 32.0320 5.30014   5
   6  -2  -8 19.1426 43.7686   1
   6  -2  -8 24.6904 3.84146   4
  -6  -2   8 47.4135 42.7493   1
   6  -2  -8 21.4512 3.56715   5
  -6   2   8 25.9406 5.02593   2
   6   2  -8 -9.6538 60.3690   1
   6   2  -8 24.1851 3.80627   2
  -6   2   8 25.7321 4.61658   5
   6   2  -8 25.1688 3.76379   5
  -4  -2   8 137.117 36.2680   1
   4  -2  -8 187.316 15.2205   4
   4  -2  -8 193.597 15.3659   2
  -4  -2   8 211.321 17.0037   2
  -4  -2   8 220.104 16.4746   5
   4  -2  -8 224.624 48.8423   1
   4  -2  -8 216.708 15.3421   5
   4   2  -8 212.605 15.5060   5
  -4   2   8 208.698 16.0987   5
   4   2  -8 189.050 15.4587   2
   4   2  -8 208.343 45.1714   1
  -4   2   8 199.790 16.4773   2
   2  -2  -8 29.5125 22.5868   1
   2  -2  -8 25.5017 30.7199   1
   2  -2  -8 28.9647 3.36524   5
   2  -2  -8 23.2595 3.81399   2
  -2  -2   8 29.8968 4.92984   5
  -2  -2   8 -26.309 48.0503   1
   2  -2  -8 21.2160 3.63060   4
   2   2  -8 11.0797 31.6536   1
   2   2  -8 24.0044 3.58275   2
   2   2  -8 27.1658 3.62935   5
  -2   2   8 21.3273 4.00720   5
  -2   2   8 20.5334 4.15391   2
   0  -2   8 6.25180 26.4508   1
   0  -2  -8 11.2129 2.12338   5
   0  -2  -8 11.8686 2.68883   4
   0  -2  -8 12.5474 2.85012   2
   0  -2   8 9.21119 3.05259   5
   0   2  -8 11.2536 2.58809   2
   0   2   8 10.0319 3.22312   2
   0   2  -8 10.6798 2.34077   5
   0   2   8 15.2626 3.24876   5
   0   2  -8 2.15258 25.2590   1
   2  -2   8 16.7504 3.70304   5
  -2  -2  -8 24.5964 2.72888   5
   2  -2   8 17.3318 4.62271   2
   2  -2   8 7.25437 29.2337   1
  -2  -2  -8 5.81379 28.7768   1
  -2  -2  -8 21.4057 3.21233   4
  -2   2  -8 5.25458 36.2400   1
   2   2   8 21.8229 3.97519   2
  -2   2  -8 16.9398 3.04314   5
   2   2   8 19.5460 3.72409   5
  -2   2  -8 22.2402 3.35199   2
   4  -2   8 30.5737 40.1075   1
  -4  -2  -8 7.30841 1.61045   5
  -4  -2  -8 6.07832 2.28464   4
   4  -2   8 5.07063 3.25153   5
  -4  -2  -8 6.55313 2.78484   3
   4  -2   8 6.54946 4.14488   2
  -4   2  -8 5.90745 2.16590   2
  -4   2  -8 5.41400 1.96322   5
  -4   2  -8 15.9492 40.5213   1
   4   2   8 5.78785 3.02844   5
   4   2   8 7.95484 3.02932   2
  -6  -2  -8 92.5967 7.76682   3
   6  -2   8 75.7812 9.00519   5
   6  -2   8 81.4129 9.88655   2
  -6  -2  -8 86.3735 7.76321   4
   6   2   8 93.4929 8.75234   2
   6   2   8 91.4158 8.59344   5
  -6   2  -8 81.4099 7.66100   2
  -6   2  -8 96.9329 7.58576   5
   8  -2   8 29.3313 5.55585   5
  -8  -2  -8 27.0190 4.10477   3
  -8  -2  -8 27.1729 4.25500   4
   8  -2   8 23.2955 5.88647   2
  -8   2  -8 26.6858 3.94140   5
   8   2   8 27.0737 4.98348   5
  -8   2  -8 24.3178 4.08680   2
  10  -2   8 6.19814 4.68492   5
  10  -2   8 4.11127 4.92199   2
 -10  -2  -8 8.17533 3.10603   3
 -10  -2  -8 9.52476 3.05958   4
  10   2   8 2.91897 5.26648   5
 -10   2  -8 6.49141 2.43951   5
 -10   2  -8 5.80394 3.78499   2
  10   2   8 -0.3049 4.79363   2
  12  -2   8 23.5068 6.33490   2
  12  -2   8 29.1259 7.28470   5
 -12  -2  -8 22.2245 4.19222   3
 -12  -2  -8 18.6394 3.88315   4
  12   2   8 14.0230 7.41581   5
 -12   2  -8 30.4126 4.31644   5
 -12   2  -8 16.3220 3.45307   3
  12   2   8 23.6384 6.68007   2
 -12   2  -8 -6.3084 8.26329   2
 -14  -2  -8 5.98296 3.27553   4
  14  -2   8 2.52079 5.84793   2
 -14  -2  -8 4.47068 3.33282   3
  14  -2   8 6.04668 7.11211   5
 -14   2  -8 7.21031 3.32367   3
  14   2   8 -2.0645 6.87352   2
 -14   2  -8 7.30363 3.40854   5
  16  -2   8 196.805 18.5325   2
 -16  -2  -8 172.827 14.3273   3
 -16  -2  -8 151.971 14.2349   4
  16  -2   8 172.823 18.8549   5
 -16   2  -8 174.958 14.6337   3
  16   2   8 178.464 18.6210   2
 -16   2  -8 167.855 13.7681   5
  18  -2   8 69.8682 14.3704   5
 -18  -2  -8 94.8286 9.64313   4
 -18  -2  -8 101.740 9.54681   3
  18  -2   8 124.487 15.0740   2
 -18   2  -8 95.2949 9.86806   3
  18   2   8 70.2581 13.3659   2
  20  -2   8 144.319 22.9208   5
 -20  -2  -8 149.345 13.4964   3
  20  -2   8 166.318 18.3399   2
 -20   2  -8 153.912 13.9005   3
  20   2   8 138.109 18.9272   2
  22  -2   8 148.092 17.4049   2
 -22  -2  -8 127.081 12.0969   3
 -22   2  -8 135.015 12.5319   3
  22   2   8 90.4578 16.3651   2
 -24  -2  -8 56.6342 8.68791   3
  24  -2   8 53.6008 11.8936   2
  24   2   8 48.6296 14.9649   2
 -24   2  -8 81.8023 9.04695   3
  26  -2   8 18.0542 10.5989   2
 -26  -2  -8 15.2073 5.56016   3
 -26   2  -8 7.01240 5.14024   3
 -28  -2  -8 3.03909 6.39067   3
 -28   2  -8 -0.1508 4.35788   3
  29  -3  -8 236.237 20.7138   2
  27  -3  -8 114.080 12.5285   2
  27   3  -8 126.005 12.4169   2
  25  -3  -8 183.666 17.3910   2
  25   3  -8 207.032 17.3912   2
 -23  -3   8 294.083 26.3081   3
  23  -3  -8 309.464 26.3784   5
  23  -3  -8 337.366 26.2456   2
 -23   3   8 372.198 28.7327   2
 -23   3   8 316.594 25.5237   5
  23   3  -8 278.912 27.6070   5
  23   3  -8 333.355 25.9188   2
  21  -3  -8 88.9639 12.0612   5
 -21  -3   8 80.5322 12.2074   3
  21  -3  -8 101.112 11.5055   2
 -21   3   8 103.679 12.8489   2
  21   3  -8 95.6120 13.6508   5
 -21   3   8 95.8237 10.8469   5
  21   3  -8 97.5133 10.8232   2
  19  -3  -8 178.759 16.2804   2
 -19  -3   8 165.693 16.0607   3
  19  -3  -8 171.675 16.3300   5
 -19  -3   8 162.711 14.9846   5
 -19   3   8 192.848 15.9350   5
  19   3  -8 156.310 16.4038   5
  19   3  -8 180.905 15.8646   2
 -19   3   8 188.572 16.6666   2
  17  -3  -8 275.001 21.0969   2
 -17  -3   8 232.316 20.0575   3
  17  -3  -8 236.371 20.8231   5
 -17  -3   8 246.992 19.9070   5
 -17   3   8 268.652 21.2578   2
  17   3  -8 222.366 20.6565   5
  17   3  -8 261.968 20.7131   2
 -17   3   8 257.658 20.7560   5
 -15  -3   8 192.843 15.6594   3
  15  -3  -8 179.098 16.2056   2
  15  -3  -8 177.353 16.2540   5
 -15  -3   8 195.924 15.9790   5
 -15   3   8 210.603 16.8659   5
  15   3  -8 178.504 16.1367   5
 -15   3   8 206.959 17.1096   2
  15   3  -8 173.932 15.9333   2
 -13  -3   8 415.536 29.9929   3
  13  -3  -8 360.780 29.6851   4
  13  -3  -8 397.669 30.5708   2
  13  -3  -8 430.308 30.8208   5
 -13  -3   8 417.466 30.7634   5
  13   3  -8 385.783 30.5259   5
 -13   3   8 394.973 31.4468   2
  13   3  -8 444.464 30.7638   2
 -13   3   8 388.181 31.1591   5
  11  -3  -8 234.229 19.2813   2
  11  -3  -8 219.596 18.7902   4
  11  -3  -8 264.066 19.5358   5
 -11  -3   8 248.785 19.9707   5
 -11  -3   8 243.572 21.4920   2
 -11  -3   8 259.698 18.9851   3
  11   3  -8 247.859 19.4414   2
 -11   3   8 256.480 20.7264   2
  11   3  -8 244.278 19.4048   5
 -11   3   8 267.914 20.5359   5
  -9  -3   8 418.010 32.7039   2
   9  -3  -8 401.337 30.7569   5
   9  -3  -8 420.536 30.7783   2
   9  -3  -8 378.564 30.3818   4
  -9  -3   8 412.894 31.6333   5
  -9   3   8 416.524 32.1422   2
  -9   3   8 423.673 31.8496   5
   9   3  -8 437.661 30.9505   5
   9   3  -8 445.267 31.0147   2
  -7  -3   8 886.374 120.122   1
   7  -3  -8 823.543 60.1629   2
  -7  -3   8 874.638 61.2256   5
   7  -3  -8 890.498 60.2030   5
  -7  -3   8 832.537 61.8546   2
   7  -3  -8 796.672 59.9264   4
   7   3  -8 885.210 60.4311   2
  -7   3   8 820.414 60.9967   5
  -7   3   8 822.085 61.3194   2
   7   3  -8 864.941 60.3323   5
   7   3  -8 624.619 102.180   1
  -5  -3   8 940.660 69.1711   2
   5  -3  -8 881.445 67.3251   2
  -5  -3   8 956.490 68.5101   5
   5  -3  -8 947.768 67.3503   5
   5  -3  -8 902.222 67.3082   4
  -5  -3   8 1048.40 112.866   1
   5   3  -8 951.219 67.6017   5
   5   3  -8 990.737 114.938   1
  -5   3   8 1013.69 68.2762   5
  -5   3   8 950.522 68.5047   2
   5   3  -8 903.745 67.5872   2
  -3  -3   8 165.944 14.6604   2
  -3  -3   8 84.3137 34.8690   1
   3  -3  -8 152.120 12.3292   4
  -3  -3   8 159.737 13.6512   5
   3  -3  -8 152.795 12.1265   5
   3  -3  -8 137.992 12.3322   2
   3   3  -8 149.308 42.9254   1
  -3   3   8 160.779 13.4602   2
   3   3  -8 191.125 12.7947   2
  -3   3   8 171.754 13.1975   5
   1  -3  -8 257.019 19.4215   5
  -1  -3   8 267.317 21.9671   2
   1  -3  -8 250.927 19.7690   4
   1  -3  -8 213.486 51.6530   1
  -1  -3   8 288.789 21.2081   5
   1  -3  -8 230.461 19.6821   2
  -1  -3   8 354.548 79.5588   1
  -1   3   8 257.120 20.2162   5
   1   3  -8 287.463 20.0776   2
  -1   3   8 268.640 20.6412   2
   1   3  -8 219.484 49.0977   1
   1   3  -8 308.125 20.0593   5
  -1  -3  -8 418.524 32.2279   4
  -1  -3  -8 407.426 31.6745   5
   1  -3   8 460.439 34.2166   2
  -1  -3  -8 422.381 68.1493   1
   1  -3   8 475.900 33.5243   5
   1  -3   8 572.041 101.583   1
  -1   3  -8 495.486 32.3931   5
  -1   3  -8 445.158 32.3788   2
   1   3   8 437.454 32.5405   5
   1   3   8 435.876 32.7457   2
  -1   3  -8 344.422 64.6614   1
  -3  -3  -8 98.4019 8.35733   5
   3  -3   8 136.223 12.2485   2
  -3  -3  -8 94.1583 40.2648   1
   3  -3   8 123.360 10.9569   5
   3  -3   8 118.846 64.8716   1
  -3  -3  -8 106.110 9.38751   4
   3   3   8 111.559 9.96772   5
   3   3   8 120.393 10.1447   2
  -3   3  -8 124.551 40.5353   1
  -3   3  -8 129.129 9.60356   2
   5  -3   8 86.5722 9.68156   2
   5  -3   8 82.5151 8.56960   5
  -5  -3  -8 59.6313 6.55367   4
  -5  -3  -8 62.8828 6.51941   3
   5  -3   8 101.247 57.9912   1
  -5  -3  -8 33.8033 37.0673   1
   5   3   8 73.9009 7.44069   5
  -5   3  -8 75.2687 6.64189   2
  -5   3  -8 18.7874 38.0489   1
   5   3   8 73.8187 7.43290   2
   7  -3   8 129.741 12.2488   5
  -7  -3  -8 108.951 9.92223   3
  -7  -3  -8 110.598 10.1165   4
   7  -3   8 129.492 12.8743   2
  -7  -3  -8 93.2144 39.3051   1
   7   3   8 107.163 11.0194   5
  -7   3  -8 136.079 10.3475   2
   7   3   8 121.267 11.0228   2
  -7   3  -8 139.409 10.2158   5
  -9  -3  -8 14.8737 3.51791   3
   9  -3   8 7.34608 4.92272   2
  -9  -3  -8 10.7630 2.82572   4
   9  -3   8 16.6971 5.66873   5
   9   3   8 5.82500 5.42203   5
  -9   3  -8 15.7530 3.44509   2
  -9   3  -8 14.2404 2.89451   5
  11  -3   8 13.0688 5.60970   5
  11  -3   8 13.8805 6.06156   2
 -11  -3  -8 18.5377 4.01015   4
 -11  -3  -8 15.0289 3.78403   3
  11   3   8 13.3687 6.27182   2
 -11   3  -8 15.1387 3.49329   5
 -11   3  -8 18.0243 4.44242   2
 -13  -3  -8 17.2625 3.80802   4
  13  -3   8 24.6661 7.56377   2
  13  -3   8 31.6231 8.53837   5
 -13  -3  -8 26.3987 4.37852   3
  13   3   8 28.2954 8.10441   2
 -15  -3  -8 38.6842 6.00030   4
  15  -3   8 34.8264 9.60995   5
 -15  -3  -8 55.6888 6.73042   3
  15  -3   8 31.5238 8.32940   2
 -15   3  -8 40.2615 6.41542   3
  15   3   8 59.2362 11.0908   2
 -15   3  -8 39.1256 6.39881   5
 -17  -3  -8 84.9123 8.49711   3
  17  -3   8 62.5840 11.8012   2
  17  -3   8 65.2095 12.9451   5
 -17  -3  -8 66.6042 7.87948   4
 -17   3  -8 77.4897 8.44661   3
 -17   3  -8 54.9926 8.09235   5
  17   3   8 77.4122 13.7762   2
 -19  -3  -8 267.739 19.4104   3
 -19  -3  -8 200.852 19.0399   4
  19  -3   8 214.953 25.0116   5
  19  -3   8 258.110 23.4808   2
  19   3   8 279.903 24.3551   2
 -19   3  -8 230.372 19.5194   3
  21  -3   8 160.588 17.2731   2
  21  -3   8 99.9537 19.1527   5
 -21  -3  -8 140.371 12.6551   3
 -21   3  -8 144.845 12.9557   3
  21   3   8 84.4453 19.6726   2
 -23  -3  -8 166.625 15.3878   3
  23  -3   8 196.075 19.6926   2
 -23   3  -8 174.933 15.4730   3
  25  -3   8 21.4492 10.0200   2
 -25  -3  -8 20.8889 6.93160   3
 -25   3  -8 21.3730 5.79256   3
  27  -3   8 13.6403 10.0706   2
 -27  -3  -8 3.44552 6.35814   3
 -27   3  -8 4.17963 5.06458   3
  28  -4  -8 3.89649 6.45724   2
  28   4  -8 12.5657 8.37200   2
  26  -4  -8 22.6479 6.57722   2
  26   4  -8 19.6798 6.15217   2
  24  -4  -8 5.14335 5.89250   2
 -24  -4   8 2.54382 8.40755   3
  24   4  -8 2.34904 5.32646   2
 -22  -4   8 53.6737 9.13832   3
  22  -4  -8 27.3203 7.86105   5
  22  -4  -8 43.4709 8.30874   2
  22   4  -8 23.4446 11.7471   5
  22   4  -8 42.4701 7.19087   2
 -22   4   8 54.4752 9.80822   2
 -22   4   8 42.9280 7.50744   5
  20  -4  -8 14.1785 6.36878   2
  20  -4  -8 11.3211 5.88741   5
 -20  -4   8 13.4092 7.01915   3
 -20   4   8 4.24156 4.83424   5
  20   4  -8 19.4912 7.93983   5
 -20   4   8 7.27907 5.83464   2
  20   4  -8 10.6677 5.24452   2
 -18  -4   8 6.97712 5.28124   3
  18  -4  -8 13.5833 5.83752   5
  18  -4  -8 6.41201 5.31200   2
 -18   4   8 7.24276 5.35730   2
  18   4  -8 6.58263 4.54138   2
 -18   4   8 11.1532 4.83494   5
  18   4  -8 8.29883 5.94347   5
 -16  -4   8 4.66477 4.31931   3
  16  -4  -8 2.15110 4.46517   5
 -16  -4   8 0.08324 4.46380   5
  16  -4  -8 2.38082 4.61447   2
  16   4  -8 11.5634 4.48218   2
 -16   4   8 10.9636 5.00248   2
 -16   4   8 13.0235 5.38173   5
  16   4  -8 -1.2761 4.73413   5
 -14  -4   8 11.7852 3.95342   3
  14  -4  -8 6.69931 4.31587   4
  14  -4  -8 6.33701 3.85657   5
  14  -4  -8 10.0285 4.60355   2
 -14  -4   8 8.59154 4.21433   5
  14   4  -8 12.8504 4.02678   2
 -14   4   8 7.67225 4.51725   5
  14   4  -8 4.20083 3.93577   5
 -14   4   8 8.81130 4.90029   2
 -12  -4   8 12.1990 4.34225   5
 -12  -4   8 13.3832 3.69137   3
  12  -4  -8 14.4357 3.94398   5
  12  -4  -8 11.4646 3.91945   2
  12  -4  -8 15.5860 4.00067   4
 -12   4   8 8.40290 4.65432   2
  12   4  -8 13.7487 3.87694   2
 -12   4   8 11.6769 4.84702   5
  12   4  -8 17.6548 4.39774   5
 -10  -4   8 19.1536 4.86840   5
  10  -4  -8 15.0130 4.03752   2
  10  -4  -8 17.0784 3.79732   4
  10  -4  -8 19.9759 3.83316   5
 -10  -4   8 19.8967 3.88671   3
 -10  -4   8 28.4820 8.18965   2
 -10   4   8 32.4922 5.99319   5
  10   4  -8 28.5442 4.56932   5
  10   4  -8 19.1345 3.87349   2
 -10   4   8 16.4696 5.20321   2
  -8  -4   8 255.501 21.4637   5
   8  -4  -8 278.511 20.2816   4
   8  -4  -8 283.368 20.2747   5
  -8  -4   8 238.332 22.8696   2
   8  -4  -8 287.616 20.4422   2
  -8   4   8 297.248 22.1089   2
   8   4  -8 240.837 20.3603   2
   8   4  -8 237.315 20.3115   5
  -8   4   8 285.095 21.6302   5
  -6  -4   8 38.7829 6.74505   5
  -6  -4   8 33.5504 7.69620   2
   6  -4  -8 31.5196 5.33072   2
   6  -4  -8 39.4188 4.94658   4
   6  -4  -8 41.1064 4.59997   5
  -6   4   8 30.0583 5.79513   2
   6   4  -8 42.4760 5.00160   2
   6   4  -8 42.5343 5.08526   5
  -6   4   8 38.8329 6.23152   5
  -4  -4   8 311.664 26.2773   2
   4  -4  -8 344.399 24.0396   4
  -4  -4   8 325.851 25.4109   5
   4  -4  -8 348.784 23.7111   5
   4  -4  -8 324.334 23.9168   2
  -4  -4   8 233.994 65.1921   1
   4   4  -8 230.781 77.0355   1
  -4   4   8 342.319 25.1771   2
   4   4  -8 299.337 24.0453   5
  -4   4   8 332.466 24.7911   5
   4   4  -8 300.896 24.1158   2
  -2  -4   8 51.1210 50.3080   1
  -2  -4   8 41.8415 7.71503   2
   2  -4  -8 -32.069 64.8356   1
   2  -4  -8 36.2276 4.55579   4
  -2  -4   8 44.3133 6.77312   5
   2  -4  -8 37.7136 3.82280   5
   2   4  -8 4.88274 41.4259   1
  -2   4   8 36.6502 5.67009   2
  -2   4   8 36.8726 5.72588   5
   2   4  -8 34.8502 4.46631   2
   2   4  -8 33.7342 4.54074   5
   0  -4   8 178.232 14.5572   5
   0  -4   8 168.578 15.7852   2
   0  -4  -8 156.501 12.0186   5
   0  -4  -8 162.456 12.7950   4
   0   4   8 160.036 13.5320   2
   0   4  -8 162.868 12.9524   2
   0   4  -8 124.285 46.4740   1
   0   4  -8 164.375 12.8765   5
   0   4   8 166.844 13.4000   5
  -2  -4  -8 311.826 65.1886   1
   2  -4   8 486.178 105.206   1
   2  -4   8 375.550 29.8890   2
   2  -4   8 387.511 29.1264   5
  -2  -4  -8 368.164 27.5608   4
  -2   4  -8 391.561 27.6590   5
  -2   4  -8 386.105 98.6220   1
   2   4   8 355.956 27.7660   5
  -2   4  -8 367.050 27.6666   2
   2   4   8 382.370 28.0215   2
   4  -4   8 59.4134 9.09554   2
   4  -4   8 54.4623 7.78813   5
  -4  -4  -8 45.2110 5.36872   4
  -4  -4  -8 3.89486 46.4531   1
   4  -4   8 63.6195 59.1550   1
  -4   4  -8 52.4697 5.41921   5
   4   4   8 44.4173 6.70569   5
  -4   4  -8 51.0808 5.35289   2
  -4   4  -8 38.6588 44.2066   1
   4   4   8 48.3316 6.35974   2
   6  -4   8 46.0267 7.54841   5
  -6  -4  -8 39.2837 5.29068   3
   6  -4   8 29.3940 6.83679   2
  -6  -4  -8 69.3425 41.9652   1
  -6  -4  -8 44.9060 4.99642   4
   6   4   8 46.3834 6.31150   2
  -6   4  -8 39.7992 4.86461   5
  -6   4  -8 36.6062 4.94053   2
   6   4   8 30.8089 5.68163   5
  -8  -4  -8 37.5287 5.35369   4
  -8  -4  -8 36.1484 5.83615   3
   8  -4   8 47.2716 8.57229   2
   8  -4   8 46.1342 7.75991   5
  -8   4  -8 56.6823 5.77456   5
  -8   4  -8 50.5963 5.77357   2
   8   4   8 50.7453 7.47004   2
  10  -4   8 29.2059 7.91600   2
 -10  -4  -8 30.9460 5.03785   4
  10  -4   8 23.7959 7.37921   5
 -10   4  -8 42.1561 5.38772   5
 -10   4  -8 38.8299 5.61238   2
 -12  -4  -8 47.8390 6.77960   4
  12  -4   8 70.4992 11.2672   2
  12  -4   8 75.1449 11.2986   5
 -12  -4  -8 58.2233 7.33264   3
 -12   4  -8 70.1323 7.39036   5
  12   4   8 55.5524 9.73512   2
 -12   4  -8 65.0887 7.92559   2
 -14  -4  -8 6.72575 3.43039   4
  14  -4   8 14.0230 7.82091   5
 -14  -4  -8 16.2147 4.45775   3
  14  -4   8 11.2308 6.89808   2
  14   4   8 -1.5918 10.0283   2
 -14   4  -8 14.0368 5.86578   2
 -16  -4  -8 72.7996 7.61289   4
  16  -4   8 51.0502 12.0036   5
  16  -4   8 71.1075 11.9229   2
 -16  -4  -8 74.0522 8.29557   3
 -16   4  -8 55.6615 8.05500   5
  16   4   8 57.4613 13.5133   2
 -16   4  -8 50.4196 7.45813   3
 -18  -4  -8 179.455 13.9292   4
  18  -4   8 116.166 19.9465   5
  18  -4   8 160.155 17.9376   2
 -18  -4  -8 177.030 14.2689   3
 -18   4  -8 134.487 13.8597   3
  20  -4   8 154.438 24.0999   5
 -20  -4  -8 252.486 18.4968   3
 -20  -4  -8 233.579 18.0462   4
  20  -4   8 204.082 21.7841   2
 -20   4  -8 207.480 18.0327   3
 -22  -4  -8 166.044 14.5488   3
  22  -4   8 152.585 17.9158   2
 -22   4  -8 145.540 13.9601   3
  24  -4   8 91.4627 14.8273   2
 -24  -4  -8 110.653 11.4740   3
 -24   4  -8 92.1972 10.3969   3
 -26  -4  -8 10.0546 6.79265   3
  26  -4   8 3.85385 9.77388   2
 -26   4  -8 27.4165 5.91834   3
 -25  -5   8 74.1420 14.7392   3
  25   5  -8 78.4066 10.3802   2
  23  -5  -8 52.4500 9.49310   2
 -23  -5   8 63.6998 9.63706   3
 -23   5   8 68.7977 11.4966   2
  23   5  -8 81.0772 9.85836   2
  21  -5  -8 98.3255 12.2844   2
  21  -5  -8 93.5478 12.5075   5
 -21  -5   8 96.8002 12.8228   3
  21   5  -8 123.995 11.9202   2
 -21   5   8 93.4810 11.8744   5
 -21   5   8 97.1227 13.0269   2
  19  -5  -8 73.7941 11.0352   5
  19  -5  -8 75.2610 11.1583   2
 -19  -5   8 78.7860 11.1706   3
  19   5  -8 81.6762 14.1923   5
 -19   5   8 90.9611 11.3315   2
 -19   5   8 100.065 11.0268   5
  19   5  -8 93.7817 10.7009   2
  17  -5  -8 169.140 15.7075   2
 -17  -5   8 153.220 15.2863   3
  17  -5  -8 162.564 15.5682   5
  17   5  -8 170.644 15.3696   2
 -17   5   8 194.853 16.4367   2
 -17   5   8 169.013 15.9392   5
  17   5  -8 154.421 16.4486   5
 -15  -5   8 45.9674 6.87142   3
  15  -5  -8 43.0107 6.67086   4
  15  -5  -8 46.8155 7.76226   5
  15  -5  -8 45.3456 7.62087   2
  15   5  -8 53.1349 8.11009   5
 -15   5   8 44.8258 7.95339   2
  15   5  -8 52.7944 7.49593   2
 -15   5   8 51.4357 8.37118   5
  13  -5  -8 49.7094 6.96483   5
  13  -5  -8 31.3177 5.69756   4
 -13  -5   8 41.4715 6.47268   5
  13  -5  -8 44.4427 7.42427   2
 -13  -5   8 41.8441 6.06969   3
 -13   5   8 46.7835 7.78378   5
  13   5  -8 42.8752 7.46718   5
  13   5  -8 54.2251 6.69008   2
 -13   5   8 50.4379 8.25473   2
  11  -5  -8 81.6272 9.17494   2
  11  -5  -8 79.9205 8.60856   4
  11  -5  -8 93.7687 8.80975   5
 -11  -5   8 79.0906 8.70005   3
 -11  -5   8 84.0572 9.76228   5
 -11   5   8 85.1046 10.5824   5
  11   5  -8 101.745 9.09955   2
 -11   5   8 90.6888 10.9639   2
  11   5  -8 91.3725 9.26903   5
   9  -5  -8 111.335 9.27591   5
   9  -5  -8 96.9720 9.40263   4
   9  -5  -8 86.1960 9.80203   2
  -9  -5   8 101.972 10.8186   5
   9   5  -8 118.659 9.97866   5
  -9   5   8 103.711 11.4953   2
  -9   5   8 97.6312 11.3444   5
   9   5  -8 112.152 9.73873   2
   7  -5  -8 21.0287 4.84244   2
  -7  -5   8 31.3548 8.74778   2
   7  -5  -8 25.7817 4.14568   5
  -7  -5   8 29.6345 5.74319   5
   7  -5  -8 24.0319 4.17994   4
   7   5  -8 18.9172 3.83312   2
  -7   5   8 16.9628 5.35180   2
   7   5  -8 31.9911 5.13436   5
  -7   5   8 33.4809 6.22215   5
  -5  -5   8 24.1434 5.81769   5
   5  -5  -8 27.7899 3.90267   5
   5  -5  -8 29.0825 4.58403   4
  -5  -5   8 24.8287 7.97617   2
   5   5  -8 27.2507 4.51309   2
  -5   5   8 28.2077 5.62165   5
   5   5  -8 32.8162 4.82586   5
  -5   5   8 26.2408 5.79812   2
   3  -5  -8 240.225 18.2574   4
  -3  -5   8 230.728 21.4213   2
  -3  -5   8 259.640 20.3527   5
   3  -5  -8 224.660 17.4880   5
  -3   5   8 226.590 19.0560   5
   3   5  -8 250.261 18.4139   5
  -3   5   8 233.881 19.3396   2
   3   5  -8 244.231 18.4589   2
   1  -5  -8 85.7914 7.65260   5
   1  -5  -8 95.7440 8.96154   4
  -1  -5   8 116.013 11.6618   5
  -1  -5   8 105.971 13.2524   2
   1   5  -8 118.466 9.20046   5
  -1   5   8 101.782 10.0723   5
   1   5  -8 116.470 9.12518   2
  -1   5   8 100.943 9.99484   2
   1  -5   8 195.179 16.3534   5
  -1  -5  -8 170.854 13.7325   4
   1  -5   8 165.931 17.0503   2
   1   5   8 168.496 14.3805   2
   1   5   8 150.596 14.2174   5
  -1   5  -8 178.466 13.8148   5
  -1   5  -8 181.767 13.8369   2
   3  -5   8 37.7458 7.36231   5
  -3  -5  -8 26.9479 4.38096   4
   3  -5   8 29.0180 7.60944   2
   3   5   8 21.9153 5.18797   5
   3   5   8 29.6471 5.24466   2
  -3   5  -8 35.6659 4.72548   2
  -3   5  -8 33.8153 4.76985   5
  -5  -5  -8 184.602 15.6424   4
   5  -5   8 200.643 19.1542   2
   5  -5   8 199.279 18.1424   5
  -5   5  -8 212.284 15.8104   5
  -5   5  -8 197.972 15.8226   2
   5   5   8 205.054 16.2083   2
   7  -5   8 13.6189 6.88397   2
  -7  -5  -8 1.29462 4.00854   3
  -7  -5  -8 14.1625 3.54753   4
   7  -5   8 7.65534 5.33944   5
  -7   5  -8 5.85540 3.03435   2
   7   5   8 10.7120 4.65883   2
  -7   5  -8 8.85749 3.13311   5
  -9  -5  -8 6.80357 4.05092   3
   9  -5   8 5.82115 5.69197   5
  -9  -5  -8 0.48433 2.54153   4
   9  -5   8 1.60684 6.36263   2
   9   5   8 7.55591 5.99166   2
  -9   5  -8 -0.0993 2.69128   5
  -9   5  -8 1.11870 3.03808   2
  11  -5   8 88.9757 12.9812   5
 -11  -5  -8 81.7804 8.44550   4
  11  -5   8 102.694 13.3883   2
 -11  -5  -8 68.6238 9.28824   3
  11   5   8 83.7303 13.2880   2
 -11   5  -8 103.259 9.24022   2
 -11   5  -8 92.9053 9.08135   5
  13  -5   8 66.3987 11.1348   5
 -13  -5  -8 53.9605 7.40633   4
  13  -5   8 74.6615 12.4676   2
 -13  -5  -8 58.7085 8.61616   3
 -13   5  -8 71.7641 8.09610   5
 -13   5  -8 83.2431 8.96555   2
  15  -5   8 11.9497 8.98273   5
  15  -5   8 10.2864 7.69439   2
 -15  -5  -8 31.8927 5.33922   4
 -15  -5  -8 22.5287 5.88089   3
 -15   5  -8 20.1309 6.93917   2
 -15   5  -8 18.5288 5.22928   5
  17  -5   8 41.2204 10.1320   2
  17  -5   8 24.0268 10.9729   5
 -17  -5  -8 25.4685 5.03621   4
 -17  -5  -8 40.5956 7.10315   3
 -17   5  -8 22.1747 5.35854   3
 -17   5  -8 34.8027 6.28659   5
  19  -5   8 21.7266 9.49693   2
  19  -5   8 3.45196 11.3068   5
 -19  -5  -8 35.2863 5.84793   4
 -19  -5  -8 25.1913 6.86048   3
 -19   5  -8 17.1622 5.87211   3
 -19   5  -8 7.07973 6.09358   5
  21  -5   8 19.9122 12.7812   5
  21  -5   8 24.0419 9.50400   2
 -21   5  -8 24.4410 6.38155   3
 -23  -5  -8 10.0507 6.72553   3
  23  -5   8 7.95134 9.21498   2
 -23   5  -8 3.12376 4.98566   3
 -25  -5  -8 7.92003 7.57279   3
  25  -5   8 -2.8084 9.45302   2
 -25   5  -8 -2.9820 4.95899   3
  24  -6  -8 112.961 14.2142   2
 -24   6   8 104.923 14.7028   2
  24   6  -8 94.2344 11.7825   2
  22  -6  -8 98.3198 13.6949   2
 -22  -6   8 104.786 12.7326   3
 -22   6   8 107.732 13.8226   2
  22   6  -8 95.2393 11.4409   2
  20  -6  -8 72.4363 11.2148   5
 -20  -6   8 58.8644 9.83784   3
  20  -6  -8 92.9031 12.4944   2
  20   6  -8 74.8444 10.1518   2
 -20   6   8 79.8397 11.0426   5
 -20   6   8 82.1565 11.2512   2
  18  -6  -8 41.9833 7.90858   5
 -18  -6   8 50.5050 9.08916   3
  18  -6  -8 41.3551 8.68156   2
 -18   6   8 47.2745 8.17404   2
  18   6  -8 49.4382 7.75488   2
 -18   6   8 54.7884 8.65036   5
  16  -6  -8 93.6871 11.0186   4
 -16  -6   8 97.5677 11.2212   3
  16  -6  -8 93.5118 11.0224   5
  16  -6  -8 91.8718 11.9901   2
 -16   6   8 103.253 12.2480   2
  16   6  -8 92.0827 13.8628   5
 -16   6   8 95.7956 12.0158   5
  16   6  -8 111.611 11.0838   2
  14  -6  -8 112.486 11.0136   5
  14  -6  -8 93.0166 10.9051   4
  14  -6  -8 112.993 11.9656   2
 -14  -6   8 105.452 11.0670   3
 -14   6   8 124.629 13.0024   2
  14   6  -8 113.259 11.0059   2
 -14   6   8 95.3666 12.4107   5
  14   6  -8 97.8411 12.4787   5
  12  -6  -8 100.290 10.5241   4
  12  -6  -8 114.264 10.4831   5
  12  -6  -8 99.4383 11.4215   2
  12   6  -8 109.661 11.6380   5
  12   6  -8 124.008 11.0162   2
 -12   6   8 115.250 12.9137   2
 -12   6   8 96.6653 12.7069   5
 -10  -6   8 77.3634 9.90411   5
  10  -6  -8 75.2623 7.92024   5
  10  -6  -8 77.4364 8.36725   4
  10   6  -8 76.2055 9.07966   5
 -10   6   8 75.3086 10.7839   5
 -10   6   8 90.9326 11.2078   2
  10   6  -8 80.6439 8.49563   2
   8  -6  -8 283.419 20.1309   5
  -8  -6   8 256.443 21.8228   5
   8  -6  -8 260.037 20.5732   4
   8   6  -8 269.330 20.8318   5
  -8   6   8 242.381 22.1499   5
   8   6  -8 267.493 20.8226   2
  -8   6   8 266.237 22.5792   2
  -6  -6   8 521.778 39.7633   5
   6  -6  -8 519.354 38.2793   4
   6  -6  -8 477.214 37.4789   5
  -6   6   8 521.659 39.8325   2
  -6   6   8 513.221 39.3930   5
   6   6  -8 529.827 38.4965   2
   6   6  -8 562.779 38.5615   5
  -4  -6   8 246.008 24.1264   2
   4  -6  -8 234.448 19.3274   5
   4  -6  -8 274.195 20.4886   4
  -4  -6   8 257.215 22.5804   5
   4   6  -8 287.024 20.6342   5
  -4   6   8 260.693 21.5964   5
   4   6  -8 286.561 20.6839   2
  -4   6   8 276.477 21.9954   2
  -2  -6   8 78.5713 12.8611   2
  -2  -6   8 95.5062 12.1856   5
   2  -6  -8 92.3924 9.14441   4
  -2   6   8 106.914 10.7291   2
   2   6  -8 108.465 9.30818   2
  -2   6   8 89.6331 10.8197   5
   2   6  -8 114.431 9.58529   5
   0  -6  -8 217.809 18.1040   4
   0  -6   8 232.617 22.1768   2
   0  -6   8 232.936 20.9376   5
   0   6  -8 246.578 18.2943   5
   0   6   8 212.287 18.9587   5
   0   6  -8 253.317 18.3339   2
   0   6   8 232.195 18.8892   2
   2  -6   8 46.8801 9.00019   5
  -2  -6  -8 47.2776 6.34260   4
   2  -6   8 52.7130 10.5546   2
   2   6   8 58.3529 7.86104   2
  -2   6  -8 67.0732 6.68529   2
  -2   6  -8 74.1593 7.04836   5
   4  -6   8 16.5478 7.99952   2
   4  -6   8 15.6822 6.58108   5
  -4  -6  -8 17.4144 3.74133   4
  -4   6  -8 30.0509 4.85607   5
   4   6   8 20.2251 5.14250   2
  -4   6  -8 16.3561 3.71906   2
   6  -6   8 40.2967 8.83955   5
   6  -6   8 36.8255 9.71650   2
  -6   6  -8 44.0875 6.28643   5
   6   6   8 60.5375 8.13211   2
   8  -6   8 16.0554 7.84495   2
   8  -6   8 9.35413 7.00159   5
  -8  -6  -8 10.1749 3.16899   4
  -8   6  -8 3.85624 3.27627   5
   8   6   8 4.26950 6.27008   2
  -8   6  -8 6.52778 3.57017   2
  10  -6   8 27.3820 8.95848   2
  10  -6   8 29.6340 8.69475   5
 -10   6  -8 31.6599 5.51902   2
 -10   6  -8 27.1853 5.23585   5
  12  -6   8 53.1440 11.3946   2
 -12  -6  -8 43.8968 7.56598   3
  12  -6   8 41.4791 10.4311   5
 -12  -6  -8 42.1743 6.57272   4
 -12   6  -8 60.8171 7.91357   2
 -12   6  -8 45.5614 7.34650   5
 -14  -6  -8 23.3304 5.42676   4
 -14  -6  -8 30.2819 7.40880   3
  14  -6   8 23.7456 9.64997   5
  14  -6   8 30.2346 9.95497   2
 -14   6  -8 40.4195 7.44535   2
  16  -6   8 22.0287 9.40204   2
 -16  -6  -8 16.5117 4.86936   4
 -16  -6  -8 29.3382 7.58842   3
  16  -6   8 10.4583 9.47947   5
 -16   6  -8 23.8706 8.02739   2
 -16   6  -8 21.0890 6.07858   5
 -18  -6  -8 115.641 13.0844   3
 -18  -6  -8 107.563 10.7882   4
  18  -6   8 127.095 16.1049   2
  18  -6   8 94.5660 15.2353   5
 -18   6  -8 116.294 11.3504   3
 -18   6  -8 92.1542 11.8648   5
 -20  -6  -8 60.1493 9.36084   3
  20  -6   8 74.0267 11.9788   2
 -20  -6  -8 52.7621 8.17199   4
  20  -6   8 18.5419 15.5941   5
 -20   6  -8 57.3548 8.12131   3
  22  -6   8 18.5448 9.29216   2
 -22  -6  -8 8.92146 4.98451   4
 -22  -6  -8 8.71185 8.02936   3
 -22   6  -8 10.4297 5.24031   3
  24  -6   8 25.4005 9.95994   2
 -24   6  -8 28.4022 6.39612   3
  23   7  -8 -0.9399 6.06210   2
 -23   7   8 4.47315 8.97111   2
  21  -7  -8 5.75411 12.6985   2
  21   7  -8 1.30806 5.71950   2
 -21   7   8 0.74365 6.37203   2
  19  -7  -8 2.99662 11.0600   2
  19  -7  -8 7.15310 6.73497   5
 -19   7   8 3.92884 5.99094   2
 -19   7   8 -5.2754 6.41469   5
  19   7  -8 0.55003 5.35906   2
  17  -7  -8 -2.8351 5.91463   4
  17  -7  -8 3.03296 5.99538   5
  17  -7  -8 0.56486 10.1629   2
 -17   7   8 4.04426 6.75201   5
 -17   7   8 11.3825 6.35477   2
  17   7  -8 11.2323 5.69662   2
  15  -7  -8 14.7812 5.43977   5
  15  -7  -8 14.9998 5.63615   4
 -15   7   8 14.6353 6.65129   5
  15   7  -8 24.5114 5.86972   2
 -15   7   8 15.9549 6.64291   2
  15   7  -8 15.3622 9.78284   5
  13  -7  -8 32.5894 6.11675   4
  13  -7  -8 45.8706 7.16970   5
  13   7  -8 39.1364 6.76536   2
 -13   7   8 37.0702 8.51806   5
  13   7  -8 29.0737 7.90210   5
 -13   7   8 35.9803 8.31165   2
  11  -7  -8 52.2235 7.20728   4
  11  -7  -8 48.8605 7.00014   5
 -11   7   8 41.4694 9.10322   5
 -11   7   8 53.7706 9.42126   2
  11   7  -8 57.9419 9.52634   5
  -9  -7   8 114.391 13.5920   5
   9  -7  -8 149.661 12.7372   4
   9  -7  -8 162.028 12.0170   5
   9   7  -8 119.798 13.1876   5
   9   7  -8 137.087 12.6162   2
  -9   7   8 147.896 15.2397   2
  -9   7   8 149.399 15.6621   5
   7  -7  -8 50.4508 6.61164   4
  -7  -7   8 40.4354 7.87435   5
   7  -7  -8 49.8655 5.68540   5
  -7   7   8 61.6982 9.38220   5
   7   7  -8 37.8012 6.05976   2
  -7   7   8 37.9774 8.06517   2
   7   7  -8 42.1277 7.45206   5
  -5  -7   8 258.269 23.6988   5
   5  -7  -8 316.482 22.1826   4
  -5   7   8 288.499 23.8435   5
  -5   7   8 303.196 23.9373   2
   5   7  -8 261.829 22.1449   5
   5   7  -8 274.147 22.0531   2
   3  -7  -8 260.385 19.9009   4
  -3  -7   8 235.750 22.1677   5
   3   7  -8 252.197 20.1191   5
  -3   7   8 256.041 21.4341   5
  -3   7   8 258.411 21.2674   2
   3   7  -8 259.613 20.0268   2
  -1  -7   8 204.908 23.5065   2
   1  -7  -8 249.161 18.7391   4
  -1  -7   8 208.728 21.4983   5
  -1   7   8 239.472 20.1697   5
   1   7  -8 246.355 18.9147   5
  -1   7   8 265.190 19.9127   2
   1   7  -8 225.874 18.7012   2
   1  -7   8 106.469 17.1706   2
  -1  -7  -8 111.448 10.3818   4
   1  -7   8 125.530 14.8546   5
  -1   7  -8 113.140 10.6055   5
   1   7   8 113.388 11.6876   2
  -1   7  -8 125.719 10.5740   2
   3  -7   8 5.85841 9.06897   2
   3  -7   8 13.1556 7.58890   5
  -3  -7  -8 5.12320 2.82024   4
  -3   7  -8 13.5354 3.78419   2
   3   7   8 6.67246 5.03579   2
  -3   7  -8 6.95444 3.33359   5
   5  -7   8 11.7367 9.07129   2
   5  -7   8 15.7054 7.98723   5
  -5  -7  -8 4.69251 2.93944   4
  -5   7  -8 8.69783 3.71832   5
   5   7   8 -0.5732 5.47998   2
  -5   7  -8 6.50061 3.36984   2
   7  -7   8 4.26012 8.10038   5
   7  -7   8 12.3443 8.99592   2
  -7  -7  -8 10.2450 3.85657   4
   7   7   8 17.1040 6.71545   2
  -7   7  -8 7.49875 4.27060   5
  -7   7  -8 12.3167 4.24245   2
   9  -7   8 14.6325 8.91249   2
  -9  -7  -8 9.68194 3.85461   4
   9  -7   8 15.7303 8.59074   5
  -9   7  -8 8.88181 4.47836   2
  -9   7  -8 7.42108 4.10023   5
  11  -7   8 6.25716 8.26142   5
  11  -7   8 2.77853 8.65520   2
 -11  -7  -8 4.54167 4.02155   4
 -11   7  -8 6.68203 4.42832   5
 -11   7  -8 9.03572 4.78427   2
  13  -7   8 30.1609 10.1449   2
 -13  -7  -8 25.1530 5.37302   4
  13  -7   8 43.8296 10.7753   5
 -13  -7  -8 21.7042 8.09535   3
 -13   7  -8 27.2726 6.80414   2
  15  -7   8 13.9363 9.60884   2
 -15  -7  -8 23.8899 8.47925   3
  15  -7   8 18.3820 9.52243   5
 -15   7  -8 10.2954 5.83288   5
 -15   7  -8 8.72400 7.14516   2
  17  -7   8 9.95467 9.41635   2
  17  -7   8 -0.2793 10.2069   5
 -17  -7  -8 13.2093 4.75033   4
 -17  -7  -8 8.83529 8.47167   3
 -17   7  -8 8.39190 9.44164   2
 -17   7  -8 4.64090 6.10585   5
 -17   7  -8 4.33071 4.56031   3
 -19  -7  -8 59.8113 8.07350   4
 -19  -7  -8 62.0633 10.7488   3
  19  -7   8 32.5445 10.7744   2
 -19   7  -8 52.8113 8.13754   3
 -21  -7  -8 47.8695 7.72737   4
 -21  -7  -8 49.7491 10.7724   3
  21  -7   8 34.8539 10.8912   2
 -21   7  -8 59.7497 7.91480   3
  23  -7   8 94.5993 14.7692   2
 -23   7  -8 83.1499 9.69559   3
 -22   8   8 47.3374 9.66042   2
 -20   8   8 40.4529 9.05344   2
  20   8  -8 51.1432 7.73738   2
  18  -8  -8 117.305 14.5257   4
  18   8  -8 156.618 14.1926   2
 -18   8   8 155.772 15.6504   2
  16  -8  -8 66.1397 11.5639   5
  16  -8  -8 70.1718 10.6162   4
 -16   8   8 94.0609 13.7471   5
  16   8  -8 81.6755 10.3590   2
 -16   8   8 85.6742 12.4998   2
  14  -8  -8 20.5062 5.80369   4
  14  -8  -8 29.6498 7.11830   5
  14   8  -8 21.3174 6.20064   2
 -14   8   8 21.8157 8.15059   5
 -14   8   8 28.9663 8.08572   2
  12  -8  -8 116.864 11.6777   4
  12  -8  -8 109.432 11.5377   5
 -12   8   8 117.784 15.7776   5
  12   8  -8 96.7363 16.2883   5
 -12   8   8 121.262 14.4492   2
  12   8  -8 112.147 11.6539   2
  10  -8  -8 89.9323 10.3190   5
  10  -8  -8 108.619 10.9586   4
 -10   8   8 111.882 13.7967   2
  10   8  -8 126.101 11.2072   2
  10   8  -8 92.0941 13.9145   5
 -10   8   8 96.3621 15.3005   5
   8  -8  -8 22.5990 5.27573   4
  -8   8   8 21.9927 9.51238   5
  -8   8   8 18.6665 7.75096   2
   8   8  -8 22.8218 5.28628   2
   8   8  -8 29.9966 6.84100   5
   6  -8  -8 46.1355 6.80417   4
  -6  -8   8 37.3415 7.69827   5
  -6   8   8 27.0114 9.36576   5
   6   8  -8 46.4677 7.27486   5
   6   8  -8 60.5071 7.13414   2
  -6   8   8 55.1507 9.10084   2
  -4  -8   8 157.923 17.5132   5
   4  -8  -8 177.704 15.2484   4
  -4   8   8 162.452 18.8122   5
   4   8  -8 194.569 16.0158   5
  -4   8   8 200.409 17.6315   2
   4   8  -8 200.142 15.6918   2
  -2  -8   8 106.942 14.6592   5
   2  -8  -8 101.863 10.8357   4
   2   8  -8 118.032 11.4842   5
   2   8  -8 144.223 11.3245   2
  -2   8   8 116.079 13.1372   2
   0  -8  -8 225.368 18.8225   4
   0  -8   8 229.871 22.1255   5
   0   8   8 232.084 19.9642   2
   0   8  -8 238.894 19.3764   5
   0   8  -8 254.550 19.2342   2
  -2  -8  -8 150.877 13.0876   4
   2  -8   8 142.591 13.4635   4
   2  -8   8 138.414 17.2529   5
   2  -8   8 174.703 21.7728   2
  -2   8  -8 158.697 13.7359   5
  -2   8  -8 160.037 13.5838   2
   2   8   8 143.333 14.3822   2
   4  -8   8 97.0715 16.2103   2
  -4  -8  -8 86.8869 9.23336   4
   4  -8   8 96.5856 15.0991   5
  -4   8  -8 97.6140 10.2030   5
  -4   8  -8 100.746 9.80572   2
   4   8   8 84.7879 11.6537   2
  -6  -8  -8 103.468 10.3043   4
   6  -8   8 106.651 16.1503   2
   6  -8   8 106.741 15.8545   5
   6   8   8 104.226 13.3185   2
  -6   8  -8 110.147 10.5878   2
  -6   8  -8 107.107 11.0772   5
  -8  -8  -8 5.80265 3.91310   4
   8  -8   8 18.9594 9.27897   5
   8  -8   8 17.0062 11.2106   2
  -8   8  -8 12.5966 4.85352   5
  -8   8  -8 16.6044 4.91443   2
  10  -8   8 49.3720 12.6016   2
 -10  -8  -8 69.0611 7.91928   4
  10  -8   8 57.1488 12.4602   5
 -10   8  -8 59.7681 8.69236   2
 -10   8  -8 67.5178 9.30250   5
  12  -8   8 20.3378 11.4243   2
 -12  -8  -8 11.8907 4.72685   4
  12  -8   8 6.05633 9.46414   5
 -12   8  -8 23.7429 6.41250   2
  14  -8   8 6.28764 9.57856   5
  14  -8   8 17.5710 10.7876   2
 -14  -8  -8 10.7465 5.11771   4
 -14   8  -8 9.74815 6.23727   5
 -14   8  -8 18.5811 7.09075   2
 -16  -8  -8 1.63128 4.47214   4
  16  -8   8 -5.5418 10.1331   2
  16  -8   8 13.2731 10.7087   5
 -16   8  -8 -3.5346 7.12506   5
 -16   8  -8 -0.9608 8.15485   2
 -18  -8  -8 9.57383 4.97249   4
  18  -8   8 4.10223 10.2394   2
 -18   8  -8 4.77566 4.79499   3
  20  -8   8 17.2585 10.8104   2
 -20   8  -8 16.5144 4.38716   3
 -22   8  -8 9.68556 5.13756   3
 -19   9   8 7.86222 7.98593   2
  19   9  -8 -0.5445 6.70100   2
  17  -9  -8 -1.9150 7.51641   4
  17   9  -8 1.02189 5.99542   2
 -17   9   8 9.88714 7.51029   2
  15  -9  -8 2.94452 5.98969   4
 -15   9   8 0.11863 7.43215   2
  15   9  -8 6.67244 5.60973   2
  13  -9  -8 55.8602 8.95122   4
 -13   9   8 43.3964 9.88259   2
  13   9  -8 55.7799 8.80623   2
 -13   9   8 26.8330 10.9176   5
  11  -9  -8 71.0653 9.78765   4
 -11   9   8 79.5239 13.3511   2
  11   9  -8 88.0086 10.1054   2
 -11   9   8 63.6481 13.2451   5
   9  -9  -8 118.652 11.5099   4
   9   9  -8 94.3327 16.1029   5
  -9   9   8 118.286 14.8123   2
   9   9  -8 122.880 11.8622   2
  -9   9   8 73.6536 14.4080   5
   7  -9  -8 111.815 11.5222   4
  -7   9   8 128.973 14.7116   2
   7   9  -8 121.810 11.7386   2
   7   9  -8 127.059 14.5513   5
  -7   9   8 78.2450 14.9509   5
   5  -9  -8 192.525 16.4418   4
   5   9  -8 173.337 17.9569   5
  -5   9   8 212.809 19.1608   2
   5   9  -8 204.629 16.8807   2
   3  -9  -8 69.3432 8.98045   4
   3   9  -8 87.7977 9.55002   2
  -3   9   8 84.4096 12.2884   2
   3   9  -8 74.9969 10.9512   5
   1  -9  -8 12.1772 4.77913   4
  -1  -9   8 15.4267 8.51150   5
   1   9  -8 19.3604 5.44646   2
  -1   9   8 18.8680 7.42875   2
   1   9  -8 13.2042 5.36218   5
   1  -9   8 17.3971 9.28376   5
  -1  -9  -8 18.9764 5.13208   4
  -1   9  -8 33.5351 6.03582   2
   1   9   8 11.2810 7.37096   2
  -1   9  -8 25.1572 6.18243   5
   3  -9   8 26.3848 6.50380   4
   3  -9   8 20.9639 9.82155   5
  -3   9  -8 20.8247 5.39601   2
  -3   9  -8 27.5927 6.50388   5
   3   9   8 28.4938 8.45880   2
  -5  -9  -8 24.5201 5.10286   4
   5  -9   8 16.3039 9.73268   5
   5  -9   8 13.9715 5.97987   4
  -5   9  -8 5.94309 5.39505   5
  -5   9  -8 13.2032 5.16451   2
   5   9   8 17.7815 9.40411   2
   7  -9   8 17.4479 10.0933   5
   7  -9   8 18.7706 16.0138   2
  -7   9  -8 20.6921 5.58296   2
  -7   9  -8 4.28347 5.23747   5
  -9  -9  -8 33.8689 6.32459   4
   9  -9   8 14.3761 15.0584   2
   9  -9   8 25.6011 11.3412   5
  -9   9  -8 35.9151 7.02318   2
  -9   9  -8 37.7801 7.43778   5
  11  -9   8 4.95034 14.1842   2
 -11  -9  -8 1.74005 4.33326   4
  11  -9   8 6.68557 10.6190   5
 -11   9  -8 0.44347 5.50545   2
  13  -9   8 67.7116 15.1308   2
  13  -9   8 41.7937 15.1493   5
 -13  -9  -8 57.0356 8.52021   4
 -13   9  -8 72.0390 10.4128   2
  15  -9   8 2.84510 13.0274   2
 -15  -9  -8 5.06158 5.07814   4
 -15   9  -8 9.84960 8.21138   2
 -17  -9  -8 8.14037 5.38996   4
  17  -9   8 28.7683 13.7745   2
 -17   9  -8 10.2038 11.5870   2
 -17   9  -8 17.0100 5.06317   3
 -19  -9  -8 -0.7379 5.35162   4
 -19   9  -8 8.97436 3.89314   3
 -18  10   8 15.5637 9.15604   2
  16 -10  -8 22.1439 8.05105   4
  16  10  -8 38.8438 7.58931   2
 -16  10   8 38.9006 9.66462   2
  14 -10  -8 16.8264 6.90639   4
  14  10  -8 14.6076 6.47135   2
 -14  10   8 0.14719 8.12132   2
  12 -10  -8 7.60976 5.83176   4
 -12  10   8 -4.3102 8.25699   2
  12  10  -8 3.29776 5.83566   2
  10 -10  -8 24.7523 6.40779   4
 -10  10   8 32.7064 9.89124   2
  10  10  -8 29.4001 6.80016   2
   8 -10  -8 49.0354 7.33218   4
  -8  10   8 38.1259 10.2037   2
   8  10  -8 39.3361 7.73279   2
   6 -10  -8 233.817 19.0679   4
  -6  10   8 231.401 21.8102   2
   6  10  -8 213.423 19.3915   2
   4 -10  -8 64.6494 8.62345   4
   4  10  -8 71.7099 9.86031   2
  -4  10   8 63.5948 11.0404   2
   2 -10  -8 144.659 12.8902   4
   2  10  -8 107.989 16.5381   5
   2  10  -8 135.061 13.4349   2
  -2  10   8 157.613 16.0313   2
   0 -10  -8 27.8837 5.70851   4
   0  10  -8 25.7308 6.03741   2
   0  10  -8 23.7817 8.43335   5
   0  10   8 22.7118 9.07897   2
  -2 -10  -8 3.98671 4.27900   4
   2 -10   8 5.37734 10.7909   5
  -2  10  -8 2.41785 6.75526   5
   2  10   8 11.3636 9.47142   2
  -2  10  -8 -0.5572 4.58789   2
   4 -10   8 7.85861 11.0223   5
  -4 -10  -8 3.99163 4.36313   4
  -4  10  -8 5.25159 4.86064   2
  -4  10  -8 1.68554 6.91954   5
  -6 -10  -8 -2.9496 4.52196   4
   6 -10   8 -11.436 10.9797   5
  -6  10  -8 0.06416 5.22039   2
  -6  10  -8 2.18790 6.27688   5
   8 -10   8 -1.9993 6.98404   4
   8 -10   8 6.58360 13.7538   5
  -8 -10  -8 4.86937 4.79324   4
  -8  10  -8 9.16191 5.95021   2
 -10 -10  -8 6.63884 4.74679   4
  10 -10   8 6.97864 7.32825   4
 -10  10  -8 15.2215 6.65080   2
 -12 -10  -8 5.99345 4.82343   4
  12 -10   8 8.16855 7.29892   4
 -12  10  -8 5.64466 6.96698   2
 -14 -10  -8 5.79169 5.32094   4
  14 -10   8 -0.4132 6.83046   4
 -14  10  -8 0.56022 7.73141   2
 -16 -10  -8 -1.9259 5.48496   4
  16 -10   8 -3.8066 7.16045   4
 -16  10  -8 -0.0978 4.33154   3
 -15  11   8 29.5335 11.0395   2
  13 -11  -8 34.5132 7.71529   4
 -13  11   8 40.6697 10.9142   2
  13  11  -8 28.4973 7.77891   2
  11 -11  -8 28.4490 7.24114   4
 -11  11   8 37.2234 10.7627   2
  11  11  -8 31.3704 7.44089   2
   9 -11  -8 53.9177 8.31981   4
   9  11  -8 57.0932 9.09260   2
  -9  11   8 77.1357 12.7366   2
   7 -11  -8 66.1401 9.68249   4
   7  11  -8 81.9588 10.9436   2
  -7  11   8 58.5998 12.3796   2
   5 -11  -8 85.5116 10.4006   4
  -5  11   8 103.049 15.7293   2
   5  11  -8 102.405 11.7605   2
   3 -11  -8 123.519 12.5942   4
   3  11  -8 150.177 14.0313   2
  -3  11   8 121.745 16.8744   2
   1 -11  -8 169.857 15.5087   4
  -1  11   8 166.810 19.1828   2
   1  11  -8 201.850 16.8586   2
  -1 -11  -8 104.190 10.8246   4
   1  11   8 103.872 17.0862   2
  -3 -11  -8 62.0611 8.63033   4
  -3  11  -8 81.7397 10.4188   2
  -5 -11  -8 4.33850 4.77960   4
  -5  11  -8 9.84422 6.22830   2
  -7 -11  -8 10.1681 5.23353   4
  -7  11  -8 16.3931 6.48188   2
   9 -11   8 -5.4865 9.03051   4
  -9 -11  -8 0.68948 4.78041   4
  -9  11  -8 -3.0920 6.34228   2
 -11 -11  -8 3.62620 5.10694   4
 -11  11  -8 4.74262 7.15718   2
 -13 -11  -8 -2.1054 5.67166   4
   8 -12  -8 25.4220 7.30870   4
   8  12  -8 24.8805 8.67950   2
  -8  12   8 29.1328 12.6121   2
   6 -12  -8 30.3272 6.79561   4
  -6  12   8 29.1783 12.6840   2
   6  12  -8 28.8305 8.45440   2
   4 -12  -8 2.95588 5.18792   4
  -4  12   8 14.2064 12.4228   2
   4  12  -8 1.38214 7.22658   2
   2 -12  -8 6.77167 5.29031   4
  -2  12   8 1.86344 15.7223   2
   2  12  -8 5.10497 7.01350   2
   0 -12  -8 9.29900 5.27115   4
   0  12  -8 1.44819 6.92922   2
  -2 -12  -8 14.1766 5.31326   4
  -2  12  -8 3.74748 6.98100   2
  -4 -12  -8 3.76498 5.35930   4
  -4  12  -8 10.8203 6.79101   2
  -6 -12  -8 9.93186 5.51883   4
  -6  12  -8 1.46762 7.05896   2
  -8 -12  -8 12.1530 5.97619   4
  -8  12  -8 1.94716 7.36333   2
  28   0  -9 -1.0008 5.10552   2
  26   0  -9 11.0219 5.56524   2
  24   0  -9 14.8066 6.22723   2
  24   0  -9 8.32600 7.47397   5
  22   0  -9 0.29782 6.36514   5
  22   0  -9 7.82024 5.78841   2
 -22   0   9 7.03859 5.83020   5
 -20   0   9 5.12847 4.85986   5
  20   0  -9 3.60297 5.47186   5
  20   0  -9 10.9650 5.79118   2
 -18   0   9 7.29874 6.96332   2
 -18   0   9 0.72417 4.25743   5
  18   0  -9 4.41491 5.23488   5
  18   0  -9 7.13231 5.02886   2
 -16   0   9 -1.8170 5.70847   2
 -16   0   9 4.77553 4.48025   5
  16   0  -9 1.54655 3.45357   2
  16   0  -9 4.08523 4.11120   5
 -14   0   9 6.44149 5.16200   2
 -14   0   9 4.69717 4.24898   5
  14   0  -9 4.62494 3.47798   5
  14   0  -9 3.94602 3.66797   2
  12   0  -9 15.7351 3.82679   5
 -12   0   9 21.2921 5.26676   5
 -12   0   9 18.2847 5.69743   2
  12   0  -9 27.3367 5.07902   2
 -10   0   9 6.53718 4.43905   2
  10   0  -9 3.29130 2.46814   2
 -10   0   9 1.90761 3.64350   5
  10   0  -9 2.61670 2.52693   5
   8   0  -9 18.1890 50.7436   1
  -8   0   9 2.63746 3.68684   5
  -8   0   9 3.11501 3.88576   2
   8   0  -9 4.30591 2.31273   5
   8   0  -9 6.58543 2.84800   2
   8   0  -9 16.2637 54.7301   1
   6   0  -9 15.9613 41.4256   1
   6   0  -9 7.27858 2.65134   2
   6   0  -9 13.7751 41.6911   1
  -6   0   9 7.22283 3.97901   2
  -6   0   9 9.71500 3.89461   5
   6   0  -9 9.78766 2.77147   5
   4   0  -9 12.9944 2.89175   2
   4   0  -9 13.4606 3.11514   4
  -4   0   9 13.4363 3.87032   5
   4   0  -9 -29.060 31.3182   1
   4   0  -9 13.5982 2.77148   5
  -4   0   9 12.5172 3.83415   2
   2   0  -9 3.78769 2.66381   4
   2   0  -9 -29.474 31.2013   1
  -2   0   9 5.25631 35.6125   1
   2   0  -9 4.75217 2.15397   5
   2   0  -9 2.30215 2.20347   2
  -2   0   9 4.77351 2.90168   5
  -2   0   9 2.40812 2.94438   2
   0   0  -9 3.86389 2.61946   4
   0   0   9 4.75323 3.41271   2
   0   0  -9 7.00335 2.08077   5
   0   0  -9 5.94478 2.36705   2
   0   0   9 5.06904 2.74386   5
   2   0   9 7.24124 2.93519   5
  -2   0  -9 2.27842 2.35215   2
  -2   0  -9 3.88872 1.74910   5
   2   0   9 6.34836 3.34927   2
  -2   0  -9 6.31380 2.70659   4
  -4   0  -9 36.9425 4.81767   2
  -4   0  -9 37.7697 4.99517   4
  -4   0  -9 35.3725 3.85304   5
  -4   0  -9 25.0748 4.43253   3
  -6   0  -9 87.3977 8.43955   4
  -6   0  -9 90.2387 8.47443   3
  -6   0  -9 91.9890 8.73491   2
   6   0   9 80.9902 9.21519   5
  -6   0  -9 102.246 7.68847   5
  -8   0  -9 107.314 8.54581   5
  -8   0  -9 107.843 9.47738   3
   8   0   9 104.985 11.4859   2
  -8   0  -9 101.172 9.38641   4
   8   0   9 94.3905 10.7968   5
  10   0   9 113.022 13.1541   5
 -10   0  -9 140.655 11.5939   4
 -10   0  -9 126.338 11.2866   3
  10   0   9 137.661 13.9516   2
 -12   0  -9 147.033 12.0722   4
  12   0   9 99.9990 14.9828   5
  12   0   9 115.900 14.4314   2
 -12   0  -9 140.050 11.5784   3
  14   0   9 128.194 15.6700   2
 -14   0  -9 150.384 12.3849   4
 -14   0  -9 134.796 12.0916   3
  14   0   9 95.3425 17.3474   5
 -16   0  -9 88.0863 9.15477   3
  16   0   9 68.2083 12.9170   2
  18   0   9 11.4806 9.50876   2
 -18   0  -9 14.6858 5.05132   3
 -20   0  -9 8.16893 4.43326   3
  20   0   9 12.0730 10.0917   2
  22   0   9 7.47647 10.5543   2
 -22   0  -9 -3.2028 4.36838   3
  24   0   9 -13.706 10.5114   2
 -24   0  -9 -0.2462 4.60372   3
  26   0   9 3.31946 12.7572   2
 -26   0  -9 10.6628 5.45305   3
  29  -1  -9 7.69625 6.02387   2
  29   1  -9 21.1493 6.71867   2
  27  -1  -9 11.5477 5.70661   2
  27   1  -9 21.7181 6.02671   2
  25  -1  -9 40.7125 7.34567   2
  25   1  -9 33.5422 6.94569   2
  23  -1  -9 68.2397 11.8808   5
  23  -1  -9 89.9458 10.7777   2
  23   1  -9 74.7802 10.4437   2
  23   1  -9 76.6580 13.1768   5
 -23   1   9 73.9234 10.8476   5
  21  -1  -9 76.5012 9.98014   2
 -21  -1   9 58.0922 9.68996   5
  21  -1  -9 75.4599 10.8770   5
  21   1  -9 57.2421 9.56380   2
 -21   1   9 44.5841 12.6364   2
  21   1  -9 65.7516 10.2619   5
 -21   1   9 67.2142 9.56462   5
 -19  -1   9 146.794 13.6071   5
  19  -1  -9 152.484 14.4395   5
  19  -1  -9 147.505 14.0935   2
 -19   1   9 130.946 15.4777   2
  19   1  -9 130.725 14.4133   5
 -19   1   9 126.417 13.5299   5
  19   1  -9 152.289 14.2248   2
 -17  -1   9 202.385 20.5053   2
  17  -1  -9 255.276 19.8024   5
 -17  -1   9 220.626 19.0470   5
  17  -1  -9 240.323 19.5469   2
 -17   1   9 225.785 19.3400   5
 -17   1   9 216.926 20.0670   2
  17   1  -9 260.494 19.8473   2
  17   1  -9 198.962 19.2419   5
  15  -1  -9 79.2470 9.00098   5
  15  -1  -9 77.2857 8.76869   2
 -15  -1   9 69.8064 10.9668   2
 -15  -1   9 80.9202 9.33930   5
 -15   1   9 77.5802 10.4954   2
 -15   1   9 72.3537 9.21404   5
  15   1  -9 69.2047 8.60483   2
  15   1  -9 56.2573 8.51699   5
 -13  -1   9 57.9276 8.94239   2
 -13  -1   9 55.7756 8.03869   5
  13  -1  -9 74.1374 7.47918   5
  13  -1  -9 62.3766 7.21349   2
  13   1  -9 45.0454 6.88906   2
 -13   1   9 58.8221 8.17314   5
  13   1  -9 51.3626 7.24802   5
 -13   1   9 59.7386 9.11039   2
 -11  -1   9 14.3874 4.50953   5
  11  -1  -9 15.0039 3.98844   2
 -11  -1   9 10.4383 5.10570   2
  11  -1  -9 10.9329 3.36145   5
 -11   1   9 10.4254 4.67454   5
  11   1  -9 12.1193 3.72029   5
 -11   1   9 7.32722 4.74832   2
  11   1  -9 10.6376 3.28196   2
  -9  -1   9 170.449 15.7539   5
  -9  -1   9 161.396 16.1995   2
   9  -1  -9 209.289 14.9553   5
   9  -1  -9 211.846 15.0051   2
  -9   1   9 201.445 16.5738   2
   9   1  -9 162.176 14.7330   2
   9   1  -9 163.554 14.7647   5
  -9   1   9 204.975 16.0422   5
   7  -1  -9 134.884 10.4697   2
  -7  -1   9 116.600 12.0043   2
   7  -1  -9 116.471 63.0237   1
   7  -1  -9 140.113 10.4356   5
  -7  -1   9 118.379 11.4962   5
  -7   1   9 138.548 12.1672   2
   7   1  -9 87.3046 60.7148   1
   7   1  -9 77.5733 52.2101   1
   7   1  -9 106.532 10.2416   2
  -7   1   9 134.627 11.7067   5
   7   1  -9 104.384 10.1740   5
   5  -1  -9 22.1611 43.9178   1
   5  -1  -9 77.1699 6.77220   2
  -5  -1   9 63.9667 7.69783   5
   5  -1  -9 82.2620 6.83865   4
  -5  -1   9 58.8823 8.36941   2
   5   1  -9 63.1073 38.4628   1
  -5   1   9 78.1869 7.96533   5
  -5   1   9 77.2612 8.46601   2
   5   1  -9 54.7562 6.39719   5
   3  -1  -9 234.277 17.1320   4
  -3  -1   9 199.870 52.9516   1
   3  -1  -9 255.408 17.1601   5
  -3  -1   9 204.112 18.4808   2
   3  -1  -9 263.980 17.2721   2
  -3  -1   9 206.724 17.9568   5
   3  -1  -9 176.735 50.9678   1
  -3   1   9 236.307 17.9512   5
   3   1  -9 122.423 44.8548   1
   3   1  -9 190.183 17.0393   5
  -3   1   9 242.814 18.4089   2
   1  -1  -9 137.178 10.6110   4
   1  -1  -9 136.760 10.4482   2
  -1  -1   9 120.573 12.0346   2
  -1  -1   9 120.602 11.3062   5
   1  -1  -9 146.217 10.3170   5
  -1  -1   9 59.1479 47.0207   1
  -1   1   9 131.425 11.5349   2
   1   1  -9 101.536 48.1215   1
   1   1  -9 109.958 10.2574   5
  -1   1   9 136.902 11.3309   5
  -1  -1  -9 38.5237 4.09103   5
  -1  -1  -9 34.8255 4.83958   4
   1  -1   9 40.5304 6.31884   2
   1  -1   9 43.0184 5.78229   5
  -1  -1  -9 34.5300 4.76812   2
   1  -1   9 40.7814 41.6896   1
  -1   1  -9 47.1743 4.67417   2
  -1   1  -9 43.6165 4.48322   5
   1   1   9 37.3682 5.74693   2
   1   1   9 42.2032 5.49303   5
  -1   1  -9 16.9236 51.5741   1
  -1   1  -9 47.5969 4.91831   4
  -3  -1  -9 3.97729 3.56602   3
  -3  -1  -9 10.8693 3.04950   4
  -3  -1  -9 6.04560 1.83196   5
   3  -1   9 10.0941 3.74427   5
  -3  -1  -9 5.01070 3.30292   2
   3   1   9 2.77764 3.17173   2
  -3   1  -9 4.41533 2.04532   5
   3   1   9 3.03628 3.11152   5
  -3   1  -9 0.50089 2.30146   2
  -3   1  -9 11.0202 2.99396   4
   5  -1   9 3.97546 4.10859   2
  -5  -1  -9 -0.1127 3.25932   3
   5  -1   9 0.41647 3.11726   5
  -5  -1  -9 2.26688 1.63374   5
  -5  -1  -9 0.17434 2.31508   4
   5   1   9 -0.9881 3.08689   5
  -5   1  -9 2.20300 2.65549   4
   5   1   9 0.52426 3.30279   2
  -5   1  -9 1.91563 2.58352   2
  -5   1  -9 1.93737 1.88820   5
  -7  -1  -9 144.133 11.3976   3
   7  -1   9 132.150 12.6178   5
  -7  -1  -9 141.171 10.3916   5
  -7  -1  -9 141.029 11.3752   4
   7  -1   9 132.645 13.2304   2
   7   1   9 123.267 12.1657   5
  -7   1  -9 143.425 11.5941   4
  -7   1  -9 124.196 11.2656   2
  -7   1  -9 139.025 10.8074   5
  -9  -1  -9 101.433 9.64568   4
   9  -1   9 100.518 12.0419   2
   9  -1   9 100.469 11.3795   5
  -9  -1  -9 115.683 9.87406   3
   9   1   9 129.235 11.9509   2
  -9   1  -9 119.684 10.0610   4
   9   1   9 103.053 11.6764   5
  -9   1  -9 111.972 9.71582   3
  -9   1  -9 109.531 9.12435   5
 -11  -1  -9 88.8114 8.70552   4
  11  -1   9 77.1030 11.6034   5
 -11  -1  -9 98.8983 8.77169   3
  11  -1   9 81.3489 11.5518   2
 -11   1  -9 92.7152 7.93908   5
 -11   1  -9 90.3158 8.80531   3
  11   1   9 94.1742 11.4237   2
  11   1   9 76.1857 12.0102   5
 -13  -1  -9 439.632 29.6028   3
  13  -1   9 339.094 31.9615   5
 -13  -1  -9 399.489 29.6568   4
  13  -1   9 397.841 32.0298   2
 -13   1  -9 412.231 29.6534   3
 -13   1  -9 375.968 28.7177   5
  13   1   9 338.724 32.5027   5
  13   1   9 437.335 32.0447   2
 -15  -1  -9 98.4962 9.25745   3
 -15  -1  -9 76.1621 8.72243   4
  15  -1   9 62.5082 13.0792   5
  15  -1   9 80.9687 13.2218   2
  15   1   9 101.111 14.0860   2
 -15   1  -9 89.6986 8.97551   3
 -17  -1  -9 151.348 12.6643   3
 -17  -1  -9 134.980 12.3224   4
  17  -1   9 113.250 18.6131   5
  17  -1   9 134.495 17.0383   2
 -17   1  -9 133.089 12.4530   3
  17   1   9 153.667 17.8224   2
 -19  -1  -9 17.0838 5.19105   3
  19  -1   9 21.4113 16.4353   5
  19  -1   9 7.10732 9.11271   2
  19   1   9 9.23895 10.5484   2
 -19   1  -9 15.5505 4.84364   3
 -21  -1  -9 6.50632 4.62419   3
  21  -1   9 8.61370 9.66097   2
 -21   1  -9 3.80778 4.57441   3
  21   1   9 15.0080 10.9559   2
 -23  -1  -9 -2.3659 4.54399   3
  23  -1   9 21.3948 10.8048   2
 -23   1  -9 7.80647 4.96538   3
  23   1   9 -4.1278 12.0290   2
 -25  -1  -9 18.7636 5.71248   3
  25  -1   9 -3.9206 10.8682   2
 -25   1  -9 24.0712 5.75571   3
  25   1   9 8.10489 13.4745   2
 -27  -1  -9 11.7607 6.68501   3
 -27   1  -9 20.4393 5.74480   3
  28  -2  -9 46.1399 7.59732   2
  28   2  -9 27.2821 6.63664   2
  26  -2  -9 24.3152 6.65203   2
  26   2  -9 31.7552 6.89043   2
  24  -2  -9 75.5726 15.9271   5
  24  -2  -9 63.9945 9.97507   2
  24   2  -9 66.8951 9.59829   2
  22  -2  -9 75.1180 11.9949   5
 -22   2   9 88.1339 13.8269   2
 -22   2   9 93.9846 11.1132   5
  22   2  -9 94.8789 10.9834   2
  22   2  -9 76.8954 11.5624   5
 -20  -2   9 81.0929 10.5869   5
  20  -2  -9 75.8659 10.5316   2
  20  -2  -9 71.3488 11.0630   5
 -20   2   9 94.6213 12.8939   2
  20   2  -9 114.072 11.1294   2
  20   2  -9 97.5916 12.1623   5
 -20   2   9 79.4324 10.2012   5
  18  -2  -9 28.8839 6.82275   2
 -18  -2   9 33.8678 6.29583   5
  18  -2  -9 35.8555 6.96431   5
 -18   2   9 38.2357 7.96983   2
  18   2  -9 27.9136 6.97100   5
 -18   2   9 27.9919 6.20352   5
  18   2  -9 27.1101 6.24696   2
 -16  -2   9 78.2130 10.7819   3
  16  -2  -9 77.6381 9.26871   5
  16  -2  -9 66.6657 8.95159   2
 -16  -2   9 63.9927 9.17348   5
  16   2  -9 85.7366 9.87375   5
 -16   2   9 72.7568 10.4125   2
  16   2  -9 80.0927 9.02494   2
 -16   2   9 76.8082 9.57512   5
  14  -2  -9 313.964 23.2332   5
  14  -2  -9 288.891 22.9724   2
 -14  -2   9 276.708 23.2019   5
 -14   2   9 299.086 23.6981   5
 -14   2   9 281.774 24.1175   2
  14   2  -9 283.109 23.0352   5
  14   2  -9 285.294 22.9843   2
 -12  -2   9 95.0106 12.2463   2
  12  -2  -9 97.6112 10.0983   2
  12  -2  -9 104.063 10.1901   5
 -12  -2   9 110.430 11.1876   5
  12   2  -9 125.344 10.6432   5
 -12   2   9 106.140 11.3158   5
 -12   2   9 108.274 12.0061   2
  12   2  -9 121.136 10.4825   2
  10  -2  -9 217.574 19.2170   2
  10  -2  -9 249.911 19.3997   5
 -10  -2   9 254.559 21.1571   2
 -10  -2   9 276.804 20.6272   5
 -10   2   9 239.024 20.3686   5
 -10   2   9 243.618 20.8761   2
  10   2  -9 264.299 19.5825   2
  -8  -2   9 110.655 10.2160   5
  -8  -2   9 113.294 11.3522   2
   8  -2  -9 80.7188 8.75578   4
   8  -2  -9 77.7163 8.44727   2
   8  -2  -9 79.0048 8.34647   5
  -8   2   9 101.193 10.0592   5
  -8   2   9 102.803 10.5127   2
   8   2  -9 116.217 8.95243   5
   6  -2  -9 99.5194 9.18497   4
  -6  -2   9 136.045 10.9102   5
   6  -2  -9 94.3913 9.13203   2
   6  -2  -9 101.405 8.94599   5
  -6  -2   9 115.629 11.6418   2
  -6   2   9 100.845 10.6122   2
   6   2  -9 121.596 55.0923   1
  -6   2   9 107.229 10.2531   5
   4  -2  -9 103.742 9.44800   2
  -4  -2   9 133.262 11.7906   2
   4  -2  -9 26.7567 50.9755   1
   4  -2  -9 104.915 9.26641   5
   4  -2  -9 96.5031 9.45871   4
  -4  -2   9 120.482 82.6280   1
  -4  -2   9 131.027 10.9934   5
  -4   2   9 112.294 10.9369   2
   4   2  -9 131.581 9.81967   2
  -4   2   9 117.379 10.5989   5
   4   2  -9 119.347 77.7313   1
   2  -2  -9 14.5318 3.09121   4
   2  -2  -9 10.9443 3.00483   2
   2  -2  -9 -32.422 42.9894   1
   2  -2  -9 13.2187 2.42884   5
  -2  -2   9 15.0628 44.5462   1
  -2  -2   9 10.7301 3.25559   5
   2   2  -9 17.8385 3.24337   2
  -2   2   9 8.80758 3.33859   5
   2   2  -9 -14.333 53.4577   1
  -2   2   9 12.2728 3.65795   2
   0  -2   9 61.4336 7.72984   2
   0  -2   9 60.3676 6.85457   5
   0  -2  -9 43.2369 4.70979   5
   0  -2  -9 49.0507 5.56877   4
   0  -2   9 17.7547 44.1365   1
   0  -2  -9 43.1034 5.65566   2
   0   2   9 57.9105 6.59812   2
   0   2   9 48.8062 6.26664   5
   0   2  -9 62.3141 5.54744   2
   0   2  -9 35.1490 38.6315   1
  -2  -2  -9 11.0916 2.87665   4
   2  -2   9 7.28543 4.65620   2
  -2  -2  -9 -7.5091 45.0546   1
  -2  -2  -9 5.36948 1.71175   5
   2  -2   9 9.57119 3.52763   5
   2  -2   9 14.9762 49.2067   1
  -2   2  -9 8.71045 2.31608   5
   2   2   9 6.10726 3.21484   5
   2   2   9 7.24925 3.15492   2
  -2   2  -9 7.32560 2.49770   2
   4  -2   9 156.961 14.5331   2
  -4  -2  -9 144.988 11.4065   5
   4  -2   9 163.663 13.7621   5
  -4  -2  -9 146.567 12.2721   4
   4   2   9 146.781 12.8998   5
   4   2   9 147.830 12.9962   2
  -4   2  -9 151.291 12.1851   2
  -4   2  -9 173.384 12.1787   5
  -6  -2  -9 11.5716 3.64033   3
   6  -2   9 13.6878 5.47282   2
  -6  -2  -9 8.59247 2.83554   4
   6  -2   9 12.9842 4.15334   5
  -6   2  -9 14.9843 3.46370   2
   6   2   9 10.2209 4.13340   5
  -6   2  -9 15.3149 2.87990   5
   6   2   9 10.7925 4.10186   2
   8  -2   9 16.9524 5.67098   5
  -8  -2  -9 19.6321 4.02063   3
   8  -2   9 14.7351 5.76143   2
  -8  -2  -9 18.7087 3.72292   4
   8   2   9 13.7868 5.24599   5
  -8   2  -9 12.6639 3.04218   5
  -8   2  -9 13.0845 3.75861   2
  10  -2   9 220.005 20.2019   5
 -10  -2  -9 236.277 18.2699   4
  10  -2   9 249.061 20.8846   2
 -10  -2  -9 244.530 18.1577   3
  10   2   9 208.284 20.0428   5
 -10   2  -9 227.641 17.8618   5
  10   2   9 254.202 20.1231   2
 -12  -2  -9 286.598 21.5316   4
  12  -2   9 285.856 24.3363   2
 -12  -2  -9 297.248 21.4937   3
  12  -2   9 269.488 24.2233   5
  12   2   9 229.056 24.5753   5
 -12   2  -9 262.120 20.9918   5
  12   2   9 301.708 23.7952   2
 -12   2  -9 291.382 21.6719   3
  14  -2   9 123.484 15.4468   2
 -14  -2  -9 138.293 11.7773   4
  14  -2   9 103.174 16.1923   5
 -14  -2  -9 134.008 11.7835   3
 -14   2  -9 151.206 12.1391   3
  14   2   9 148.468 15.6483   2
 -14   2  -9 117.618 11.2747   5
  16  -2   9 228.991 22.3166   2
 -16  -2  -9 245.124 18.2728   3
 -16  -2  -9 222.732 18.2783   4
  16  -2   9 179.319 22.8473   5
 -16   2  -9 239.207 18.4808   3
  16   2   9 225.810 22.4881   2
  18  -2   9 76.3440 16.8208   5
 -18  -2  -9 115.125 10.6856   3
  18  -2   9 127.806 15.5823   2
 -18  -2  -9 106.555 10.4199   4
  18   2   9 102.333 15.5689   2
 -18   2  -9 107.152 10.6611   3
  20  -2   9 66.5211 12.6409   2
 -20  -2  -9 51.9516 7.97429   3
  20  -2   9 52.8193 17.4855   5
  20   2   9 37.6274 13.3021   2
 -20   2  -9 59.7551 8.04818   3
 -22  -2  -9 32.6116 6.50011   3
  22  -2   9 19.1895 10.5619   2
  22   2   9 -3.3047 13.8263   2
 -22   2  -9 20.9978 5.65675   3
 -24  -2  -9 23.0802 6.25392   3
  24  -2   9 17.9725 10.2080   2
 -24   2  -9 13.7820 5.66844   3
 -26  -2  -9 24.0862 6.44070   3
  26  -2   9 11.2751 10.7709   2
 -26   2  -9 12.0926 5.25960   3
  27  -3  -9 15.3684 6.73214   2
  27   3  -9 20.6267 6.50999   2
  25  -3  -9 2.41433 5.87271   2
  25   3  -9 -1.5868 5.15930   2
  23  -3  -9 3.76263 5.94604   2
  23  -3  -9 2.99151 6.47614   5
 -23   3   9 13.7135 6.41780   5
 -23   3   9 -2.0218 13.8284   2
  23   3  -9 14.3767 5.89356   2
  21  -3  -9 58.4856 9.59517   2
  21  -3  -9 54.3370 9.40248   5
 -21   3   9 65.1051 9.70510   5
 -21   3   9 68.4321 10.5176   2
  21   3  -9 50.7650 10.5554   5
  21   3  -9 61.4120 9.19328   2
 -19  -3   9 4.81751 6.01779   5
  19  -3  -9 11.0235 5.92912   5
 -19  -3   9 6.11257 7.90221   3
  19  -3  -9 7.15357 5.42104   2
 -19   3   9 10.3633 6.71251   2
  19   3  -9 3.72554 6.26231   5
 -19   3   9 7.19243 4.99419   5
  19   3  -9 13.6948 5.58976   2
  17  -3  -9 95.4996 11.1267   5
 -17  -3   9 96.7666 12.0351   3
 -17  -3   9 99.2277 10.6218   5
  17  -3  -9 99.2910 10.9049   2
 -17   3   9 92.5123 11.2387   5
  17   3  -9 83.2643 11.5001   5
  17   3  -9 98.0679 10.7723   2
 -17   3   9 101.941 12.3127   2
  15  -3  -9 15.1941 4.84539   2
  15  -3  -9 17.1138 4.85511   5
 -15  -3   9 20.1212 5.62003   3
 -15  -3   9 18.3037 5.19388   5
  15   3  -9 18.5393 5.23517   5
  15   3  -9 18.9951 4.96410   2
 -15   3   9 15.2734 6.07620   2
 -15   3   9 17.1683 5.96424   5
  13  -3  -9 102.111 10.3853   2
 -13  -3   9 102.533 10.7852   5
  13  -3  -9 106.549 10.3452   5
 -13  -3   9 96.7455 13.8155   2
  13   3  -9 119.729 10.4526   2
 -13   3   9 108.030 11.7810   5
 -13   3   9 107.078 12.1078   2
  13   3  -9 89.6754 10.2384   5
  11  -3  -9 67.7561 8.63874   4
  11  -3  -9 81.1366 8.14421   5
 -11  -3   9 79.2181 9.33576   5
 -11  -3   9 90.1563 13.1568   2
  11  -3  -9 78.8002 8.22318   2
  11   3  -9 77.6173 8.13928   2
 -11   3   9 73.9054 9.67054   5
  11   3  -9 78.2838 8.20905   5
 -11   3   9 82.8351 10.4002   2
   9  -3  -9 5.91886 3.00272   5
  -9  -3   9 0.98512 6.41043   2
   9  -3  -9 7.91345 3.70955   4
  -9  -3   9 9.52311 4.08946   5
   9  -3  -9 8.20505 3.41100   2
   9   3  -9 7.55709 3.27045   2
  -9   3   9 4.13232 4.87295   2
  -9   3   9 8.29991 4.41419   5
   9   3  -9 7.20290 3.07054   5
   7  -3  -9 178.400 13.9805   2
  -7  -3   9 163.704 15.1409   5
   7  -3  -9 179.797 13.7563   5
   7  -3  -9 163.983 13.6837   4
  -7  -3   9 191.027 17.1098   2
   7   3  -9 172.927 14.0444   2
  -7   3   9 174.435 15.7726   2
  -7   3   9 166.738 15.1237   5
   7   3  -9 172.076 13.9663   5
   5  -3  -9 272.078 19.6414   5
   5  -3  -9 255.960 19.7342   4
   5  -3  -9 258.355 19.7591   2
  -5  -3   9 263.484 21.2461   5
  -5  -3   9 270.761 22.3575   2
   5   3  -9 258.868 19.9141   5
  -5   3   9 259.551 21.3027   2
  -5   3   9 278.400 20.9029   5
   5   3  -9 240.317 19.8666   2
   3  -3  -9 47.0189 5.14111   4
   3  -3  -9 38.8447 5.55220   2
  -3  -3   9 49.9389 58.6837   1
   3  -3  -9 45.8858 4.45126   5
  -3  -3   9 38.7569 6.42298   5
  -3  -3   9 44.5555 8.19946   2
  -3   3   9 42.6168 6.55807   2
  -3   3   9 43.1469 6.17239   5
   3   3  -9 33.3097 4.77532   5
   3   3  -9 -13.003 49.8631   1
   3   3  -9 31.3664 4.91272   2
  -1  -3   9 4.94254 3.39344   5
   1  -3  -9 12.0739 3.01927   4
   1  -3  -9 9.79126 2.07765   5
  -1  -3   9 10.3469 5.50281   2
  -1   3   9 9.64463 3.67948   2
   1   3  -9 21.6947 43.4213   1
   1   3  -9 4.10726 2.11239   5
   1   3  -9 3.64901 2.34906   2
  -1   3   9 8.92251 3.43580   5
   1  -3   9 11.9357 3.94176   5
   1  -3   9 25.4736 64.7360   1
   1  -3   9 14.7021 5.39578   2
   1   3   9 19.3861 3.94516   5
  -1   3  -9 7.65212 2.61228   2
   1   3   9 19.8319 4.17253   2
  -1   3  -9 9.20222 2.63706   5
  -1   3  -9 -5.1394 47.2338   1
  -3  -3  -9 54.5771 5.46610   4
  -3  -3  -9 46.4960 3.99733   5
   3  -3   9 30.3827 7.01172   2
   3  -3   9 44.1774 7.16242   5
   3   3   9 49.2341 6.49943   5
  -5  -3  -9 36.7921 5.07842   4
   5  -3   9 42.0194 7.79701   2
   5  -3   9 46.9885 7.57841   5
  -5   3  -9 48.0253 5.07596   5
  -5   3  -9 30.4988 4.88413   2
  -7  -3  -9 17.4227 4.30377   3
   7  -3   9 27.7027 6.88759   2
   7  -3   9 21.4913 5.67512   5
   7   3   9 21.0502 5.76898   5
  -7   3  -9 29.2832 4.33499   5
  -7   3  -9 33.7165 4.95283   2
   7   3   9 20.5205 5.07315   2
  -9  -3  -9 68.7018 6.95440   4
   9  -3   9 44.7122 8.81314   2
  -9  -3  -9 55.6459 6.97776   3
  -9   3  -9 51.4119 6.99691   2
  -9   3  -9 66.9515 6.72116   5
  11  -3   9 141.364 15.8047   2
  11  -3   9 137.658 15.4436   5
 -11   3  -9 120.767 12.2813   2
  11   3   9 155.672 15.0186   2
 -13  -3  -9 117.005 10.7228   4
 -13  -3  -9 129.226 11.0470   3
  13  -3   9 120.352 15.2484   2
  13  -3   9 86.8705 14.8378   5
  13   3   9 102.562 14.8250   2
 -13   3  -9 106.606 10.7949   3
  15  -3   9 30.5605 10.5807   5
  15  -3   9 41.4725 9.63474   2
 -15   3  -9 34.2754 5.98750   5
  15   3   9 52.7841 11.8716   2
 -17  -3  -9 74.7151 8.18028   4
  17  -3   9 27.1460 12.1982   5
 -17  -3  -9 62.9085 8.28689   3
  17  -3   9 55.0374 11.7152   2
 -17   3  -9 54.4173 8.04009   3
  17   3   9 65.2194 14.1029   2
 -19  -3  -9 49.7781 7.16742   4
  19  -3   9 11.4093 14.4138   5
 -19  -3  -9 50.2057 7.70690   3
  19  -3   9 27.2422 10.9840   2
  19   3   9 48.3359 14.3423   2
 -19   3  -9 39.0518 7.31038   3
  21  -3   9 19.3236 18.1688   5
 -21  -3  -9 14.6025 5.83041   3
  21  -3   9 13.6469 9.54428   2
  23  -3   9 -4.2722 9.10147   2
 -23  -3  -9 3.26680 5.60767   3
 -23   3  -9 8.21911 5.20787   3
 -25  -3  -9 11.1949 6.48859   3
  25  -3   9 0.76714 9.91716   2
 -25   3  -9 8.47618 5.15122   3
  26  -4  -9 17.7856 7.37132   2
  26   4  -9 19.0170 6.46901   2
  24  -4  -9 28.4197 7.72897   2
  24   4  -9 38.1209 7.42229   2
  22  -4  -9 102.388 11.8474   2
  22  -4  -9 87.3100 11.9185   5
 -22   4   9 78.8310 12.0641   2
  22   4  -9 73.2419 10.5411   2
 -22   4   9 73.6852 11.2751   5
 -20  -4   9 22.0446 8.68151   3
  20  -4  -9 -1.1837 5.80469   2
  20  -4  -9 7.54210 5.96996   5
 -20   4   9 1.91674 6.68938   2
  20   4  -9 2.41343 4.97095   2
 -20   4   9 7.51316 5.47409   5
  20   4  -9 5.46653 8.25107   5
 -18  -4   9 21.6284 7.50677   3
  18  -4  -9 45.9777 7.79668   2
  18  -4  -9 22.9806 6.03533   5
 -18   4   9 24.1956 6.89584   2
 -18   4   9 33.9827 7.22883   5
  18   4  -9 25.2415 6.71658   2
  18   4  -9 27.3386 7.73842   5
  16  -4  -9 63.1643 8.70013   2
 -16  -4   9 56.0497 7.95388   5
 -16  -4   9 59.9605 9.41782   3
  16  -4  -9 55.7745 8.63886   5
 -16   4   9 56.4793 9.60488   5
 -16   4   9 68.9309 10.1225   2
  16   4  -9 56.7371 8.30650   2
  16   4  -9 44.2646 7.87223   5
  14  -4  -9 60.5993 8.22956   2
 -14  -4   9 51.7968 8.30574   5
  14  -4  -9 57.4909 7.81329   5
 -14   4   9 67.1652 9.99809   2
  14   4  -9 47.3541 8.29677   5
 -14   4   9 68.2943 9.80106   5
  14   4  -9 49.5079 7.63911   2
  12  -4  -9 81.4355 8.32639   5
  12  -4  -9 80.3049 8.86315   2
 -12  -4   9 66.0302 9.28397   5
  12  -4  -9 73.5852 9.01845   4
 -12   4   9 90.3896 10.8892   2
  12   4  -9 63.5851 8.46350   5
  12   4  -9 68.2515 8.26570   2
 -12   4   9 93.8542 10.9541   5
  10  -4  -9 48.6712 6.85244   2
 -10  -4   9 33.2050 6.57420   5
  10  -4  -9 54.3911 6.08760   5
 -10  -4   9 38.3675 9.91071   2
  10  -4  -9 38.4233 6.70407   4
  10   4  -9 42.3591 6.25326   5
 -10   4   9 42.6061 7.70195   2
 -10   4   9 43.6773 7.34732   5
  10   4  -9 38.2392 5.84046   2
   8  -4  -9 16.7224 4.22595   2
  -8  -4   9 18.8488 5.31437   5
   8  -4  -9 17.0594 3.41878   5
   8  -4  -9 18.3559 4.06633   4
  -8  -4   9 13.8216 7.75491   2
   8   4  -9 19.6776 4.09686   2
   8   4  -9 17.3205 3.73148   5
  -8   4   9 17.8296 5.62704   5
  -8   4   9 8.90528 5.11910   2
   6  -4  -9 42.4095 6.13609   2
  -6  -4   9 24.6003 5.86239   5
   6  -4  -9 38.7861 4.68269   5
   6  -4  -9 37.8674 5.56458   4
  -6   4   9 40.0948 6.78600   5
  -6   4   9 28.2141 6.11683   2
   6   4  -9 34.9782 5.18428   5
   6   4  -9 31.5494 5.08035   2
  -4  -4   9 7.06983 4.24785   5
  -4  -4   9 11.5811 6.56135   2
   4  -4  -9 12.7216 2.57942   5
   4  -4  -9 0.85087 7.05647   2
   4  -4  -9 13.3270 3.52207   4
   4   4  -9 7.68733 2.79598   5
   4   4  -9 4.79012 2.66129   2
  -4   4   9 10.8275 4.22782   5
  -4   4   9 8.74776 4.21448   2
  -2  -4   9 47.4111 7.53517   5
  -2  -4   9 56.6808 9.21072   2
   2  -4  -9 41.6311 4.43448   5
   2  -4  -9 36.7650 5.28514   4
  -2   4   9 36.6425 6.64041   5
   2   4  -9 48.3644 5.31631   2
   2   4  -9 46.2031 5.26726   5
  -2   4   9 41.9823 6.64231   2
   0  -4   9 12.5996 6.19770   2
   0  -4  -9 7.54582 2.67298   4
   0  -4  -9 12.2261 1.94289   5
   0  -4   9 12.2159 4.72628   5
   0   4   9 7.32597 3.73856   2
   0   4  -9 7.11050 2.70916   2
   0   4   9 4.03643 3.67482   5
   0   4  -9 8.45265 2.79019   5
   2  -4   9 5.57342 4.48276   5
  -2  -4  -9 11.0479 3.24676   4
   2  -4   9 4.78067 5.72843   2
   2   4   9 9.85888 4.19850   5
   2   4   9 8.66190 3.91417   2
  -2   4  -9 14.9733 3.16403   5
  -2   4  -9 10.8749 2.93546   2
  -4  -4  -9 29.1906 4.67281   4
   4  -4   9 29.0539 6.10586   5
   4  -4   9 23.7774 6.71428   2
  -4   4  -9 26.4687 4.46041   2
   4   4   9 23.3464 5.02424   2
  -4   4  -9 33.5790 4.61473   5
   4   4   9 23.7940 5.72716   5
   6  -4   9 0.44972 4.81283   5
   6  -4   9 7.11324 6.22898   2
  -6  -4  -9 5.46849 2.81128   4
  -6   4  -9 1.85563 2.89869   2
   6   4   9 6.10847 4.37737   2
  -6   4  -9 1.51903 2.48817   5
   6   4   9 2.88994 5.50537   5
  -8  -4  -9 12.3204 3.29256   4
   8  -4   9 9.88091 5.95229   5
   8  -4   9 10.5583 6.41994   2
  -8   4  -9 9.36884 3.75411   2
  -8   4  -9 12.2449 3.36454   5
  10  -4   9 45.5908 9.75344   2
  10  -4   9 54.2299 9.54654   5
 -10  -4  -9 52.1669 6.52483   4
 -10  -4  -9 40.3769 6.22291   3
  10   4   9 41.8009 8.41981   2
 -10   4  -9 45.4927 7.07805   2
 -10   4  -9 51.5571 6.47138   5
  12  -4   9 142.694 16.1010   2
 -12  -4  -9 117.713 11.7016   4
  12  -4   9 131.155 15.8824   5
 -12  -4  -9 136.126 12.2915   3
 -12   4  -9 130.806 11.8096   5
  12   4   9 144.755 15.6346   2
 -12   4  -9 129.188 12.5757   2
 -14  -4  -9 89.3238 9.84493   4
  14  -4   9 103.888 14.6323   2
  14  -4   9 102.082 15.0973   5
 -14  -4  -9 120.461 11.0904   3
  14   4   9 103.669 14.8974   2
 -14   4  -9 99.0612 10.1857   3
 -16  -4  -9 17.0331 5.86570   3
 -16  -4  -9 9.85905 4.15210   4
  16  -4   9 18.4769 8.91763   2
  16  -4   9 14.0481 10.6302   5
 -16   4  -9 9.87453 4.49312   3
 -16   4  -9 15.5641 5.35339   5
  16   4   9 24.6085 14.0628   2
 -18  -4  -9 7.99912 4.23189   4
 -18  -4  -9 12.2675 6.06113   3
  18  -4   9 11.4939 8.77261   2
  18  -4   9 3.48235 12.0520   5
 -18   4  -9 2.10241 5.72153   5
 -18   4  -9 5.68237 4.12545   3
  20  -4   9 -3.9925 14.5437   5
 -20  -4  -9 3.03628 4.26685   4
 -20  -4  -9 9.60940 6.42253   3
  20  -4   9 2.38991 9.14093   2
 -20   4  -9 2.08970 3.97205   3
  22  -4   9 6.98022 9.25636   2
 -22  -4  -9 7.43721 6.47033   3
 -22   4  -9 -0.6569 4.93740   3
 -24  -4  -9 21.4759 7.81826   3
  24  -4   9 31.5762 10.8204   2
 -24   4  -9 40.0270 6.76188   3
  26  -4   9 0.73317 10.4702   2
 -26   4  -9 6.18523 5.44659   3
  25  -5  -9 2.32488 8.47484   2
  25   5  -9 6.95117 5.82209   2
  23  -5  -9 76.9628 10.5045   2
 -23   5   9 40.9653 11.1958   2
  23   5  -9 53.8859 8.39843   2
  21  -5  -9 76.0257 11.9925   5
  21  -5  -9 94.9159 12.5797   2
 -21   5   9 77.9201 13.0659   2
 -21   5   9 82.9458 11.6858   5
  21   5  -9 78.1432 10.6691   2
  19  -5  -9 61.6378 9.67245   2
  19  -5  -9 45.1774 8.13632   5
 -19   5   9 55.7824 8.90823   5
 -19   5   9 45.9603 8.72970   2
  19   5  -9 40.5251 10.5107   5
  19   5  -9 57.1569 8.74238   2
  17  -5  -9 52.1729 8.70778   5
  17  -5  -9 50.0979 8.66927   2
 -17   5   9 49.9321 8.66221   5
  17   5  -9 44.5039 8.77250   5
 -17   5   9 42.3269 8.02331   2
  17   5  -9 40.1665 7.47273   2
 -15  -5   9 62.2987 10.0337   5
  15  -5  -9 50.4683 8.29753   5
  15  -5  -9 56.5718 9.63486   2
  15   5  -9 77.0173 8.81482   2
 -15   5   9 63.3398 10.5723   2
  15   5  -9 61.7281 10.3541   5
 -15   5   9 71.3870 10.9030   5
  13  -5  -9 92.5928 11.5574   4
  13  -5  -9 123.465 12.0852   2
  13  -5  -9 112.806 11.1804   5
 -13  -5   9 129.149 12.3022   5
 -13   5   9 127.860 13.6456   2
  13   5  -9 138.956 11.7746   2
 -13   5   9 113.644 13.5360   5
  13   5  -9 107.361 12.1181   5
  11  -5  -9 108.464 11.5220   2
 -11  -5   9 118.277 12.4852   5
  11  -5  -9 115.887 10.7288   5
  11  -5  -9 106.259 11.2234   4
 -11   5   9 111.509 13.5201   2
  11   5  -9 131.716 11.3473   2
  11   5  -9 131.479 11.6681   5
 -11   5   9 119.526 13.5627   5
   9  -5  -9 69.7655 8.11034   4
  -9  -5   9 76.2193 10.0580   5
   9  -5  -9 69.7731 7.48325   5
   9   5  -9 83.5930 8.26987   2
  -9   5   9 82.4010 10.6010   2
  -9   5   9 62.9941 10.7456   5
   9   5  -9 78.9135 8.57463   5
  -7  -5   9 251.940 24.6895   2
  -7  -5   9 264.701 22.5690   5
   7  -5  -9 254.328 20.2642   5
   7  -5  -9 252.582 20.7589   4
  -7   5   9 269.131 22.5872   5
  -7   5   9 260.799 22.6527   2
   7   5  -9 304.423 21.2752   2
   7   5  -9 292.303 21.1991   5
   5  -5  -9 127.010 10.7449   5
  -5  -5   9 152.518 14.1633   5
  -5  -5   9 129.798 16.6059   2
   5  -5  -9 131.315 11.5260   4
  -5   5   9 142.122 13.5539   5
  -5   5   9 133.544 13.3770   2
   3  -5  -9 191.901 17.0984   4
  -3  -5   9 244.869 19.8373   5
  -3  -5   9 208.059 20.9765   2
   3   5  -9 241.350 17.4490   5
   3   5  -9 240.147 17.4849   2
  -3   5   9 206.664 18.3568   5
  -3   5   9 207.451 18.5850   2
  -1  -5   9 42.0630 9.93122   2
  -1  -5   9 58.3186 9.55070   5
   1  -5  -9 61.5095 6.40039   4
  -1   5   9 65.4482 8.17644   2
   1   5  -9 46.4764 6.11347   2
   1   5  -9 59.5192 6.60189   5
  -1   5   9 48.2292 8.29535   5
  -1  -5  -9 58.9323 7.25521   4
   1  -5   9 86.9164 10.7884   5
   1  -5   9 67.7155 11.0013   2
  -1   5  -9 85.4187 7.64076   2
  -1   5  -9 92.3804 7.73893   5
   1   5   9 71.7734 8.69713   2
   1   5   9 59.3029 9.05488   5
   3  -5   9 3.41835 6.51230   2
   3  -5   9 3.45339 5.21121   5
  -3  -5  -9 6.47992 3.07281   4
  -3   5  -9 0.05012 2.51178   2
   3   5   9 3.41152 5.25715   5
   3   5   9 3.27204 4.06494   2
  -3   5  -9 6.64743 2.89644   5
   5  -5   9 1.75672 5.03302   5
   5  -5   9 2.91853 7.17107   2
  -5  -5  -9 4.06325 2.72257   4
  -5   5  -9 -0.2964 2.45466   5
  -5   5  -9 0.31890 2.77130   2
   5   5   9 0.50473 4.38209   2
   7  -5   9 6.64221 6.13583   5
   7  -5   9 4.69414 6.94486   2
  -7  -5  -9 6.72994 3.00711   4
  -7   5  -9 4.25481 3.35590   2
   7   5   9 -1.3257 5.35713   2
  -7   5  -9 7.55586 3.33952   5
   9  -5   9 9.64246 7.53732   2
  -9  -5  -9 14.8617 3.72839   4
   9  -5   9 15.7700 7.55108   5
  -9   5  -9 16.9292 4.15557   5
  -9   5  -9 21.6933 4.68743   2
   9   5   9 21.7465 7.20934   2
  11  -5   9 321.031 27.0608   2
 -11  -5  -9 327.808 23.3837   4
  11  -5   9 309.198 26.5887   5
 -11   5  -9 282.064 23.3149   2
 -11   5  -9 272.810 23.1954   5
  11   5   9 294.846 25.3752   2
 -13  -5  -9 179.593 14.4864   4
  13  -5   9 190.394 18.9781   2
 -13  -5  -9 179.286 15.2547   3
  13  -5   9 143.350 18.7022   5
  13   5   9 142.061 21.8703   2
 -13   5  -9 147.364 15.2476   2
 -15  -5  -9 390.292 28.9577   3
  15  -5   9 397.824 32.3033   2
  15  -5   9 375.134 32.6952   5
 -15  -5  -9 359.263 28.3754   4
 -15   5  -9 336.077 28.4839   5
 -15   5  -9 386.218 28.7840   3
  17  -5   9 106.461 18.5446   5
 -17  -5  -9 124.452 13.3395   3
  17  -5   9 138.617 16.4922   2
 -17  -5  -9 109.881 11.1877   4
 -17   5  -9 138.818 12.0052   3
 -17   5  -9 94.3104 11.8962   5
  19  -5   9 79.3491 13.0756   2
 -19  -5  -9 83.8889 11.6914   3
  19  -5   9 60.4668 14.8326   5
 -19  -5  -9 70.9479 8.72550   4
 -19   5  -9 74.8297 9.35750   3
 -21  -5  -9 -2.1324 7.55958   3
  21  -5   9 21.6496 9.66662   2
 -21   5  -9 15.0013 5.00049   3
 -23  -5  -9 9.74052 8.77127   3
  23  -5   9 19.1670 9.64304   2
 -23   5  -9 9.59669 5.44089   3
  25  -5   9 3.02856 9.86005   2
 -25   5  -9 0.73528 5.43763   3
  24   6  -9 31.1017 7.04554   2
  22  -6  -9 31.2911 10.9064   2
  22   6  -9 30.3614 6.98751   2
 -22   6   9 38.8794 9.55269   2
  20  -6  -9 73.1109 13.3985   5
  20  -6  -9 93.8851 13.0450   2
  20   6  -9 105.144 11.5559   2
 -20   6   9 76.3532 13.4338   5
 -20   6   9 113.149 13.0818   2
  18  -6  -9 56.6776 10.5554   2
  18  -6  -9 43.8568 7.97563   5
  18   6  -9 48.0473 7.98671   2
  18   6  -9 49.8117 21.6737   5
 -18   6   9 30.6693 7.68186   5
 -18   6   9 45.0854 8.79323   2
  16  -6  -9 94.4103 13.2308   2
  16  -6  -9 82.4864 10.8927   5
 -16   6   9 90.4672 12.6718   2
 -16   6   9 73.4388 12.3590   5
  16   6  -9 104.120 14.6411   5
  16   6  -9 102.834 10.9809   2
  14  -6  -9 89.9730 10.0123   5
  14  -6  -9 77.6640 12.5170   2
  14  -6  -9 92.2908 10.9985   4
 -14   6   9 102.432 12.5215   2
  14   6  -9 75.7703 12.4101   5
 -14   6   9 101.943 13.1293   5
  14   6  -9 82.6126 10.1614   2
  12  -6  -9 43.9963 6.92644   4
 -12  -6   9 38.8632 7.94293   5
  12  -6  -9 48.4953 7.25722   5
 -12   6   9 46.7106 9.33677   2
 -12   6   9 38.9232 8.22720   5
  12   6  -9 50.0936 7.37477   2
  12   6  -9 46.8551 7.86681   5
 -10  -6   9 62.3906 10.4356   5
  10  -6  -9 70.4439 8.48468   4
  10  -6  -9 73.3549 7.79849   5
  10   6  -9 66.6005 8.92622   5
  10   6  -9 74.4242 8.47550   2
 -10   6   9 62.5819 10.3429   5
 -10   6   9 73.7708 11.3344   2
   8  -6  -9 330.534 26.0940   4
   8  -6  -9 333.598 25.4028   5
  -8  -6   9 338.488 27.7058   5
  -8   6   9 335.408 28.2530   2
   8   6  -9 370.952 26.5372   2
  -8   6   9 337.353 28.0687   5
   8   6  -9 346.000 26.4973   5
   6  -6  -9 39.0032 5.96805   4
   6  -6  -9 47.1225 5.09806   5
  -6  -6   9 4.98855 11.5672   2
  -6  -6   9 36.6067 8.05860   5
   6   6  -9 42.8075 5.92598   2
  -6   6   9 29.6895 7.68344   5
  -6   6   9 36.0655 7.38458   2
   6   6  -9 36.6567 6.32438   5
   4  -6  -9 380.594 26.1277   4
  -4  -6   9 326.413 28.2645   5
  -4  -6   9 265.125 29.8790   2
   4   6  -9 308.609 25.9046   2
  -4   6   9 365.286 27.5163   5
  -4   6   9 395.440 27.8247   2
   4   6  -9 337.647 26.0762   5
  -2  -6   9 323.515 27.1564   5
  -2  -6   9 278.514 28.6553   2
   2  -6  -9 364.106 24.7582   4
  -2   6   9 363.728 25.9746   2
   2   6  -9 293.055 24.5341   5
   2   6  -9 301.592 24.5687   2
  -2   6   9 327.489 25.8550   5
   0  -6  -9 15.6080 3.78313   4
   0  -6   9 1.31779 6.20617   5
   0  -6   9 10.6563 9.03333   2
   0   6  -9 3.22441 2.67068   2
   0   6  -9 1.82079 3.08552   5
   0   6   9 11.6442 4.99435   2
   0   6   9 7.00332 6.04021   5
   2  -6   9 16.4779 7.37840   5
   2  -6   9 22.7986 8.86089   2
   2   6   9 17.8752 5.24194   2
  -2   6  -9 7.07660 3.09925   2
   2   6   9 12.2570 7.02534   5
  -2   6  -9 9.49325 3.67297   5
   4  -6   9 15.1165 6.98026   5
   4  -6   9 12.8368 8.63249   2
  -4  -6  -9 11.5306 3.92521   4
   4   6   9 12.8613 5.38953   2
  -4   6  -9 18.6817 3.95552   2
  -4   6  -9 13.5095 3.56210   5
  -6  -6  -9 99.6258 10.6824   4
   6  -6   9 110.469 14.6484   5
   6  -6   9 142.614 16.5623   2
  -6   6  -9 137.568 11.2902   5
   6   6   9 115.067 12.3377   2
  -6   6  -9 127.193 11.0515   2
   8  -6   9 20.7239 9.00234   5
  -8  -6  -9 43.9826 6.16754   4
   8  -6   9 29.4845 9.29671   2
  -8   6  -9 33.5769 5.76049   2
   8   6   9 20.4014 7.96360   2
  -8   6  -9 45.3790 6.64568   5
  10  -6   9 27.8034 9.10061   5
  10  -6   9 26.6994 9.20101   2
 -10   6  -9 27.2889 5.61571   5
 -10   6  -9 27.7050 5.96039   2
  12  -6   9 27.1145 9.78731   5
  12  -6   9 39.9291 10.6277   2
 -12   6  -9 53.8138 8.72091   2
  14  -6   9 90.3160 14.2432   2
 -14  -6  -9 86.3381 12.1751   3
  14  -6   9 62.6133 12.4599   5
 -14   6  -9 51.8189 9.03100   5
 -14   6  -9 39.8599 8.96194   2
  16  -6   9 124.380 18.4945   5
 -16  -6  -9 153.009 12.5859   4
  16  -6   9 144.430 17.7718   2
 -16  -6  -9 146.099 15.8423   3
 -16   6  -9 130.371 12.6100   3
 -16   6  -9 101.643 13.1527   5
  18  -6   9 5.84320 11.9733   5
 -18  -6  -9 11.1848 4.85130   4
  18  -6   9 3.04655 9.21072   2
 -18  -6  -9 12.7902 9.70295   3
 -18   6  -9 9.13787 4.10775   3
 -18   6  -9 5.99445 7.04260   5
 -20  -6  -9 11.9080 4.87644   4
 -20  -6  -9 20.2781 10.5115   3
  20  -6   9 2.77691 9.08802   2
 -20   6  -9 14.0268 5.58056   3
 -22  -6  -9 -3.1515 20.2156   3
  22  -6   9 2.67040 9.17274   2
 -22  -6  -9 8.84424 5.08349   4
 -22   6  -9 2.93258 4.63931   3
  24  -6   9 7.05107 9.73013   2
 -24   6  -9 2.55500 4.98539   3
  23   7  -9 -5.8002 6.38909   2
  21   7  -9 1.06457 5.63347   2
 -21   7   9 8.00880 7.82971   2
 -19   7   9 7.42742 7.07015   2
  19   7  -9 15.0172 6.16586   2
  17  -7  -9 24.3099 7.61721   5
 -17   7   9 8.64561 8.14824   5
  17   7  -9 29.1045 6.88964   2
 -17   7   9 20.4676 7.27654   2
  15  -7  -9 20.1337 6.48654   5
  15  -7  -9 12.0602 6.85785   4
  15   7  -9 3.25844 9.69886   5
 -15   7   9 3.64391 7.81937   5
  15   7  -9 7.80412 5.32604   2
 -15   7   9 21.5787 7.52236   2
  13  -7  -9 27.6708 6.79338   4
  13  -7  -9 26.3112 5.96481   5
 -13   7   9 25.4938 8.31583   5
  13   7  -9 18.5853 7.58277   5
  13   7  -9 19.9863 5.73909   2
 -13   7   9 28.8673 8.71892   2
  11  -7  -9 10.5806 5.44847   4
  11  -7  -9 5.77657 4.70284   5
  11   7  -9 9.63581 6.19399   5
 -11   7   9 10.5833 6.93654   2
 -11   7   9 6.35783 7.62555   5
  11   7  -9 14.5348 4.93210   2
   9  -7  -9 0.84746 4.37071   4
  -9  -7   9 6.08475 7.34211   5
   9  -7  -9 2.86348 4.03190   5
   9   7  -9 9.84348 5.53617   5
  -9   7   9 -9.5182 7.68676   5
  -9   7   9 5.24759 6.49557   2
   9   7  -9 8.79498 4.11534   2
   7  -7  -9 12.6513 3.81657   5
   7  -7  -9 3.66128 4.04061   4
  -7  -7   9 6.22531 7.25153   5
   7   7  -9 -0.3025 4.48724   5
  -7   7   9 5.75683 6.37008   2
  -7   7   9 6.14698 7.46505   5
   7   7  -9 -1.2057 3.16094   2
   5  -7  -9 10.4856 4.48287   4
  -5  -7   9 15.6511 7.76014   5
  -5   7   9 13.8836 8.33685   5
   5   7  -9 11.2231 4.49964   5
   5   7  -9 15.4167 3.92486   2
  -5   7   9 10.8338 6.38878   2
   3  -7  -9 13.2210 4.40296   4
  -3  -7   9 -4.3571 12.7625   2
  -3  -7   9 8.84199 7.44966   5
   3   7  -9 18.5649 4.63373   5
   3   7  -9 7.90459 3.67322   2
  -3   7   9 6.41360 5.97161   2
  -3   7   9 17.5410 8.10586   5
  -1  -7   9 50.5139 10.4213   5
   1  -7  -9 59.1782 7.10078   4
  -1  -7   9 36.4268 12.9310   2
   1   7  -9 55.1404 7.25132   5
   1   7  -9 56.1534 6.77065   2
  -1   7   9 36.1163 9.25359   5
  -1   7   9 52.8402 8.26527   2
  -1  -7  -9 0.51341 2.98231   4
   1  -7   9 -5.4889 10.6092   2
   1  -7   9 0.29910 7.21680   5
   1   7   9 7.86904 5.21430   2
  -1   7  -9 4.88121 3.52953   5
  -1   7  -9 -1.7565 2.86830   2
   3  -7   9 12.5699 10.4302   2
  -3  -7  -9 -1.0029 2.88603   4
   3  -7   9 4.87984 7.93498   5
  -3   7  -9 1.31815 3.48523   5
  -3   7  -9 1.56060 3.39436   2
   3   7   9 6.19089 5.61386   2
   5  -7   9 1.57748 9.73896   2
   5  -7   9 5.95446 8.16335   5
  -5  -7  -9 11.2428 4.00755   4
   5   7   9 11.5217 6.57249   2
  -5   7  -9 7.15893 3.99592   2
  -5   7  -9 6.54120 4.00370   5
   7  -7   9 40.2176 11.9554   2
  -7  -7  -9 46.6293 6.75406   4
   7  -7   9 41.7807 10.8236   5
  -7   7  -9 54.3736 7.00814   2
   7   7   9 39.1954 9.29811   2
  -7   7  -9 42.7481 7.16909   5
  -9  -7  -9 23.8616 5.25469   4
   9  -7   9 24.5731 9.43796   5
   9  -7   9 39.4309 11.1140   2
  -9   7  -9 40.4381 6.65718   2
  -9   7  -9 37.6273 6.24625   5
 -11  -7  -9 14.4045 4.42742   4
  11  -7   9 18.2879 10.7117   2
  11  -7   9 14.2096 9.49569   5
 -11   7  -9 23.8213 5.69341   5
  13  -7   9 -5.5717 10.0501   5
  13  -7   9 8.69239 9.96910   2
 -13  -7  -9 13.9263 4.82064   4
 -13   7  -9 2.30623 6.79189   2
  15  -7   9 24.3717 10.3850   2
  15  -7   9 23.5651 11.0062   5
 -15  -7  -9 15.2019 5.59195   4
 -15   7  -9 24.2053 8.85866   2
 -15   7  -9 12.9244 6.47381   5
 -17  -7  -9 14.9538 5.05244   4
  17  -7   9 21.5051 10.1174   2
 -17   7  -9 12.2412 4.85689   3
  19  -7   9 21.5170 10.1541   2
 -19  -7  -9 3.25760 4.70849   4
 -19   7  -9 2.33866 5.82718   3
 -21  -7  -9 0.60240 4.91430   4
  21  -7   9 -11.072 9.79642   2
 -21   7  -9 3.37967 4.97278   3
  20   8  -9 7.21906 6.22184   2
 -20   8   9 1.86804 7.59626   2
  18   8  -9 26.4063 6.82590   2
 -18   8   9 27.4823 8.84824   2
  16  -8  -9 12.1593 8.17695   4
 -16   8   9 12.6318 7.72564   2
  16   8  -9 17.2123 6.11788   2
  14  -8  -9 58.7696 9.84280   5
  14  -8  -9 60.0858 10.4448   4
 -14   8   9 84.6292 12.3416   2
  14   8  -9 71.2184 9.82957   2
 -14   8   9 57.3520 11.8896   5
  12  -8  -9 101.899 11.1570   4
 -12   8   9 89.8598 14.6596   5
  12   8  -9 123.262 11.7666   2
 -12   8   9 106.135 14.8707   2
  12   8  -9 91.4476 14.2754   5
  10  -8  -9 87.3456 10.1518   4
  10   8  -9 92.6444 10.1594   2
 -10   8   9 78.6376 13.2621   5
  10   8  -9 97.4179 13.9403   5
 -10   8   9 68.1970 11.9129   2
   8  -8  -9 110.111 12.0161   4
  -8   8   9 120.999 15.6848   2
  -8   8   9 122.602 17.7186   5
   8   8  -9 126.472 13.8091   5
   8   8  -9 137.441 12.3689   2
   6  -8  -9 75.8665 9.32247   4
  -6  -8   9 55.3572 10.7161   5
   6   8  -9 89.6837 10.8386   5
   6   8  -9 96.3732 9.42800   2
  -6   8   9 84.8512 13.2174   2
  -4  -8   9 18.4733 8.50310   5
  -4   8   9 11.3825 7.03158   2
   4   8  -9 8.71857 4.87515   5
   4   8  -9 15.2095 4.43160   2
  -4   8   9 11.1164 10.8029   5
   2  -8  -9 12.3582 4.61900   4
  -2  -8   9 15.9682 9.32274   5
   2   8  -9 22.3022 4.98974   2
  -2   8   9 11.9333 6.74596   2
   2   8  -9 20.7762 5.44695   5
   0  -8  -9 12.5840 4.26438   4
   0  -8   9 6.03241 8.80261   5
   0   8   9 15.6460 6.92595   2
   0   8  -9 7.56851 4.50469   5
   0   8  -9 9.34315 4.35870   2
   2  -8   9 1.49961 8.82582   5
  -2  -8  -9 3.71019 3.51493   4
   2  -8   9 0.72732 14.3598   2
  -2   8  -9 1.14784 4.40499   5
  -2   8  -9 6.12483 4.14614   2
   2   8   9 7.64500 6.66096   2
   4  -8   9 19.7192 9.75096   5
  -4  -8  -9 26.6128 5.24879   4
   4  -8   9 11.0603 13.6435   2
   4   8   9 30.2574 8.28691   2
  -4   8  -9 18.5903 5.26425   5
  -4   8  -9 19.0285 5.18024   2
   6  -8   9 48.4093 12.0674   5
   6  -8   9 65.5232 15.4145   2
  -6  -8  -9 45.7707 7.45498   4
  -6   8  -9 56.7514 8.44961   5
   6   8   9 40.8779 10.0522   2
  -6   8  -9 61.7608 7.82185   2
   8  -8   9 21.1162 10.1816   5
   8  -8   9 14.9129 12.1272   2
  -8  -8  -9 11.6601 4.44903   4
  -8   8  -9 28.4898 6.03616   2
  -8   8  -9 16.2450 5.45204   5
  10  -8   9 44.8257 12.1133   5
  10  -8   9 27.8551 12.9023   2
 -10  -8  -9 54.7084 8.08055   4
 -10   8  -9 56.6599 8.96072   2
 -10   8  -9 53.7507 9.04017   5
  12  -8   9 86.6485 15.0813   2
 -12  -8  -9 46.4851 7.88483   4
  12  -8   9 45.4427 12.4068   5
 -12   8  -9 58.2943 9.14702   2
  14  -8   9 214.647 21.9598   2
  14  -8   9 159.002 21.4785   5
 -14  -8  -9 200.785 15.7557   4
 -14   8  -9 142.874 16.8707   5
 -14   8  -9 186.548 17.3388   2
 -16  -8  -9 9.73347 5.41260   4
  16  -8   9 32.4224 11.4142   2
 -16   8  -9 18.3425 10.8701   2
 -16   8  -9 17.8328 5.57237   3
 -18  -8  -9 23.6004 5.80054   4
  18  -8   9 32.3487 12.0157   2
 -18   8  -9 38.2278 7.02069   3
 -20  -8  -9 7.54516 5.57858   4
  20  -8   9 16.5454 11.6081   2
 -20   8  -9 10.1126 5.70730   3
 -19   9   9 43.9016 10.1611   2
  17   9  -9 69.3907 10.6064   2
 -17   9   9 56.6606 10.7205   2
  15  -9  -9 42.9328 9.19398   4
 -15   9   9 50.8797 10.5944   2
  15   9  -9 48.0294 7.99118   2
  13  -9  -9 62.4204 10.9080   4
  13   9  -9 75.4846 10.3182   2
 -13   9   9 85.2453 13.2320   2
  11  -9  -9 126.058 13.1886   4
 -11   9   9 80.7516 19.2044   5
  11   9  -9 138.810 13.2600   2
 -11   9   9 136.323 16.6477   2
   9  -9  -9 152.988 14.8509   4
   9   9  -9 168.888 15.2548   2
  -9   9   9 144.253 22.7246   5
  -9   9   9 170.914 18.4364   2
   7  -9  -9 116.805 11.9957   4
   7   9  -9 129.726 12.1726   2
  -7   9   9 90.2074 18.5816   5
   7   9  -9 95.3371 15.0755   5
  -7   9   9 119.129 15.7781   2
   5  -9  -9 187.184 15.8697   4
   5   9  -9 190.565 15.9945   2
   5   9  -9 148.168 17.5194   5
  -5   9   9 182.961 18.4433   2
   3  -9  -9 76.5089 9.32846   4
  -3   9   9 86.0609 12.8937   2
   3   9  -9 83.3347 9.82740   2
   3   9  -9 85.5964 11.6001   5
  -1  -9   9 -1.6564 9.63792   5
   1  -9  -9 3.77745 4.07639   4
   1   9  -9 4.32795 4.69321   2
  -1   9   9 1.41671 7.51655   2
   1   9  -9 1.11221 5.61682   5
  -1  -9  -9 17.7816 4.79099   4
   1  -9   9 -0.1363 10.0456   5
  -1   9  -9 11.2579 5.97818   5
  -1   9  -9 11.5610 4.48216   2
   1   9   9 10.8897 7.94250   2
  -3  -9  -9 18.5290 5.20933   4
   3  -9   9 32.6809 11.5763   5
   3   9   9 12.6731 8.89431   2
  -3   9  -9 23.5126 5.35581   2
  -3   9  -9 16.5490 6.03856   5
   5  -9   9 21.4092 7.39488   4
   5  -9   9 10.0428 11.1852   5
  -5   9  -9 12.1196 5.14651   2
  -5   9  -9 7.95698 5.58415   5
   7  -9   9 12.9167 18.1983   2
  -7  -9  -9 14.6235 5.08347   4
   7  -9   9 9.08953 11.4471   5
   7  -9   9 13.1109 6.88705   4
  -7   9  -9 4.03979 5.29717   2
  -7   9  -9 16.4532 6.05350   5
   9  -9   9 13.7690 11.7406   5
   9  -9   9 38.0544 17.3204   2
  -9  -9  -9 4.78272 4.77188   4
  -9   9  -9 12.0059 6.11793   2
  -9   9  -9 9.97358 6.14715   5
  11  -9   9 27.8801 15.6766   2
  11  -9   9 26.3612 21.4909   5
 -11   9  -9 37.6107 8.05208   2
 -13  -9  -9 15.5820 5.55452   4
  13  -9   9 6.54015 14.9339   2
 -13   9  -9 15.4552 7.80828   2
  15  -9   9 11.6917 14.8475   2
 -15  -9  -9 6.88354 5.29835   4
 -15   9  -9 11.0157 9.74196   2
 -17  -9  -9 15.2535 5.23059   4
 -17   9  -9 11.5309 5.76363   3
 -16  10   9 15.1254 9.74986   2
  14 -10  -9 -7.4828 7.94957   4
 -14  10   9 11.3648 9.43859   2
  14  10  -9 -3.1089 6.31131   2
  12 -10  -9 8.26899 6.94085   4
 -12  10   9 -6.1676 8.99454   2
  10 -10  -9 3.07076 5.87072   4
 -10  10   9 2.24938 9.54066   2
  10  10  -9 4.57918 5.96807   2
   8 -10  -9 2.90154 5.85417   4
  -8  10   9 20.4992 9.74094   2
   8  10  -9 17.5744 6.34883   2
   6 -10  -9 25.9488 6.38267   4
   6  10  -9 42.6249 7.51227   2
  -6  10   9 38.5068 10.8351   2
   4 -10  -9 52.8004 8.67481   4
  -4  10   9 69.8108 11.1596   2
   4  10  -9 56.0940 9.26225   2
   2 -10  -9 89.9291 10.0718   4
  -2  10   9 84.6362 13.9967   2
   2  10  -9 74.0906 13.0712   5
   2  10  -9 116.200 11.1973   2
   0 -10  -9 7.20969 4.68466   4
   0  10  -9 13.6662 8.58223   5
   0  10   9 14.8251 9.70984   2
   0  10  -9 11.4230 5.73224   2
  -2 -10  -9 10.1476 4.78694   4
  -2  10  -9 0.70116 7.23207   5
  -2  10  -9 8.83508 5.45480   2
   2  10   9 8.00363 10.6764   2
  -4 -10  -9 -2.2581 4.57127   4
  -4  10  -9 3.95287 5.36040   2
  -4  10  -9 5.22301 10.0018   5
  -6 -10  -9 16.4529 5.45382   4
  -6  10  -9 16.4748 6.16637   2
   8 -10   9 19.4635 10.5022   4
  -8 -10  -9 19.1197 5.91644   4
  -8  10  -9 33.1899 7.16555   2
 -10 -10  -9 10.4142 4.94302   4
  10 -10   9 -0.3760 8.76134   4
 -10  10  -9 2.54641 6.57641   2
  12 -10   9 11.6461 9.13997   4
 -12 -10  -9 1.91860 5.05779   4
 -12  10  -9 -6.6171 7.36850   2
 -14 -10  -9 4.32583 5.64893   4
 -16  10  -9 13.7433 5.44019   3
 -13  11   9 21.9900 12.1541   2
  11 -11  -9 30.8291 8.44199   4
  11  11  -9 56.1218 8.54993   2
 -11  11   9 59.1091 13.2036   2
   9 -11  -9 16.7204 6.71656   4
  -9  11   9 13.4576 11.6849   2
   9  11  -9 20.7606 7.36587   2
   7 -11  -9 13.2522 6.42734   4
   7  11  -9 13.8304 6.77123   2
  -7  11   9 15.3353 11.2164   2
   5 -11  -9 2.63908 5.39790   4
  -5  11   9 2.21577 10.7745   2
   5  11  -9 7.74355 6.29413   2
  -3  11   9 16.3461 11.3540   2
   3  11  -9 18.0453 6.46951   2
   1 -11  -9 30.0683 6.17231   4
   1  11  -9 24.3307 6.93447   2
  -1  11   9 23.7442 11.8976   2
  -1 -11  -9 6.36229 5.22192   4
  -1  11  -9 6.91875 6.24729   2
  -3 -11  -9 7.90275 5.11286   4
  -3  11  -9 -2.4078 6.09334   2
  -5 -11  -9 7.73374 5.25862   4
  -5  11  -9 -0.3848 6.11859   2
  -7 -11  -9 24.1351 5.91636   4
  -7  11  -9 32.8483 7.61114   2
  -9 -11  -9 4.92884 5.19664   4
  -9  11  -9 11.0041 7.47920   2
 -11 -11  -9 26.3151 6.51017   4
 -11  11  -9 16.4236 15.6664   2
   6 -12  -9 49.2406 9.80514   4
   4 -12  -9 23.9488 6.95712   4
   4  12  -9 27.8011 8.36140   2
   2 -12  -9 6.09298 5.93762   4
   2  12  -9 10.2553 7.43041   2
   0 -12  -9 3.03485 5.55038   4
   0  12  -9 7.15559 7.06517   2
  -2 -12  -9 4.99110 5.78278   4
  -4 -12  -9 5.41884 5.25267   4
  -4  12  -9 -2.0433 7.19216   2
  -6 -12  -9 -1.6683 7.41057   4
  28   0 -10 66.2614 10.6268   2
  26   0 -10 205.991 18.1746   2
  24   0 -10 147.828 14.6564   2
 -22   0  10 266.632 23.3684   5
  22   0 -10 249.838 24.5201   5
  22   0 -10 332.843 24.3774   2
 -20   0  10 389.279 32.2165   5
  20   0 -10 458.640 33.3215   2
  20   0 -10 399.634 33.1175   5
 -18   0  10 290.821 25.7930   2
  18   0 -10 274.281 24.7668   5
 -18   0  10 287.026 24.3516   5
  18   0 -10 344.487 25.1472   2
 -16   0  10 190.775 17.8748   5
 -16   0  10 201.474 18.9333   2
  16   0 -10 195.951 17.6761   5
  16   0 -10 211.358 17.6670   2
 -14   0  10 229.141 20.4537   2
  14   0 -10 220.634 19.0610   5
  14   0 -10 238.930 19.1039   2
 -14   0  10 226.039 19.7142   5
 -12   0  10 41.2064 7.91011   2
  12   0 -10 46.1784 6.76429   2
  12   0 -10 48.5723 6.80057   5
 -12   0  10 60.3298 8.66223   5
 -10   0  10 133.554 14.0730   2
  10   0 -10 141.096 12.1302   5
  10   0 -10 137.874 12.1330   2
 -10   0  10 141.938 13.4409   5
   8   0 -10 404.699 29.4976   2
  -8   0  10 367.366 30.9253   2
   8   0 -10 414.093 29.4799   5
  -8   0  10 384.884 30.4914   5
   6   0 -10 245.864 19.5914   2
  -6   0  10 251.357 21.2169   2
  -6   0  10 259.943 20.7805   5
   6   0 -10 266.034 19.5994   5
  -4   0  10 150.773 13.2094   5
   4   0 -10 144.350 11.9532   2
   4   0 -10 145.342 11.8514   5
  -4   0  10 150.404 13.5994   2
   2   0 -10 359.440 26.0081   2
   2   0 -10 342.769 25.8485   5
  -2   0  10 364.416 26.9462   5
  -2   0  10 363.696 27.4717   2
   2   0 -10 327.404 25.7259   4
   0   0 -10 4.85833 2.64966   2
   0   0  10 5.36840 3.43174   5
   0   0 -10 5.31270 3.18975   4
   0   0  10 3.39857 3.72249   2
   0   0 -10 4.77423 2.04276   5
  -2   0 -10 53.6407 5.52085   5
  -2   0 -10 52.0889 7.02124   3
   2   0  10 67.8769 7.57961   5
  -2   0 -10 61.0595 6.65855   4
   2   0  10 73.6628 8.17347   2
  -2   0 -10 53.5245 6.32792   2
  -4   0 -10 1.99111 1.89965   5
  -4   0 -10 3.46372 3.12513   4
  -4   0 -10 6.00671 3.60307   2
   4   0  10 3.41759 3.78230   5
  -4   0 -10 4.19676 4.26500   3
  -6   0 -10 235.245 16.6659   4
   6   0  10 194.340 17.6501   2
  -6   0 -10 187.018 15.5006   5
   6   0  10 199.013 17.4709   5
  -6   0 -10 218.601 16.4777   3
  -8   0 -10 18.5559 4.51194   4
   8   0  10 9.26432 5.54572   5
  -8   0 -10 17.4134 4.66565   3
   8   0  10 14.4535 6.09194   2
  -8   0 -10 17.3738 2.99617   5
 -10   0 -10 185.742 15.3954   4
 -10   0 -10 201.804 15.1926   3
  10   0  10 185.446 17.7933   2
  10   0  10 163.886 17.2562   5
  12   0  10 -5.7071 8.51004   5
  12   0  10 2.16461 6.68962   2
 -12   0 -10 4.42565 3.69256   4
 -12   0 -10 -1.9389 3.92034   3
  14   0  10 72.4114 15.0343   5
  14   0  10 107.708 14.1735   2
 -14   0 -10 105.803 10.0353   3
  16   0  10 3.43119 8.80673   2
 -16   0 -10 0.06071 4.13258   3
  16   0  10 5.12203 14.9184   5
  18   0  10 98.3690 16.2814   2
 -18   0 -10 116.996 11.2947   3
  20   0  10 59.6539 12.5749   2
 -20   0 -10 55.8483 8.29914   3
 -22   0 -10 28.5639 6.36795   3
  22   0  10 25.4596 11.8101   2
 -24   0 -10 8.42008 5.63841   3
  24   0  10 3.67925 11.8331   2
 -26   0 -10 -1.4923 7.07371   3
  27  -1 -10 6.63301 5.87367   2
  27   1 -10 3.10246 5.85763   2
  25  -1 -10 7.47512 5.95885   2
  25   1 -10 5.92944 5.76836   2
  23  -1 -10 23.9676 7.55320   2
  23  -1 -10 29.1024 10.4477   5
  23   1 -10 44.2772 8.10015   2
  21  -1 -10 21.8587 7.89158   5
  21  -1 -10 14.2772 6.24949   2
 -21  -1  10 13.9579 6.70544   5
  21   1 -10 27.1867 6.75980   2
  21   1 -10 24.4619 7.73345   5
 -21   1  10 13.5380 6.25045   5
  19  -1 -10 77.0773 10.1927   5
  19  -1 -10 60.9177 9.40438   2
 -19  -1  10 46.2289 7.85153   5
 -19   1  10 57.5531 8.55867   5
  19   1 -10 44.2039 8.16176   2
 -19   1  10 45.1751 9.56787   2
  19   1 -10 27.9410 8.14542   5
 -17  -1  10 9.37705 5.30648   5
  17  -1 -10 21.3489 6.04212   2
 -17  -1  10 8.86212 8.51361   2
  17  -1 -10 21.8969 6.01932   5
 -17   1  10 9.62078 5.69572   5
  17   1 -10 15.4141 5.72572   5
 -17   1  10 14.7853 6.72258   2
  17   1 -10 5.15804 4.59686   2
 -15  -1  10 20.5901 5.82750   5
  15  -1 -10 29.8418 6.10934   5
  15  -1 -10 26.1221 6.03665   2
 -15  -1  10 10.4402 7.53044   2
  15   1 -10 14.4029 4.98049   5
 -15   1  10 21.0596 6.19813   5
  15   1 -10 13.0903 4.65291   2
 -15   1  10 16.6047 6.70309   2
 -13  -1  10 21.7202 7.02658   2
  13  -1 -10 26.3208 5.39412   2
  13  -1 -10 14.8322 4.54436   5
 -13   1  10 14.2046 6.41739   2
 -13   1  10 17.1900 5.73159   5
  13   1 -10 31.8963 5.60172   5
  11  -1 -10 5.09651 3.65340   2
  11  -1 -10 4.53216 3.35698   5
 -11  -1  10 5.67622 4.36436   5
 -11  -1  10 4.16091 5.39803   2
 -11   1  10 4.32605 4.54671   5
 -11   1  10 5.77468 5.23943   2
  11   1 -10 3.57678 3.29667   5
  11   1 -10 4.74187 3.34575   2
  -9  -1  10 86.6994 11.1831   2
  -9  -1  10 89.4124 10.0539   5
   9  -1 -10 80.4950 8.60835   2
   9  -1 -10 89.1975 8.60406   5
  -9   1  10 78.7698 10.1895   5
  -9   1  10 90.5081 10.9471   2
   9   1 -10 99.0775 8.82785   2
   9   1 -10 99.2953 8.79950   5
  -7  -1  10 11.5176 5.09881   2
   7  -1 -10 3.66039 2.86929   2
  -7  -1  10 5.35929 3.79750   5
   7  -1 -10 8.75049 2.72288   5
  -7   1  10 6.97904 4.44402   2
  -7   1  10 8.95631 4.33235   5
   7   1 -10 6.20833 3.03174   2
   7   1 -10 3.90041 2.41745   5
   5  -1 -10 33.7228 5.03942   4
   5  -1 -10 36.4100 4.45670   5
  -5  -1  10 28.5335 5.43186   5
   5  -1 -10 32.8953 4.84409   2
  -5  -1  10 30.9129 6.29533   2
  -5   1  10 39.3798 6.43859   5
   5   1 -10 25.5710 4.56801   2
  -5   1  10 36.1519 6.46916   2
   3  -1 -10 48.6818 6.02111   4
   3  -1 -10 43.4210 5.31974   2
   3  -1 -10 53.3432 5.08793   5
  -3  -1  10 41.0929 6.69689   5
  -3  -1  10 32.7478 6.88202   2
  -3   1  10 45.6785 6.57970   5
  -3   1  10 49.2861 6.95764   2
   3   1 -10 31.5666 4.87031   5
  -1  -1  10 14.1071 4.65480   2
  -1  -1  10 16.0954 4.48828   5
   1  -1 -10 20.6771 3.59468   2
   1   1 -10 9.44373 2.43884   5
   1   1 -10 13.8401 2.94240   2
  -1   1  10 18.9924 4.70916   2
   1  -1  10 19.3144 4.26984   5
   1   1  10 23.1066 4.79709   2
   1   1  10 34.2375 5.66202   5
  -1   1 -10 16.4240 2.97424   5
  -1   1 -10 20.0677 3.79691   4
  -1   1 -10 14.5694 3.25900   2
   3  -1  10 95.4313 9.57825   5
   3  -1  10 87.3920 9.98334   2
   3   1  10 105.777 9.52407   5
  -3   1 -10 77.6663 7.60693   5
  -3   1 -10 87.6105 8.06521   2
   3   1  10 92.5460 9.70332   2
  -3   1 -10 85.3491 8.34894   4
  -5  -1 -10 37.7263 5.62413   4
   5  -1  10 42.7336 7.85002   2
   5  -1  10 35.1696 6.63169   5
  -5  -1 -10 34.1861 4.21681   5
  -5   1 -10 44.8242 6.05216   4
   5   1  10 30.3576 6.11011   2
   5   1  10 40.7183 7.11045   5
  -5   1 -10 40.7996 4.80574   5
  -5   1 -10 49.4745 5.90391   2
  -7  -1 -10 268.307 19.1402   4
   7  -1  10 252.236 21.0883   2
   7  -1  10 234.181 20.3150   5
  -7  -1 -10 243.904 17.8328   5
  -7  -1 -10 250.466 18.8306   3
   7   1  10 217.859 19.9972   5
  -7   1 -10 229.262 19.0207   4
  -7   1 -10 255.186 18.9298   3
   7   1  10 229.172 20.2667   2
  -9  -1 -10 36.1153 5.39693   3
  -9  -1 -10 34.3417 5.62701   4
   9  -1  10 25.9909 7.41666   2
   9  -1  10 28.1008 7.24783   5
  -9   1 -10 25.7483 4.58135   5
  -9   1 -10 36.7226 5.64264   3
   9   1  10 17.6600 6.81073   2
   9   1  10 15.6560 7.25617   5
 -11  -1 -10 151.418 12.8643   3
  11  -1  10 136.609 15.9807   5
  11  -1  10 151.329 15.8114   2
 -11  -1 -10 150.689 12.8392   4
 -11   1 -10 165.057 12.9959   3
  11   1  10 144.185 15.4650   2
  11   1  10 122.481 16.1649   5
  13  -1  10 122.242 14.4509   2
 -13  -1 -10 124.126 10.9254   3
  13  -1  10 82.4691 14.0706   5
 -13  -1 -10 110.657 10.7464   4
  13   1  10 93.4713 15.5528   5
 -13   1 -10 121.739 10.9620   3
  13   1  10 120.208 14.7196   2
  15  -1  10 87.8403 14.1757   2
 -15  -1 -10 83.2151 9.06826   4
  15  -1  10 61.3177 14.1938   5
 -15  -1 -10 96.1529 9.47246   3
 -15   1 -10 88.8059 9.20022   3
  15   1  10 97.1046 14.1659   2
 -17  -1 -10 0.80941 4.48823   3
  17  -1  10 11.6867 9.10947   2
  17  -1  10 20.6412 15.1527   5
  17   1  10 10.0264 10.2531   2
 -17   1 -10 0.20835 4.20890   3
  19  -1  10 2.11610 9.76649   2
 -19  -1 -10 6.82695 5.04009   3
 -19   1 -10 -1.3470 4.60840   3
  19   1  10 7.64693 11.0454   2
 -21  -1 -10 19.1511 5.83177   3
  21  -1  10 9.88356 10.4701   2
 -21   1 -10 14.8046 5.63960   3
  21   1  10 2.15383 11.8033   2
 -23  -1 -10 5.87834 5.38912   3
  23  -1  10 4.84586 11.1677   2
 -23   1 -10 -1.2865 5.02430   3
  23   1  10 4.98856 13.2293   2
  25  -1  10 6.94008 11.5360   2
 -25  -1 -10 3.18088 6.07546   3
 -25   1 -10 3.72768 5.49492   3
  26  -2 -10 35.5238 7.96377   2
  26   2 -10 55.4105 8.12065   2
  24  -2 -10 6.09478 6.14012   2
  24   2 -10 27.5358 6.61412   2
  22  -2 -10 39.0175 8.66715   5
  22  -2 -10 27.0633 7.43238   2
 -22   2  10 24.8453 7.30359   5
  22   2 -10 32.7243 9.91494   5
  22   2 -10 37.7390 7.34608   2
  20  -2 -10 16.7793 6.96838   5
 -20  -2  10 20.0066 6.97513   5
  20  -2 -10 12.3741 6.38871   2
  20   2 -10 27.6296 8.08435   5
 -20   2  10 21.6484 8.67899   2
 -20   2  10 13.9669 6.08258   5
  20   2 -10 19.6798 6.28149   2
  18  -2 -10 4.97630 5.14394   2
 -18  -2  10 3.48487 5.39566   5
  18  -2 -10 8.01249 5.77383   5
 -18   2  10 3.03895 6.78194   2
 -18   2  10 7.94780 5.36322   5
  18   2 -10 10.8876 5.37569   2
  18   2 -10 10.6363 6.42729   5
  16  -2 -10 18.6226 5.79510   2
  16  -2 -10 17.0855 5.75606   5
 -16  -2  10 1.11385 11.1856   2
 -16  -2  10 21.8421 5.99522   5
  16   2 -10 20.6656 5.62147   5
  16   2 -10 34.0666 6.62929   2
 -16   2  10 21.5897 6.20758   5
 -16   2  10 18.6270 7.03751   2
  14  -2 -10 32.3536 5.99855   5
 -14  -2  10 27.0870 6.33552   5
  14  -2 -10 25.5073 5.97221   2
 -14   2  10 21.5928 6.11859   5
  14   2 -10 26.0229 5.25702   2
 -14   2  10 24.0082 7.02957   2
  14   2 -10 41.3580 6.53334   5
  12  -2 -10 3.80166 3.56592   5
 -12  -2  10 4.16026 4.63628   5
  12  -2 -10 6.08005 4.02633   2
  12   2 -10 7.81023 4.00085   5
 -12   2  10 4.26970 4.64050   5
  12   2 -10 8.21517 3.86883   2
 -12   2  10 3.06414 5.10277   2
  10  -2 -10 9.15911 3.59923   5
 -10  -2  10 13.7600 5.07991   5
  10  -2 -10 8.45648 3.84578   2
 -10  -2  10 9.24157 5.87328   2
 -10   2  10 4.98681 4.46656   5
  10   2 -10 12.6610 3.99198   2
 -10   2  10 10.4381 5.77273   2
  10   2 -10 10.6211 3.46340   5
  -8  -2  10 16.2529 6.07272   2
   8  -2 -10 10.6347 3.69109   2
   8  -2 -10 18.9044 3.75034   5
  -8  -2  10 12.1422 4.85424   5
  -8   2  10 14.7862 5.08681   5
  -8   2  10 11.8837 5.27993   2
   8   2 -10 6.03487 2.75598   5
   8   2 -10 12.8610 3.46317   2
   6  -2 -10 2.32399 2.36718   5
   6  -2 -10 3.42497 2.91848   2
  -6  -2  10 0.23592 3.40604   5
   6  -2 -10 2.69099 3.79265   4
   6   2 -10 2.04359 2.50530   2
  -6   2  10 0.29923 3.82891   2
  -6   2  10 -0.1280 3.74929   5
   6   2 -10 3.88384 2.64907   5
   4  -2 -10 0.03368 3.34570   4
   4  -2 -10 1.77543 1.92664   5
  -4  -2  10 2.48343 3.60511   5
   4  -2 -10 -0.7328 2.96886   2
  -4   2  10 2.86152 3.70624   5
   4   2 -10 2.36933 2.46309   2
   4   2 -10 1.65041 2.17895   5
  -4   2  10 -1.3174 3.34354   2
   2  -2 -10 2.17788 3.22408   2
   2  -2 -10 8.37218 3.36383   4
  -2  -2  10 8.42523 4.10243   5
   2  -2 -10 8.48397 2.31820   5
   2   2 -10 10.8682 2.82884   5
   2   2 -10 10.4103 3.04964   2
  -2   2  10 6.02010 3.65837   2
  -2   2  10 7.39826 4.01399   5
   0  -2  10 26.3173 6.23882   2
   0  -2  10 24.7273 5.52097   5
   0  -2 -10 19.4946 3.26745   5
   0  -2 -10 23.7140 4.17802   4
   0   2  10 16.3797 4.41838   2
   0   2 -10 25.9401 4.18408   2
   0   2 -10 27.2699 3.97568   5
   0   2  10 16.4809 4.30818   5
   2  -2  10 30.2003 6.60037   2
   2  -2  10 16.0637 4.60457   5
  -2  -2 -10 25.9401 3.26521   5
  -2  -2 -10 31.2972 4.72237   4
   2   2  10 14.8748 4.38084   5
   2   2  10 18.4795 4.50018   2
  -2   2 -10 26.2313 3.91442   5
  -2   2 -10 16.8796 3.60722   2
  -4  -2 -10 27.7518 3.76429   5
  -4  -2 -10 33.7026 5.39225   4
   4  -2  10 37.2031 7.38590   2
   4  -2  10 38.6929 6.50710   5
  -4   2 -10 43.8882 5.30608   2
  -4   2 -10 44.2526 4.79263   5
   4   2  10 33.2583 6.04525   2
   4   2  10 33.5024 5.86507   5
   6  -2  10 40.0506 8.23460   2
   6  -2  10 26.4957 5.92159   5
  -6  -2 -10 39.6294 5.64101   4
  -6   2 -10 38.2661 5.85376   2
   6   2  10 28.1006 6.51088   5
  -6   2 -10 41.9652 4.92593   5
   6   2  10 31.7239 6.30641   2
   8  -2  10 29.3092 7.33467   2
  -8  -2 -10 19.1861 4.34290   4
   8  -2  10 29.9164 6.92970   5
   8   2  10 16.7993 7.10536   5
   8   2  10 21.8797 6.40726   2
  -8   2 -10 28.3633 4.19192   5
  10  -2  10 8.60613 6.64327   2
 -10  -2 -10 20.0332 4.81668   3
  10  -2  10 17.6753 7.24237   5
 -10  -2 -10 21.7518 4.41159   4
  10   2  10 21.2143 8.53928   5
 -10   2 -10 20.8060 4.54516   3
  10   2  10 13.2247 7.22091   2
 -10   2 -10 12.1434 3.65351   5
  12  -2  10 13.7063 8.24828   5
 -12  -2 -10 17.5021 4.90083   3
  12  -2  10 4.27561 6.80279   2
 -12  -2 -10 21.1644 4.85747   4
 -12   2 -10 12.5678 4.83940   3
  12   2  10 15.9288 7.81206   2
 -14  -2 -10 29.7359 5.70940   3
  14  -2  10 8.10232 9.63193   5
  14  -2  10 22.2064 8.53293   2
 -14  -2 -10 21.3363 4.70359   4
  14   2  10 27.6958 9.44640   2
 -14   2 -10 31.5362 6.20947   3
 -14   2 -10 19.0126 4.96192   5
  16  -2  10 26.1425 10.1052   2
 -16  -2 -10 35.5272 6.15187   4
 -16  -2 -10 37.0473 6.30567   3
  16  -2  10 20.4257 12.6255   5
  16   2  10 31.5652 11.2028   2
 -16   2 -10 32.4802 6.44765   3
  18  -2  10 -11.705 15.0042   5
 -18  -2 -10 18.2987 5.82079   3
  18  -2  10 17.7206 9.32807   2
 -18  -2 -10 8.11037 4.55966   4
  18   2  10 11.7104 11.9472   2
 -18   2 -10 11.8608 4.79012   3
 -20  -2 -10 28.1246 6.06923   3
  20  -2  10 22.2208 10.8636   2
  20   2  10 24.7061 13.5526   2
 -20   2 -10 13.8479 5.54579   3
  22  -2  10 29.0051 11.0999   2
 -22  -2 -10 16.8163 6.40107   3
 -22   2 -10 27.3636 6.20841   3
  22   2  10 46.7044 15.6627   2
 -24  -2 -10 9.52107 6.72794   3
  24  -2  10 8.89156 10.6121   2
 -24   2 -10 8.13238 5.38030   3
 -26   2 -10 2.92257 6.32254   3
  27   3 -10 101.533 12.4651   2
  25  -3 -10 78.9241 11.6478   2
  25   3 -10 84.2740 10.9571   2
  23  -3 -10 174.895 16.8700   2
  23   3 -10 171.670 16.5412   2
  21  -3 -10 219.781 19.2936   2
  21  -3 -10 190.635 19.2733   5
 -21   3  10 190.135 18.8732   5
  21   3 -10 247.732 19.1751   2
  21   3 -10 182.964 20.5841   5
  19  -3 -10 148.324 15.2019   2
  19  -3 -10 142.389 15.3578   5
 -19  -3  10 137.151 15.2694   5
  19   3 -10 142.953 16.0904   5
  19   3 -10 187.454 15.4189   2
 -19   3  10 147.472 15.1862   5
 -19   3  10 140.428 16.2868   2
  17  -3 -10 139.332 15.6021   5
  17  -3 -10 162.135 15.7631   2
 -17  -3  10 168.622 15.5211   5
  17   3 -10 193.954 15.9439   2
 -17   3  10 165.238 16.9328   2
 -17   3  10 163.286 16.3241   5
  17   3 -10 172.351 16.2915   5
  15  -3 -10 384.326 29.5371   5
  15  -3 -10 374.681 29.5273   2
 -15  -3  10 339.685 29.4473   5
  15   3 -10 399.587 29.7199   2
 -15   3  10 362.304 30.2924   5
  15   3 -10 375.342 29.6361   5
 -15   3  10 402.016 31.0907   2
 -13  -3  10 246.090 24.7031   2
  13  -3 -10 256.804 20.6050   5
 -13  -3  10 245.029 21.3653   5
  13  -3 -10 253.302 20.6570   2
 -13   3  10 247.496 22.0478   5
  13   3 -10 256.853 20.8249   2
  13   3 -10 261.420 20.8417   5
 -13   3  10 261.187 22.6134   2
 -11  -3  10 139.127 17.7221   2
 -11  -3  10 156.975 14.6986   5
  11  -3 -10 141.185 13.1880   2
  11  -3 -10 149.737 13.0457   5
  11   3 -10 156.864 13.4282   5
  11   3 -10 154.494 13.3530   2
 -11   3  10 145.888 15.0252   5
 -11   3  10 156.924 15.6130   2
   9  -3 -10 42.0030 5.86849   5
  -9  -3  10 55.6056 8.56766   5
  -9  -3  10 33.3921 9.36172   2
   9  -3 -10 41.9043 6.40755   4
   9  -3 -10 38.6260 6.58552   2
  -9   3  10 49.8553 8.42779   5
   9   3 -10 50.8999 6.35901   2
  -9   3  10 44.9834 8.49440   2
   9   3 -10 44.4566 6.36629   5
   7  -3 -10 131.361 11.6753   2
   7  -3 -10 134.641 11.8413   4
   7  -3 -10 134.725 11.3036   5
  -7  -3  10 127.234 15.5630   2
  -7  -3  10 139.177 13.5261   5
  -7   3  10 143.639 13.8084   2
   7   3 -10 130.008 11.6115   2
  -7   3  10 140.720 13.1288   5
   7   3 -10 131.087 11.6744   5
  -5  -3  10 10.1907 6.88943   2
  -5  -3  10 7.44190 4.39467   5
   5  -3 -10 9.90952 3.86647   4
   5  -3 -10 10.8550 3.78794   2
   5  -3 -10 10.0685 2.81041   5
   5   3 -10 6.00151 2.85775   2
  -5   3  10 7.70160 4.68838   2
   5   3 -10 5.77327 2.68568   5
  -5   3  10 12.2835 4.87597   5
  -3  -3  10 200.873 17.9922   2
   3  -3 -10 175.110 13.9609   5
  -3  -3  10 191.857 16.2886   5
   3  -3 -10 171.572 14.5514   4
  -3   3  10 175.936 15.4768   5
   3   3 -10 181.387 14.6044   2
  -3   3  10 174.364 15.9276   2
   3   3 -10 191.255 14.5313   5
  -1  -3  10 96.1440 12.4635   2
  -1  -3  10 114.356 10.8375   5
   1  -3 -10 83.4757 7.75010   5
   1  -3 -10 91.4010 8.68853   4
   1   3 -10 101.809 8.63103   5
  -1   3  10 90.3358 9.74563   5
  -1   3  10 97.8813 9.94621   2
   1   3 -10 95.0771 8.58091   2
   1  -3  10 92.2015 10.3211   5
   1  -3  10 105.291 12.0449   2
  -1  -3 -10 91.7837 8.47584   4
  -1  -3 -10 80.7757 7.21895   5
  -1   3 -10 98.3370 8.29701   5
   1   3  10 85.7587 9.40686   2
   1   3  10 85.1692 9.51961   5
  -1   3 -10 93.1375 8.32629   2
   3  -3  10 94.4836 10.4565   5
  -3  -3 -10 87.9593 8.44047   4
   3  -3  10 85.9669 11.6602   2
   3   3  10 69.0690 9.76178   5
  -3   3 -10 98.4270 8.26096   5
   3   3  10 94.6874 9.62678   2
  -3   3 -10 91.3690 8.42071   2
   5  -3  10 66.6589 10.8547   2
  -5  -3 -10 69.8724 7.43047   4
   5  -3  10 69.8553 9.62501   5
  -5   3 -10 80.7209 7.19767   5
  -5   3 -10 76.4314 7.49246   2
   5   3  10 73.0217 8.98119   2
   5   3  10 50.6028 9.49528   5
   7  -3  10 57.1185 9.97273   5
  -7  -3 -10 54.8607 7.00912   4
   7  -3  10 68.6868 10.8688   2
   7   3  10 56.0692 9.00386   2
  -7   3 -10 71.1881 7.41061   2
  -7   3 -10 68.7063 6.80183   5
   7   3  10 49.8200 8.60067   5
   9  -3  10 23.3910 7.04404   5
   9  -3  10 20.2282 7.37682   2
  -9  -3 -10 8.37447 5.09786   3
  -9  -3 -10 12.3580 4.01580   4
   9   3  10 14.4922 6.59250   2
  -9   3 -10 13.7919 4.82277   2
  -9   3 -10 24.0252 4.19805   5
 -11  -3 -10 38.5073 6.00597   4
  11  -3  10 34.7962 8.96678   5
  11  -3  10 44.9860 9.55689   2
 -11  -3 -10 24.8697 5.93018   3
  11   3  10 34.4768 8.71358   2
 -11   3 -10 37.5149 6.05269   5
  13  -3  10 45.4888 10.2332   2
  13  -3  10 44.5758 11.3396   5
 -13  -3 -10 55.6918 7.22964   3
 -13  -3 -10 36.8309 6.54958   4
 -13   3 -10 52.7438 7.24769   3
  13   3  10 49.6575 10.9064   2
  15  -3  10 10.9548 9.71364   5
  15  -3  10 8.32048 8.90509   2
 -15  -3 -10 8.39193 4.06170   4
 -15  -3 -10 13.3221 5.85003   3
 -15   3 -10 6.73684 5.04173   5
  15   3  10 31.1838 11.4289   2
 -15   3 -10 11.1957 4.37668   3
 -17  -3 -10 4.84164 6.02346   3
 -17  -3 -10 -1.5292 3.54266   4
  17  -3  10 -7.9799 8.32704   2
  17  -3  10 4.53541 13.1275   5
  17   3  10 -2.8893 12.6765   2
 -17   3 -10 1.92496 4.58942   3
  19  -3  10 15.9636 15.4790   5
  19  -3  10 15.8164 10.0943   2
 -19  -3 -10 24.4631 5.35024   4
 -19  -3 -10 18.0561 6.77159   3
  19   3  10 22.0017 15.0050   2
 -19   3 -10 18.5751 5.35341   3
  21  -3  10 19.8513 10.3190   2
 -21  -3 -10 7.50389 6.62060   3
 -21   3 -10 21.2037 5.41841   3
 -23  -3 -10 8.30661 7.36135   3
  23  -3  10 4.09271 9.48812   2
 -23   3 -10 1.09872 5.17003   3
  25  -3  10 1.57798 10.5120   2
 -25   3 -10 6.69068 5.47056   3
  26   4 -10 9.85588 6.25929   2
  24  -4 -10 -3.8615 7.31551   2
  24   4 -10 3.00180 5.65899   2
  22  -4 -10 72.3061 11.9768   2
 -22   4  10 90.3227 12.6300   2
  22   4 -10 71.3735 10.6153   2
  20  -4 -10 25.3156 7.91873   2
  20  -4 -10 11.9587 7.54517   5
  20   4 -10 15.8129 8.95628   5
  20   4 -10 19.0708 6.54407   2
 -20   4  10 10.6918 6.61633   5
 -20   4  10 10.9981 7.68881   2
  18  -4 -10 27.4209 7.72970   2
  18  -4 -10 29.6567 7.16269   5
  18   4 -10 34.2872 8.02763   5
 -18   4  10 24.1824 6.80209   5
 -18   4  10 44.3235 8.81199   2
  16  -4 -10 2.50720 6.03307   2
  16  -4 -10 5.37705 5.17836   5
 -16  -4  10 5.22668 6.35690   5
  16   4 -10 10.3730 5.37170   2
 -16   4  10 8.16563 6.12376   5
  16   4 -10 11.3881 6.24420   5
 -16   4  10 11.1562 6.47380   2
  14  -4 -10 5.15056 4.58150   5
  14  -4 -10 11.8119 5.42491   2
 -14  -4  10 6.62542 5.37316   5
  14   4 -10 7.48900 5.05919   5
 -14   4  10 3.34574 5.50482   5
 -14   4  10 2.80623 5.81771   2
  14   4 -10 14.9675 5.17230   2
 -12  -4  10 4.02360 20.6962   2
  12  -4 -10 10.2198 4.16854   5
 -12  -4  10 5.98985 5.39971   5
  12  -4 -10 10.9733 5.18865   2
 -12   4  10 9.93393 6.21085   5
  12   4 -10 10.1914 4.91464   5
  12   4 -10 15.8725 4.49144   2
 -12   4  10 10.5082 6.07790   2
  10  -4 -10 6.45056 3.39554   5
  10  -4 -10 7.31079 4.75773   2
 -10  -4  10 8.59011 5.04175   5
 -10  -4  10 1.99040 9.73831   2
  10  -4 -10 6.71412 5.03771   4
  10   4 -10 4.53936 3.27146   2
 -10   4  10 12.4394 6.16970   2
  10   4 -10 4.36192 3.79884   5
 -10   4  10 5.01331 5.79090   5
   8  -4 -10 83.0182 9.15764   2
   8  -4 -10 90.5075 9.02423   4
  -8  -4  10 61.0014 12.0191   2
   8  -4 -10 91.7989 8.09894   5
  -8  -4  10 86.7956 10.8490   5
   8   4 -10 70.5049 8.29350   2
  -8   4  10 89.3351 11.4550   2
  -8   4  10 82.5213 10.8440   5
   8   4 -10 76.5053 8.47236   5
  -6  -4  10 33.4307 9.18777   2
  -6  -4  10 30.4760 6.53561   5
   6   4 -10 20.1156 4.20234   2
   6   4 -10 22.2870 4.12124   5
  -6   4  10 33.4820 6.94045   2
  -4  -4  10 47.2951 10.0428   2
  -4  -4  10 34.7871 7.28998   5
   4  -4 -10 61.4788 5.48026   5
   4  -4 -10 66.0520 6.67519   4
  -4   4  10 57.5125 8.10592   5
   4   4 -10 40.0050 5.82450   2
  -4   4  10 69.0373 8.86408   2
   4   4 -10 37.5814 5.89688   5
  -2  -4  10 37.2921 8.67088   2
   2  -4 -10 43.6632 4.33259   5
   2  -4 -10 43.8070 5.80779   4
  -2  -4  10 27.1098 6.62554   5
  -2   4  10 31.9887 6.04595   5
   2   4 -10 28.5925 4.92675   2
  -2   4  10 29.3878 6.23417   2
   2   4 -10 33.9952 5.13736   5
   0  -4  10 25.2022 6.56407   5
   0  -4 -10 54.2555 5.91213   4
   0  -4  10 31.5722 8.49443   2
   0  -4 -10 46.2364 4.12884   5
   0   4 -10 35.7602 5.26480   5
   0   4 -10 30.3151 5.32907   2
   0   4  10 56.5680 7.63075   2
   0   4  10 38.5511 6.29187   5
   2  -4  10 26.2327 6.36066   5
   2  -4  10 33.0261 8.27813   2
  -2   4 -10 18.5226 3.94275   2
   2   4  10 31.7866 6.30750   5
  -2   4 -10 33.5675 5.00587   5
   4  -4  10 39.7623 7.81315   5
   4  -4  10 37.0645 8.77296   2
   4   4  10 49.8854 7.54336   2
  -4   4 -10 33.2876 5.49187   2
   4   4  10 30.3826 7.01467   5
  -4   4 -10 35.1976 5.39977   5
   6  -4  10 245.965 21.0681   5
   6  -4  10 240.425 21.7864   2
  -6  -4 -10 273.961 18.7196   4
   6   4  10 196.465 20.1785   5
  -6   4 -10 220.339 18.4676   2
   6   4  10 260.393 19.7871   2
  -6   4 -10 209.064 18.2363   5
   8  -4  10 24.6267 7.95262   2
  -8  -4 -10 21.0539 4.30908   4
   8  -4  10 24.1345 7.53903   5
  -8   4 -10 21.1994 4.39503   5
  -8   4 -10 18.8430 4.93934   2
   8   4  10 30.4752 7.12839   2
  10  -4  10 137.047 15.6090   2
  10  -4  10 110.951 14.9194   5
 -10  -4 -10 129.899 11.3196   4
 -10   4 -10 121.908 11.1034   5
 -10   4 -10 115.008 11.8016   2
  10   4  10 117.765 14.3658   2
  12  -4  10 161.244 17.6767   2
 -12  -4 -10 148.360 13.1320   4
  12  -4  10 129.577 17.5843   5
  12   4  10 144.623 17.4303   2
 -12   4 -10 154.188 13.0403   5
 -14  -4 -10 14.6485 6.96722   3
  14  -4  10 30.7100 9.83406   2
  14  -4  10 26.2313 10.1133   5
 -14  -4 -10 24.5572 5.17900   4
 -14   4 -10 22.7344 5.76256   5
 -14   4 -10 39.9309 6.91420   3
  14   4  10 20.8575 12.3396   2
 -16  -4 -10 33.7497 7.67130   3
 -16  -4 -10 25.6891 4.98929   4
  16  -4  10 29.7186 12.2954   5
  16  -4  10 35.4839 10.7202   2
  16   4  10 14.6868 15.3041   2
 -16   4 -10 24.4713 6.38087   5
 -16   4 -10 32.9133 5.94508   3
  18  -4  10 7.88785 14.8261   5
 -18  -4 -10 9.86244 7.34825   3
 -18  -4 -10 3.66097 4.19089   4
  18  -4  10 13.8076 9.32766   2
 -18   4 -10 1.44438 4.12225   3
  20  -4  10 5.46822 9.88104   2
 -20  -4 -10 0.57604 7.70179   3
 -20  -4 -10 -2.4293 4.14054   4
 -20   4 -10 3.37893 4.55082   3
  22  -4  10 17.5326 10.1220   2
 -22  -4 -10 10.2034 9.35380   3
 -22   4 -10 15.5455 5.37529   3
  24  -4  10 3.41489 10.1161   2
 -24   4 -10 -2.4085 5.06098   3
  25   5 -10 44.3261 7.94237   2
  23  -5 -10 24.4869 10.2343   2
 -23   5  10 40.3835 12.4025   2
  23   5 -10 41.7303 7.72693   2
  21  -5 -10 51.1090 10.9957   2
  21   5 -10 82.2071 10.7126   2
 -21   5  10 70.5731 11.1632   2
  19  -5 -10 19.1376 7.86734   5
  19  -5 -10 36.2360 9.29635   2
  19   5 -10 30.8963 10.9721   5
 -19   5  10 44.3729 9.07051   2
 -19   5  10 25.6238 7.55163   5
  17  -5 -10 30.1967 8.75740   2
  17  -5 -10 42.0045 8.00895   5
 -17   5  10 39.7101 8.41786   5
  17   5 -10 31.2708 8.85429   5
  17   5 -10 56.3976 8.55252   2
 -17   5  10 55.5495 10.2682   2
  15  -5 -10 15.2740 7.08063   2
 -15  -5  10 12.3048 10.2227   5
  15  -5 -10 8.50448 5.26280   5
 -15   5  10 6.57169 6.76419   2
  15   5 -10 5.70804 6.20595   5
 -15   5  10 5.82860 6.73565   5
 -13  -5  10 13.6758 6.41867   5
  13  -5 -10 1.55248 6.47576   2
  13  -5 -10 16.1926 5.18421   5
  13   5 -10 22.3612 5.28795   2
 -13   5  10 18.8282 7.93228   5
 -13   5  10 4.76280 6.67599   2
  13   5 -10 17.8228 5.62041   5
  11  -5 -10 12.3314 6.20197   2
  11  -5 -10 3.20632 5.79252   4
 -11  -5  10 7.05327 6.14638   5
  11  -5 -10 9.55066 4.13237   5
 -11   5  10 7.92250 6.53607   2
  11   5 -10 8.12588 4.30627   2
  11   5 -10 6.05768 4.81570   5
 -11   5  10 6.22462 6.54669   5
   9  -5 -10 128.183 11.4194   5
   9  -5 -10 111.834 12.3404   4
  -9  -5  10 135.201 14.2648   5
  -9   5  10 110.129 14.7045   5
   9   5 -10 144.744 12.4951   5
   9   5 -10 157.282 12.5714   2
  -9   5  10 137.618 15.1678   2
  -7  -5  10 104.905 16.8862   2
   7  -5 -10 95.3585 9.80045   4
   7  -5 -10 83.1528 8.62704   5
  -7  -5  10 99.4665 12.2233   5
  -7   5  10 92.7927 12.0952   5
  -7   5  10 96.7407 12.3642   2
   7   5 -10 105.203 9.70411   2
   7   5 -10 112.374 9.84372   5
  -5  -5  10 1.24010 9.28703   2
  -5  -5  10 1.39079 5.23413   5
   5  -5 -10 1.86557 2.58836   5
   5  -5 -10 3.50231 3.79756   4
  -5   5  10 3.65661 5.54903   5
   5   5 -10 4.08908 2.93264   5
  -5   5  10 0.16258 5.06046   2
   5   5 -10 0.76062 2.79985   2
   3  -5 -10 95.3977 8.63464   4
  -3  -5  10 74.3054 12.4575   2
  -3  -5  10 81.1530 11.6686   5
   3  -5 -10 80.1353 7.07010   5
   3   5 -10 84.8641 8.40426   5
  -3   5  10 76.8793 10.3651   5
   3   5 -10 75.1037 8.09861   2
  -3   5  10 92.1925 10.7001   2
  -1  -5  10 8.13657 6.16892   5
  -1  -5  10 7.34427 8.13578   2
   1  -5 -10 9.99166 3.56229   4
   1   5 -10 5.08335 2.89553   2
  -1   5  10 3.76895 5.56944   5
  -1   5  10 9.09186 4.76070   2
   1   5 -10 8.22225 3.22585   5
  -1  -5 -10 14.1697 3.87620   4
   1  -5  10 20.9218 7.28006   5
   1  -5  10 20.0196 8.16281   2
   1   5  10 15.1851 5.30444   2
  -1   5 -10 25.6505 4.53049   2
   1   5  10 8.54215 6.10425   5
  -1   5 -10 24.2221 4.10268   5
   3  -5  10 4.21568 7.85005   2
  -3  -5 -10 11.9581 3.74450   4
   3  -5  10 13.2988 6.68277   5
  -3   5 -10 24.7125 4.26504   2
   3   5  10 0.60902 7.19817   5
  -3   5 -10 22.3668 4.28773   5
   3   5  10 10.8444 5.18378   2
  -5  -5 -10 16.2425 4.07993   4
   5  -5  10 7.66314 8.45741   2
   5  -5  10 15.2386 7.09917   5
  -5   5 -10 23.0961 4.67150   5
  -5   5 -10 14.3278 4.54061   2
   5   5  10 7.26039 5.63977   2
  -7  -5 -10 19.1793 4.73665   4
   7  -5  10 5.29927 6.86776   5
   7  -5  10 11.7264 7.94410   2
   7   5  10 6.36478 6.65899   2
  -7   5 -10 6.74455 4.44710   2
  -7   5 -10 12.6594 4.24350   5
   9  -5  10 20.1072 8.82141   5
  -9  -5 -10 18.4780 4.63622   4
   9  -5  10 25.1233 9.39627   2
  -9   5 -10 11.6052 4.26331   5
  -9   5 -10 14.3887 5.06722   2
  11  -5  10 51.3504 11.1621   5
  11  -5  10 35.2657 10.2542   2
 -11  -5 -10 57.0834 7.30644   4
 -11   5 -10 40.5770 7.50194   2
  11   5  10 39.2493 11.1146   2
 -11   5 -10 46.1043 7.41458   5
  13  -5  10 7.83065 9.82741   5
 -13  -5 -10 3.37052 4.13520   4
  13  -5  10 4.70185 8.12407   2
 -13   5 -10 7.33765 7.63464   2
  13   5  10 4.87445 13.4342   2
  15  -5  10 22.5984 11.5179   5
 -15  -5 -10 45.1737 6.85203   4
  15  -5  10 28.6638 10.8651   2
 -15   5 -10 24.8855 6.70009   5
 -15   5 -10 44.3214 7.51323   3
  17  -5  10 -11.596 11.3545   5
  17  -5  10 -11.307 9.06984   2
 -17  -5 -10 -4.4065 3.58182   4
 -17  -5 -10 13.2002 10.7426   3
 -17   5 -10 -5.4660 6.64750   5
 -17   5 -10 3.55467 5.52154   3
 -19  -5 -10 11.4334 12.3732   3
  19  -5  10 35.0363 10.3366   2
 -19  -5 -10 11.6526 4.50799   4
 -19   5 -10 20.2093 6.47525   3
  21  -5  10 23.5212 10.2533   2
 -21  -5 -10 12.8300 4.99492   4
 -21   5 -10 23.4840 6.14622   3
  23  -5  10 19.1911 10.4235   2
 -23   5 -10 21.6169 6.22222   3
 -22   6  10 93.4268 15.7848   2
  22   6 -10 98.6008 12.0097   2
  20   6 -10 137.636 14.0812   2
 -20   6  10 127.399 16.1359   2
  18  -6 -10 85.8728 13.5682   5
  18  -6 -10 130.542 24.3040   2
  18   6 -10 130.593 12.9474   2
 -18   6  10 108.095 15.2033   5
 -18   6  10 128.908 15.2334   2
  16  -6 -10 95.0387 12.4280   5
 -16   6  10 113.101 15.2774   5
  16   6 -10 104.101 15.9993   5
 -16   6  10 127.479 15.0451   2
  14  -6 -10 62.9951 9.94076   5
 -14   6  10 92.4287 13.4256   2
  14   6 -10 93.6308 10.6892   2
  14   6 -10 85.9254 12.6032   5
 -14   6  10 86.8309 13.5624   5
 -12  -6  10 64.9166 10.6934   5
  12  -6 -10 67.2038 8.83940   5
  12  -6 -10 67.5318 9.70076   4
 -12   6  10 77.1989 12.8753   2
  12   6 -10 85.8556 9.69732   2
  12   6 -10 75.6847 10.6293   5
 -12   6  10 65.7446 11.5955   5
  10  -6 -10 12.2882 4.30455   5
 -10  -6  10 9.61805 7.46877   5
  10  -6 -10 3.87393 5.72025   4
 -10   6  10 9.68496 6.86576   2
  10   6 -10 7.23019 4.98945   5
 -10   6  10 -0.9837 7.49303   5
  10   6 -10 4.78304 4.39724   2
   8  -6 -10 19.9321 5.87619   4
  -8  -6  10 16.7821 7.78329   5
   8   6 -10 23.8126 5.47899   5
  -8   6  10 23.7827 8.06926   5
   8   6 -10 23.5876 5.20563   2
  -8   6  10 14.1246 7.19367   2
  -6  -6  10 -0.4385 6.94929   5
  -6  -6  10 -0.3434 13.1374   2
   6  -6 -10 -2.7589 3.18075   5
   6  -6 -10 0.99318 4.28525   4
  -6   6  10 4.09249 5.77620   2
   6   6 -10 0.33029 3.17876   2
   6   6 -10 -0.4019 3.79453   5
  -6   6  10 0.50406 6.80077   5
  -4  -6  10 40.9540 13.9596   2
   4  -6 -10 71.0634 8.22766   4
  -4  -6  10 74.5582 11.6575   5
  -4   6  10 72.8767 10.8932   2
   4   6 -10 71.8156 8.12684   2
   4   6 -10 91.5953 8.73973   5
  -4   6  10 71.3466 11.9820   5
  -2  -6  10 51.8828 12.4781   2
   2  -6 -10 36.8890 5.96699   4
  -2  -6  10 45.0965 9.41188   5
   2   6 -10 42.6838 6.00581   2
  -2   6  10 21.6169 7.80103   5
  -2   6  10 35.7147 7.56798   2
   2   6 -10 38.3213 6.39777   5
   0  -6 -10 23.8443 4.89066   4
   0  -6  10 41.9604 11.8077   2
   0  -6  10 33.2757 8.73992   5
   0   6 -10 38.6824 5.66575   2
   0   6  10 18.2164 7.87775   5
   0   6 -10 36.2704 6.04716   5
   0   6  10 32.5480 6.93360   2
  -2  -6 -10 86.3164 8.93583   4
   2  -6  10 90.2654 14.6674   2
   2  -6  10 91.2020 13.6866   5
  -2   6 -10 79.7363 8.81805   5
   2   6  10 88.1861 10.4885   2
  -2   6 -10 86.4268 8.76916   2
  -4  -6 -10 112.912 10.6240   4
   4  -6  10 107.399 16.7063   2
   4  -6  10 101.642 14.6832   5
  -4   6 -10 110.039 10.5894   5
   4   6  10 115.407 12.1896   2
  -4   6 -10 111.739 10.6734   2
  -6  -6 -10 84.3478 9.43609   4
   6  -6  10 96.7898 14.7822   5
   6  -6  10 90.6180 15.2403   2
   6   6  10 80.0114 11.9628   2
  -6   6 -10 89.2746 9.56056   5
  -6   6 -10 96.6509 9.76315   2
   8  -6  10 34.8386 10.9947   2
   8  -6  10 33.2318 10.0873   5
  -8  -6 -10 30.8656 6.17036   4
   8   6  10 39.7764 9.92627   2
  -8   6 -10 46.7964 7.39180   2
  -8   6 -10 45.0240 7.13115   5
 -10  -6 -10 15.1691 5.15144   4
  10  -6  10 9.18965 9.49238   5
  10  -6  10 6.52024 9.41289   2
 -10   6 -10 14.5748 5.40401   5
 -10   6 -10 12.8618 5.66746   2
  10   6  10 -4.4787 11.3968   2
  12  -6  10 21.9837 9.78417   2
 -12  -6 -10 16.6768 5.48856   4
  12  -6  10 26.8346 10.8137   5
 -12   6 -10 24.7525 5.80145   5
 -12   6 -10 28.5110 7.46163   2
  14  -6  10 19.0969 11.2061   5
 -14  -6 -10 21.2782 5.02869   4
  14  -6  10 12.2762 9.79590   2
 -14   6 -10 0.95812 9.31489   2
 -14   6 -10 7.75693 5.91442   5
  16  -6  10 -2.6132 11.4918   5
  16  -6  10 -7.4415 9.29129   2
 -16  -6 -10 5.87498 4.75636   4
 -16   6 -10 -0.6962 4.49190   3
 -16   6 -10 5.34104 6.81655   5
 -18  -6 -10 17.5265 5.42231   4
  18  -6  10 12.2216 10.3509   2
 -18   6 -10 6.00123 4.53325   3
  20  -6  10 -6.9198 9.21631   2
 -20  -6 -10 -1.4029 4.51585   4
 -20   6 -10 -0.2410 4.79824   3
  22  -6  10 10.1453 9.96872   2
  21   7 -10 15.1296 6.40952   2
 -21   7  10 14.6856 8.81128   2
  19   7 -10 11.8990 6.29675   2
 -19   7  10 21.9430 8.74967   2
  17   7 -10 78.7776 10.8038   2
 -17   7  10 79.2418 13.2405   2
  15  -7 -10 26.0840 7.94187   5
  15   7 -10 40.5568 7.09354   2
  15   7 -10 27.8475 12.2258   5
 -15   7  10 26.4819 10.0041   5
 -15   7  10 26.9706 8.65996   2
  13  -7 -10 4.86204 7.35025   4
  13  -7 -10 -1.2264 6.00352   5
  13   7 -10 7.82506 5.16826   2
  13   7 -10 4.09766 8.47276   5
 -13   7  10 12.7130 7.91640   2
 -13   7  10 5.94134 8.98626   5
  11  -7 -10 11.4103 5.51622   5
  11  -7 -10 16.1523 6.54005   4
 -11   7  10 23.0585 8.90397   2
 -11   7  10 17.1493 9.69562   5
  11   7 -10 16.5267 5.53875   2
  11   7 -10 10.5192 7.18580   5
   9  -7 -10 6.29738 5.95844   5
   9  -7 -10 3.74946 5.55001   4
  -9  -7  10 7.20607 8.75201   5
  -9   7  10 -1.1260 9.28705   5
   9   7 -10 5.48703 3.97960   2
  -9   7  10 8.41964 7.39694   2
   9   7 -10 0.97600 5.86914   5
  -7  -7  10 7.51618 8.35382   5
   7  -7 -10 -2.4762 4.81006   4
   7   7 -10 3.06518 5.23399   5
  -7   7  10 -0.0517 9.09053   5
  -7   7  10 5.18507 6.75651   2
   7   7 -10 4.20249 3.86851   2
  -5  -7  10 11.3212 8.51312   5
   5  -7 -10 8.79905 4.75347   4
  -5   7  10 12.5466 9.07780   5
  -5   7  10 4.67199 6.63505   2
   5   7 -10 6.20516 4.46758   5
   5   7 -10 11.1641 4.24016   2
  -3  -7  10 -15.335 15.0447   2
  -3  -7  10 32.9153 9.48289   5
  -3   7  10 35.7045 9.73244   5
   3   7 -10 21.3492 4.98650   5
   3   7 -10 21.4266 4.94154   2
  -3   7  10 45.9566 8.46464   2
  -1  -7  10 47.4254 10.8899   5
  -1  -7  10 16.3076 14.5166   2
   1   7 -10 42.9425 6.70251   2
   1   7 -10 47.8685 7.24435   5
  -1  -7 -10 58.6243 7.20147   4
   1  -7  10 35.9675 14.0750   2
   1  -7  10 44.0463 10.7530   5
  -1   7 -10 46.4531 7.21171   5
  -1   7 -10 40.6674 6.82630   2
   1   7  10 57.3896 9.45771   2
   3  -7  10 31.5585 10.5360   5
   3  -7  10 8.62386 11.8489   2
  -3   7 -10 17.6732 4.79066   5
   3   7  10 16.9752 7.02231   2
  -3   7 -10 19.5364 5.05434   2
  -5  -7 -10 45.4961 6.74594   4
   5  -7  10 22.3374 10.5354   5
   5  -7  10 47.8472 13.2377   2
   5   7  10 30.2566 8.30017   2
  -5   7 -10 31.2873 6.17637   5
  -5   7 -10 35.7874 6.14062   2
   7  -7  10 42.6994 11.5227   5
  -7  -7 -10 31.5378 5.90903   4
   7  -7  10 39.6689 12.3510   2
  -7   7 -10 37.3038 6.60409   5
  -7   7 -10 45.7216 7.31027   2
   7   7  10 65.8900 10.7523   2
   9  -7  10 80.7845 15.3686   2
   9  -7  10 68.9896 14.1490   5
  -9  -7 -10 82.3900 9.36423   4
  -9   7 -10 96.0867 10.3374   2
  -9   7 -10 72.8733 9.98653   5
  11  -7  10 33.4763 11.9672   5
 -11  -7 -10 21.4670 5.44577   4
  11  -7  10 52.7210 12.1985   2
 -11   7 -10 38.1136 6.59218   5
 -11   7 -10 60.3495 9.02990   2
 -13  -7 -10 91.0142 10.2451   4
  13  -7  10 102.828 17.0157   2
  13  -7  10 83.3926 14.4104   5
 -13   7 -10 107.215 13.0981   2
 -15  -7 -10 21.4654 5.41715   4
  15  -7  10 29.4949 11.6884   2
 -15   7 -10 12.9138 4.45500   3
  17  -7  10 15.0285 10.6699   2
 -17  -7 -10 2.36790 4.24231   4
 -17   7 -10 2.46771 4.52644   3
  19  -7  10 12.2662 10.7622   2
 -19  -7 -10 9.89709 4.94130   4
 -19   7 -10 2.82743 5.87851   3
 -21  -7 -10 4.29377 5.68144   4
  21  -7  10 0.74748 12.9837   2
 -21   7 -10 0.03810 5.11570   3
 -20   8  10 24.9569 9.85277   2
  20   8 -10 20.8525 7.80777   2
 -18   8  10 82.6407 12.7698   2
  18   8 -10 66.7889 10.7685   2
 -16   8  10 67.9555 12.3527   2
  16   8 -10 70.0140 10.6568   2
  14  -8 -10 39.5046 9.81140   4
  14   8 -10 72.3714 9.93868   2
 -14   8  10 57.6271 11.6401   2
  12  -8 -10 56.4705 9.05443   4
  12   8 -10 72.4060 9.69042   2
 -12   8  10 32.0770 13.1935   5
 -12   8  10 50.8276 10.9543   2
  12   8 -10 66.8888 13.9687   5
  10  -8 -10 14.3774 6.36124   4
  10   8 -10 11.5446 5.54926   2
 -10   8  10 19.3454 9.02845   2
 -10   8  10 11.3757 12.6671   5
  10   8 -10 15.0570 9.15351   5
   8  -8 -10 83.6913 10.0777   4
   8   8 -10 77.3425 12.6606   5
  -8   8  10 68.1054 12.3334   2
   8   8 -10 101.955 10.1539   2
  -8   8  10 58.7094 14.4323   5
   6  -8 -10 40.4105 7.00451   4
  -6  -8  10 27.1523 11.1932   5
  -6   8  10 25.3239 12.9708   5
   6   8 -10 49.6093 8.19724   5
   6   8 -10 63.4427 7.92185   2
  -6   8  10 42.7056 9.68395   2
  -4  -8  10 0.39232 9.71422   5
   4  -8 -10 1.65434 4.43379   4
  -4   8  10 7.07249 7.12693   2
   4   8 -10 2.60336 4.05276   2
   4   8 -10 1.16679 5.24932   5
   2  -8 -10 13.3036 4.59410   4
  -2  -8  10 15.9249 10.1438   5
   2   8 -10 13.8556 5.54386   5
  -2   8  10 9.94288 7.62613   2
   2   8 -10 11.1226 4.33657   2
   0  -8  10 29.6202 11.2086   5
   0  -8 -10 43.0502 7.03436   4
   0   8 -10 36.0305 6.46410   2
   0   8  10 41.3672 8.06947   2
   0   8 -10 27.2250 6.11220   5
   2  -8  10 -3.2201 16.7677   2
   2  -8  10 4.04687 10.5593   5
  -2  -8 -10 10.9037 4.88293   4
  -2   8 -10 3.29467 4.22872   2
  -2   8 -10 4.64052 4.88722   5
   2   8  10 -3.0500 7.30830   2
   4  -8  10 -14.929 9.85090   5
  -4  -8 -10 5.34861 4.37979   4
  -4   8 -10 4.96579 5.06929   5
   4   8  10 4.05131 8.89147   2
  -4   8 -10 4.28375 4.59712   2
   6  -8  10 -1.9377 14.1724   2
   6  -8  10 15.8131 11.5898   5
  -6  -8 -10 16.8846 5.04217   4
  -6   8 -10 12.6231 5.29473   5
   6   8  10 11.2642 11.0834   2
  -6   8 -10 13.6052 5.39514   2
   8  -8  10 18.4360 11.7048   5
   8  -8  10 31.6961 14.6274   2
  -8  -8 -10 26.7827 5.90274   4
  -8   8 -10 24.2694 6.16056   5
  -8   8 -10 26.4916 6.67366   2
 -10  -8 -10 17.4084 5.39036   4
  10  -8  10 21.2583 12.0962   5
  10  -8  10 26.1540 14.1170   2
 -10   8 -10 24.5676 6.38231   5
 -10   8 -10 31.7881 7.30593   2
  12  -8  10 48.8610 14.3078   2
 -12  -8 -10 71.0386 8.59530   4
  12  -8  10 45.7096 17.8562   5
 -12   8 -10 55.7523 9.76405   2
 -14  -8 -10 1.47994 4.55107   4
  14  -8  10 7.92536 12.3390   2
 -16  -8 -10 15.9903 4.88134   4
  16  -8  10 21.2580 12.0298   2
 -16   8 -10 14.1309 5.85598   3
 -18  -8 -10 4.43141 5.01486   4
  18  -8  10 -9.9905 11.5645   2
 -18   8 -10 3.51338 5.44667   3
  17   9 -10 17.2914 7.14557   2
 -17   9  10 15.7433 9.45034   2
  15   9 -10 32.0275 7.38178   2
 -15   9  10 27.1659 10.1897   2
  13  -9 -10 22.0224 8.83751   4
  13   9 -10 15.1629 6.84804   2
 -13   9  10 17.0895 9.78867   2
  11  -9 -10 16.9171 7.26743   4
  11   9 -10 23.1003 6.72564   2
 -11   9  10 22.0793 10.3687   2
   9  -9 -10 12.1994 6.30385   4
  -9   9  10 10.0888 9.57329   2
   9   9 -10 18.3672 6.37459   2
   7  -9 -10 22.0686 6.03869   4
   7   9 -10 27.4135 11.4122   5
  -7   9  10 1.87569 8.79553   2
   5  -9 -10 -0.4901 5.02149   4
   5   9 -10 -2.5468 4.80582   2
  -5   9  10 1.56270 8.29802   2
   5   9 -10 6.72739 8.12961   5
   3  -9 -10 9.46742 4.97809   4
  -3   9  10 -1.2706 8.33085   2
   3   9 -10 4.20050 7.01203   5
   3   9 -10 0.02768 4.68608   2
   1  -9 -10 36.6304 6.67440   4
  -1  -9  10 15.1131 12.1693   5
   1   9 -10 43.9965 7.40116   2
   1   9 -10 34.7551 7.83721   5
  -1   9  10 27.1558 8.92215   2
   1  -9  10 12.0172 12.1042   5
  -1  -9 -10 8.69566 4.92091   4
   1   9  10 11.9888 8.94607   2
  -1   9 -10 11.3288 6.57632   5
  -1   9 -10 6.05821 5.00438   2
  -3  -9 -10 91.3698 9.86222   4
   3  -9  10 65.0631 14.7447   5
  -3   9 -10 84.5644 11.5026   5
  -3   9 -10 108.532 10.6348   2
   3   9  10 64.6404 12.5508   2
   5  -9  10 57.6529 14.5297   5
  -5  -9 -10 62.9114 8.65827   4
  -5   9 -10 61.8509 10.2324   5
  -5   9 -10 77.6841 9.54340   2
  -7  -9 -10 31.9996 6.62310   4
   7  -9  10 61.6954 25.1618   2
   7  -9  10 30.7732 15.0697   5
  -7   9 -10 55.1593 8.95054   2
  -7   9 -10 34.9866 7.60933   5
   9  -9  10 17.9677 8.83245   4
  -9  -9 -10 15.4609 5.72757   4
   9  -9  10 12.0561 19.2484   2
  -9   9 -10 23.6219 7.32061   2
  11  -9  10 7.61408 17.9078   2
 -11  -9 -10 3.25415 5.12559   4
 -11   9 -10 3.73841 7.47235   2
  13  -9  10 -9.5276 16.7391   2
 -13  -9 -10 8.63598 4.84782   4
 -13   9 -10 2.32191 9.15279   2
 -15  -9 -10 8.44017 4.89752   4
 -15   9 -10 -4.2254 6.11431   3
 -17  -9 -10 22.7625 9.80964   4
 -14  10  10 8.62074 10.3176   2
  14  10 -10 7.98981 7.14274   2
  12 -10 -10 7.98348 8.81481   4
  12  10 -10 7.81403 6.92554   2
 -12  10  10 -3.0665 10.5464   2
  10 -10 -10 5.94030 6.97870   4
  10  10 -10 4.64039 6.54990   2
 -10  10  10 -4.0852 10.3821   2
   8 -10 -10 -1.0856 6.00572   4
  -8  10  10 -0.3213 10.4004   2
   8  10 -10 11.4618 6.19418   2
   6 -10 -10 7.72068 5.80206   4
   6  10 -10 0.81204 5.97977   2
  -6  10  10 -0.9303 10.0214   2
   4 -10 -10 0.34805 5.12774   4
  -4  10  10 11.5005 9.95309   2
   4  10 -10 3.16148 5.61743   2
   2 -10 -10 3.00083 5.34160   4
   2  10 -10 15.9421 5.94605   2
  -2  10  10 27.0308 9.94802   2
   0 -10 -10 10.0463 5.36451   4
   0  10  10 17.5648 10.7351   2
   0  10 -10 11.4519 5.65893   2
  -2 -10 -10 88.5876 9.61210   4
   2  10  10 52.3686 14.1171   2
  -2  10 -10 76.9509 10.2059   2
  -4 -10 -10 16.5695 5.51294   4
  -4  10 -10 19.7703 6.49450   2
  -6 -10 -10 51.7691 7.87830   4
  -6  10 -10 42.4174 7.98780   2
  -8 -10 -10 101.271 10.8190   4
  -8  10 -10 111.350 12.4692   2
 -10 -10 -10 11.6814 5.64824   4
 -10  10 -10 28.9260 8.21143   2
 -12 -10 -10 5.33586 5.30148   4
 -14  10 -10 -4.3357 6.21968   3
  -9  11  10 19.1735 12.3602   2
   9  11 -10 31.2635 7.84231   2
   7 -11 -10 23.3042 7.72477   4
   7  11 -10 38.2064 8.01845   2
  -7  11  10 29.8062 12.3357   2
   5 -11 -10 12.7900 6.85562   4
   5  11 -10 27.3790 7.69356   2
  -5  11  10 34.9306 12.2904   2
   3 -11 -10 7.50470 6.01245   4
   3  11 -10 11.3176 6.68328   2
   1 -11 -10 5.65437 5.47406   4
   1  11 -10 1.34329 6.28214   2
  -1  11  10 5.17877 14.6807   2
  -1 -11 -10 11.0944 5.62175   4
  -1  11 -10 8.33453 6.39005   2
  -3 -11 -10 19.0149 5.60787   4
  -3  11 -10 25.8743 7.18934   2
  -5 -11 -10 2.38877 4.94886   4
  -5  11 -10 -4.6320 6.68958   2
  -7 -11 -10 11.8533 5.75611   4
  -7  11 -10 20.0840 7.63144   2
  -9 -11 -10 16.6343 6.07786   4
  26   0 -11 12.9332 6.75783   2
  24   0 -11 10.9448 6.72805   2
  22   0 -11 6.60456 6.51794   2
  20   0 -11 6.60653 6.15006   2
  20   0 -11 -8.2124 7.07008   5
 -20   0  11 1.16665 6.56093   5
 -18   0  11 -4.2108 9.43042   2
  18   0 -11 -1.2818 5.29632   2
 -18   0  11 2.19984 5.84093   5
  18   0 -11 4.35406 6.39519   5
 -16   0  11 0.65809 7.66105   2
  16   0 -11 5.78878 5.52233   2
 -16   0  11 0.07749 5.21930   5
  16   0 -11 2.08515 5.03119   5
  14   0 -11 0.31135 4.21072   5
  14   0 -11 10.3209 5.01349   2
 -14   0  11 4.05279 6.95248   2
 -14   0  11 10.0072 5.87962   5
  12   0 -11 18.0417 5.18862   2
  12   0 -11 14.8350 4.52553   5
 -12   0  11 15.0760 6.71425   2
 -12   0  11 20.1002 6.15974   5
 -10   0  11 15.0432 6.31616   2
 -10   0  11 14.4268 5.69561   5
  10   0 -11 9.06511 3.92244   2
  10   0 -11 10.4153 3.75022   5
  -8   0  11 18.7680 6.32924   2
  -8   0  11 15.1418 5.16267   5
   8   0 -11 11.4625 3.41426   5
   8   0 -11 10.7097 3.70147   2
  -6   0  11 29.2224 7.18910   2
   6   0 -11 26.0525 4.86784   2
  -6   0  11 27.7748 6.12887   5
   6   0 -11 33.5006 5.10459   5
  -4   0  11 25.2578 5.48777   5
  -4   0  11 16.2448 5.66952   2
   4   0 -11 12.3945 3.75102   2
   2   0 -11 36.0770 5.66559   2
   2   0 -11 39.4706 6.16330   4
  -2   0  11 48.0117 7.60981   5
   2   0 -11 47.2588 5.37993   5
  -2   0  11 35.3983 6.96170   2
   0   0 -11 15.9497 4.21431   2
   0   0  11 22.4060 5.68220   5
   0   0  11 22.3596 5.83357   2
   0   0 -11 24.5031 4.66552   4
   0   0 -11 20.5492 3.64298   5
  -2   0 -11 13.5071 4.24957   2
  -2   0 -11 15.0222 4.47055   4
  -2   0 -11 15.4657 3.14304   5
   2   0  11 12.6046 5.27890   5
   4   0  11 8.64577 5.02942   2
  -4   0 -11 14.1560 3.10630   5
   4   0  11 12.5777 5.37381   5
  -4   0 -11 19.1777 4.71139   4
  -4   0 -11 5.45996 6.74340   3
  -6   0 -11 -8.0822 4.88532   3
  -6   0 -11 0.81352 2.51056   5
   6   0  11 1.92031 5.65930   5
   6   0  11 9.07210 6.00590   2
  -6   0 -11 6.51348 3.85967   4
   8   0  11 0.07588 5.73507   2
  -8   0 -11 -3.1117 2.74242   5
  -8   0 -11 4.36742 3.88426   4
  -8   0 -11 -1.6206 4.77532   3
   8   0  11 9.39497 6.59552   5
 -10   0 -11 0.05549 3.69760   4
  10   0  11 3.34834 7.65745   5
  10   0  11 -1.0334 6.18950   2
 -10   0 -11 1.63989 4.89332   3
 -12   0 -11 4.52014 4.64369   3
  12   0  11 -7.5107 9.93030   5
  12   0  11 -0.4647 7.02080   2
  14   0  11 7.60811 13.5305   5
 -14   0 -11 9.87072 5.20138   3
  14   0  11 13.7942 8.76403   2
 -16   0 -11 8.49948 5.15819   3
  16   0  11 -4.2404 9.56332   2
  18   0  11 8.47824 10.6064   2
 -18   0 -11 9.02425 5.23271   3
  20   0  11 -2.6071 10.8471   2
 -20   0 -11 10.8802 5.74491   3
  22   0  11 2.53206 11.7079   2
 -22   0 -11 13.7033 6.19334   3
 -24   0 -11 12.9872 6.62445   3
  25  -1 -11 56.8618 8.98245   2
  25   1 -11 39.3648 8.42352   2
  23  -1 -11 71.1845 10.1935   2
  23   1 -11 48.1857 9.07410   2
  21  -1 -11 35.0803 9.28929   5
  21  -1 -11 27.2678 7.40986   2
 -21  -1  11 20.9210 12.1517   5
  21   1 -11 20.1398 6.95645   2
 -21   1  11 23.0318 7.59217   5
  21   1 -11 20.0308 8.62661   5
  19  -1 -11 127.486 14.7966   5
  19  -1 -11 128.884 14.0921   2
 -19  -1  11 123.250 14.2268   5
  19   1 -11 132.596 14.9694   5
 -19   1  11 131.334 14.5923   5
  19   1 -11 136.345 14.3838   2
 -19   1  11 141.602 17.2619   2
  17  -1 -11 25.2377 6.48795   2
 -17  -1  11 21.3082 6.79212   5
  17  -1 -11 18.0208 6.37112   5
 -17   1  11 30.5655 7.19893   5
 -17   1  11 28.6380 8.13610   2
  17   1 -11 13.9303 6.49016   5
  17   1 -11 16.3234 5.96449   2
  15  -1 -11 48.3893 7.54321   5
  15  -1 -11 58.9001 8.39631   2
 -15  -1  11 40.1314 9.69231   2
 -15  -1  11 36.2028 7.92819   5
 -15   1  11 42.7479 8.78817   2
  15   1 -11 29.6824 6.80841   2
 -15   1  11 50.3097 8.58150   5
  15   1 -11 44.7977 7.71939   5
 -13  -1  11 124.791 13.8034   5
  13  -1 -11 145.374 12.6706   5
  13  -1 -11 146.668 12.7161   2
 -13  -1  11 105.334 14.7531   2
  13   1 -11 116.778 12.3708   2
 -13   1  11 137.746 14.3512   5
  13   1 -11 104.521 12.2435   5
 -13   1  11 149.834 15.3351   2
  11  -1 -11 19.3606 4.53261   5
 -11  -1  11 23.7948 7.65228   2
 -11  -1  11 23.6660 6.38871   5
  11  -1 -11 19.1311 4.81957   2
  11   1 -11 15.2269 4.54205   2
 -11   1  11 25.0121 7.77445   2
 -11   1  11 22.7718 6.60685   5
  11   1 -11 23.0954 4.82237   5
   9  -1 -11 146.156 12.3850   2
  -9  -1  11 150.021 15.3786   2
   9  -1 -11 143.556 12.1930   5
  -9  -1  11 132.600 13.9221   5
   9   1 -11 126.270 12.1191   2
  -9   1  11 136.747 14.1708   5
  -9   1  11 143.576 14.8973   2
   9   1 -11 134.379 12.1984   5
   7  -1 -11 74.1995 8.16856   2
   7  -1 -11 82.7444 7.92791   5
  -7  -1  11 66.3076 11.1657   2
  -7  -1  11 87.0220 10.1730   5
   7   1 -11 78.0631 7.98861   5
   7   1 -11 75.0076 8.04079   2
  -7   1  11 81.8969 10.0356   5
  -7   1  11 79.1114 10.6069   2
   5  -1 -11 114.800 9.56067   5
  -5  -1  11 109.052 11.4643   5
  -5  -1  11 104.367 12.6895   2
   5  -1 -11 100.418 9.80653   2
   5   1 -11 93.9871 9.69675   2
  -5   1  11 121.784 11.4577   5
  -5   1  11 108.054 11.9828   2
   5   1 -11 115.096 9.79346   5
   3  -1 -11 103.480 8.90286   5
  -3  -1  11 96.4373 10.9051   5
   3  -1 -11 108.272 9.63644   4
  -3  -1  11 109.836 11.9156   2
   3  -1 -11 95.8714 9.31781   2
  -3   1  11 101.563 10.6366   5
   3   1 -11 82.1821 9.06524   2
   3   1 -11 108.984 9.13015   5
  -3   1  11 109.541 11.1890   2
   1  -1 -11 91.0182 9.21014   4
  -1  -1  11 92.6699 10.5021   5
   1  -1 -11 106.454 8.47222   5
   1  -1 -11 90.5911 8.95338   2
  -1   1  11 104.240 11.0910   2
   1   1 -11 94.0724 8.64615   5
  -1   1  11 101.821 10.3811   5
   1   1 -11 98.5053 8.92217   2
   1  -1  11 0.62651 3.92698   5
  -1  -1 -11 0.75430 3.69491   4
   1  -1  11 4.87011 5.02436   2
  -1  -1 -11 1.99583 2.16778   5
  -1  -1 -11 -5.7254 4.24477   2
  -1   1 -11 0.84088 2.34998   5
   1   1  11 6.56357 4.55841   2
  -1   1 -11 4.69422 3.35503   2
   1   1  11 6.15598 4.42947   5
   3  -1  11 29.1677 6.16098   5
   3  -1  11 24.4124 6.37942   2
  -3  -1 -11 45.4543 4.62857   5
  -3   1 -11 36.0858 5.95081   2
  -3   1 -11 28.3274 4.69901   5
   3   1  11 46.6214 7.63196   5
   3   1  11 42.0084 7.01161   2
  -5  -1 -11 55.4020 5.37760   5
   5  -1  11 46.2699 7.95468   5
  -5  -1 -11 62.7334 7.27818   4
   5  -1  11 51.1061 9.08425   2
   5   1  11 52.0407 8.95297   5
  -5   1 -11 51.5174 7.02488   3
  -5   1 -11 43.6786 5.72244   5
   7  -1  11 5.63723 6.15340   2
   7  -1  11 0.98632 5.38803   5
  -7  -1 -11 4.59689 6.26080   3
  -7  -1 -11 -2.6134 2.42229   5
  -7  -1 -11 10.1862 4.07943   4
   7   1  11 2.69945 5.04099   2
  -7   1 -11 7.24463 4.92223   3
   7   1  11 -0.5886 6.13721   5
  -7   1 -11 2.31916 2.57598   5
   9  -1  11 5.88584 7.02918   5
  -9  -1 -11 8.44807 5.10199   3
   9  -1  11 10.7201 6.96493   2
  -9   1 -11 5.53537 3.21620   5
   9   1  11 7.93787 7.78015   5
   9   1  11 18.7417 7.01684   2
  -9   1 -11 16.3834 5.31701   3
 -11  -1 -11 4.36679 4.99249   3
 -11  -1 -11 6.90327 4.08731   4
  11  -1  11 3.18585 6.98430   2
  11  -1  11 -3.5283 8.03593   5
  11   1  11 14.6844 10.1835   5
  11   1  11 1.99113 7.07024   2
 -11   1 -11 3.64382 4.99336   3
  13  -1  11 19.4066 8.91017   2
  13  -1  11 10.0705 11.3974   5
 -13  -1 -11 21.8644 5.12141   4
 -13  -1 -11 14.7502 5.57782   3
  13   1  11 14.8101 8.49621   2
 -13   1 -11 24.0622 5.83709   3
  15  -1  11 34.6386 11.0517   2
  15  -1  11 2.38532 14.1072   5
 -15  -1 -11 36.2347 6.63796   3
 -15   1 -11 18.0519 5.43562   3
  15   1  11 29.4562 10.9940   2
 -17  -1 -11 3.53545 5.24060   3
  17  -1  11 4.15580 23.2373   5
  17  -1  11 1.65080 9.72483   2
 -17   1 -11 -0.8714 5.10288   3
  17   1  11 6.02318 10.7950   2
 -19  -1 -11 5.18743 5.80413   3
  19  -1  11 13.2864 10.1231   2
  19   1  11 -1.7845 11.5313   2
 -19   1 -11 3.14952 5.28158   3
  21  -1  11 10.9346 11.1245   2
 -21  -1 -11 15.9184 6.93515   3
 -21   1 -11 13.0081 5.52721   3
  21   1  11 15.9133 12.8180   2
 -23  -1 -11 13.3885 7.27544   3
  23  -1  11 12.0996 11.6339   2
 -23   1 -11 7.78826 6.08972   3
  23   1  11 35.1400 15.0323   2
  26  -2 -11 36.4758 9.97163   2
  26   2 -11 63.3175 10.3344   2
  24  -2 -11 23.0549 7.78307   2
  24   2 -11 26.7433 7.26753   2
  22  -2 -11 18.6223 7.51879   2
  22   2 -11 42.5622 8.22668   2
 -20  -2  11 45.5797 9.95069   5
  20  -2 -11 82.3474 11.2799   5
  20  -2 -11 43.2382 8.83848   2
  20   2 -11 68.1735 10.5644   2
  20   2 -11 52.7430 10.0590   5
 -20   2  11 66.7312 11.1958   5
 -20   2  11 69.8665 11.5547   2
  18  -2 -11 15.3403 7.08945   5
  18  -2 -11 17.9916 6.47046   2
 -18  -2  11 24.1457 7.21596   5
 -18   2  11 24.2790 8.57862   2
 -18   2  11 16.7153 7.08694   5
  18   2 -11 38.3937 7.75984   2
  18   2 -11 32.9197 8.14772   5
  16  -2 -11 90.7266 10.7046   5
  16  -2 -11 72.0061 10.4704   2
 -16  -2  11 82.0428 11.5554   5
  16   2 -11 69.1631 10.9765   5
 -16   2  11 78.9446 12.0860   5
 -16   2  11 77.8851 12.6109   2
  16   2 -11 81.2060 10.5388   2
 -14  -2  11 14.6488 10.7478   2
  14  -2 -11 11.7268 5.33937   2
  14  -2 -11 8.76701 4.78136   5
 -14  -2  11 14.0990 5.94579   5
 -14   2  11 10.1942 7.01409   2
 -14   2  11 17.3697 7.23850   5
  14   2 -11 15.4705 5.64908   5
  14   2 -11 15.6534 5.26030   2
 -12  -2  11 336.615 27.4405   5
  12  -2 -11 325.330 25.9785   5
  12  -2 -11 314.769 25.9714   2
  12   2 -11 320.656 26.1095   5
 -12   2  11 333.553 27.6408   5
 -12   2  11 353.377 28.4371   2
  12   2 -11 355.103 26.3673   2
  10  -2 -11 88.9747 9.58330   5
 -10  -2  11 102.626 12.0524   5
  10  -2 -11 91.5759 9.85851   2
  10   2 -11 100.893 9.90002   5
 -10   2  11 89.6569 12.6754   2
 -10   2  11 109.980 12.3620   5
  10   2 -11 102.340 9.99180   2
   8  -2 -11 32.9011 4.96067   5
   8  -2 -11 33.0379 5.23368   2
  -8  -2  11 26.2639 6.74076   5
  -8   2  11 21.4258 6.77327   2
   8   2 -11 16.6195 4.27631   2
   8   2 -11 20.9079 4.18822   5
  -8   2  11 33.4263 7.19927   5
   6  -2 -11 171.401 15.9952   2
  -6  -2  11 224.558 18.2889   5
   6  -2 -11 193.544 15.7576   5
   6   2 -11 216.091 16.3795   2
  -6   2  11 206.543 18.4800   2
   6   2 -11 207.308 16.2156   5
  -6   2  11 196.745 17.8315   5
  -4  -2  11 45.4004 8.95437   2
   4  -2 -11 33.9246 5.88400   4
  -4  -2  11 43.4279 7.28666   5
   4  -2 -11 36.6100 5.13161   5
  -4   2  11 42.3530 7.54152   2
   4   2 -11 43.3241 5.85669   2
   4   2 -11 45.5534 5.62365   5
  -4   2  11 48.5883 7.70678   5
  -2  -2  11 130.767 12.7646   5
   2  -2 -11 116.621 10.1418   5
   2  -2 -11 110.511 11.1827   4
  -2  -2  11 125.299 13.9456   2
   2   2 -11 138.160 10.7894   5
  -2   2  11 121.014 12.1356   5
   2   2 -11 130.003 10.8794   2
  -2   2  11 125.201 12.5149   2
   0  -2 -11 49.5744 7.10885   4
   0  -2  11 67.7881 10.4886   2
   0  -2  11 55.1064 8.41419   5
   0  -2 -11 43.9275 5.23069   5
   0   2  11 47.8684 7.89694   5
   0   2 -11 57.6570 6.00940   5
   0   2 -11 64.9024 6.53277   2
   0   2  11 51.8411 7.97157   2
  -2  -2 -11 42.0775 6.29777   4
   2  -2  11 53.6455 8.54971   5
  -2  -2 -11 38.9916 4.67604   5
   2  -2  11 50.7154 9.12672   2
  -2   2 -11 45.5437 6.02310   2
   2   2  11 38.5519 7.17453   2
  -2   2 -11 49.3874 5.53437   5
   2   2  11 39.2448 6.94299   5
   4  -2  11 75.4020 11.1713   2
   4  -2  11 74.5355 9.98516   5
  -4  -2 -11 64.6816 7.97395   4
   4   2  11 68.1202 9.55009   2
  -4   2 -11 77.6261 7.80361   2
  -4   2 -11 70.5982 7.07215   5
   4   2  11 55.3459 9.51636   5
  -6  -2 -11 41.2670 6.63341   4
   6  -2  11 52.3304 8.69937   5
   6  -2  11 41.2576 8.72735   2
  -6   2 -11 51.9499 5.80845   5
  -6   2 -11 51.0071 7.36044   2
   6   2  11 40.9316 8.35017   5
   8  -2  11 73.4634 11.5517   2
  -8  -2 -11 60.3753 7.69841   4
   8  -2  11 69.8256 11.2107   5
  -8   2 -11 93.8096 8.65997   3
  -8   2 -11 72.4158 7.25112   5
   8   2  11 61.9359 10.7451   5
   8   2  11 62.8459 10.4669   2
  10  -2  11 12.0286 6.99230   2
  10  -2  11 12.5359 7.97152   5
 -10  -2 -11 16.4156 4.16497   4
 -10  -2 -11 -1.3822 5.59269   3
  10   2  11 9.44211 7.39197   2
 -10   2 -11 6.62195 3.51733   5
 -10   2 -11 7.70418 4.34418   3
  10   2  11 23.9710 10.5955   5
 -12  -2 -11 59.7966 7.51623   4
  12  -2  11 58.5305 12.3954   5
 -12  -2 -11 49.6107 8.03012   3
  12  -2  11 58.8691 10.9911   2
  12   2  11 70.4311 11.1891   2
 -14  -2 -11 18.8012 6.18614   3
  14  -2  11 17.7050 12.2000   5
  14  -2  11 12.1855 8.94144   2
 -14  -2 -11 17.7833 4.39122   4
  14   2  11 7.67689 9.64908   2
 -14   2 -11 14.3117 5.66755   3
  16  -2  11 20.3331 10.4367   2
  16  -2  11 9.00937 13.9116   5
 -16  -2 -11 15.5441 5.06499   4
 -16  -2 -11 17.6674 6.32036   3
 -16   2 -11 17.3824 5.48943   3
  16   2  11 9.35289 11.3540   2
  18  -2  11 3.26625 9.64831   2
 -18  -2 -11 0.31375 6.21078   3
 -18   2 -11 1.12982 5.04227   3
  18   2  11 4.76109 12.8525   2
  20  -2  11 -3.7852 10.2848   2
 -20  -2 -11 0.38458 7.04724   3
 -20   2 -11 6.98368 5.30244   3
  20   2  11 2.98933 13.9760   2
 -22  -2 -11 13.7107 7.94267   3
  22  -2  11 2.60198 10.7715   2
 -22   2 -11 11.5133 5.85455   3
  24  -2  11 20.8178 11.3262   2
 -24   2 -11 22.4972 6.02582   3
  25  -3 -11 4.25528 8.69009   2
  25   3 -11 42.3191 7.39128   2
  23  -3 -11 16.4839 7.77452   2
  23   3 -11 6.31653 6.45943   2
  21  -3 -11 3.38915 7.29638   2
  21   3 -11 16.0756 6.49178   2
 -21   3  11 7.81561 9.59883   2
  19  -3 -11 9.85110 7.07815   2
  19  -3 -11 14.2997 7.58327   5
 -19   3  11 16.0294 7.35077   5
  19   3 -11 9.47407 7.99348   5
  19   3 -11 4.67948 5.75331   2
 -19   3  11 24.3396 8.52835   2
 -17  -3  11 3.52851 6.45133   5
  17  -3 -11 7.05617 5.85104   5
  17  -3 -11 2.75237 6.16515   2
  17   3 -11 7.00367 5.91651   2
 -17   3  11 4.85219 6.63506   5
 -17   3  11 0.12082 7.24438   2
  17   3 -11 -1.5251 6.04189   5
  15  -3 -11 25.6574 6.28264   5
 -15  -3  11 26.5450 7.02065   5
  15  -3 -11 17.1684 6.55291   2
 -15   3  11 30.2167 8.56749   2
 -15   3  11 20.8958 7.49376   5
  15   3 -11 30.2642 6.85448   2
  15   3 -11 21.5955 6.55703   5
 -13  -3  11 14.1680 6.45785   5
  13  -3 -11 25.5049 6.43885   2
 -13  -3  11 32.6708 12.5062   2
  13  -3 -11 28.8637 5.79117   5
  13   3 -11 12.5751 5.32640   2
 -13   3  11 30.2605 8.61492   2
  13   3 -11 14.7929 5.53594   5
 -13   3  11 31.5598 8.05408   5
  11  -3 -11 67.0239 8.59730   2
  11  -3 -11 61.5794 7.69518   5
 -11  -3  11 47.9447 8.81060   5
 -11  -3  11 62.6996 12.6925   2
  11   3 -11 49.2040 7.99518   5
  11   3 -11 53.8670 7.85934   2
 -11   3  11 69.6012 11.2224   5
 -11   3  11 61.2674 10.5915   2
  -9  -3  11 60.9213 9.80637   5
  -9  -3  11 45.5530 11.0684   2
   9  -3 -11 34.4511 6.47711   2
   9  -3 -11 39.4925 6.25210   5
   9   3 -11 57.4273 7.11819   5
   9   3 -11 57.9004 7.03853   2
  -9   3  11 29.7748 8.12211   2
  -9   3  11 40.5138 8.60134   5
  -7  -3  11 84.4378 11.0316   5
   7  -3 -11 92.8887 9.97717   4
   7  -3 -11 79.4431 9.26105   2
  -7  -3  11 75.0482 13.1178   2
   7  -3 -11 98.4192 8.40755   5
  -7   3  11 81.8142 10.9067   5
   7   3 -11 74.7974 8.58440   5
  -7   3  11 95.6882 11.7334   2
   5  -3 -11 18.2876 4.96828   4
  -5  -3  11 20.5120 8.53319   2
  -5  -3  11 14.8367 5.63093   5
   5  -3 -11 19.6016 3.60074   5
   5   3 -11 15.3121 4.13567   2
  -5   3  11 18.5322 6.15880   5
   5   3 -11 15.9894 3.54480   5
  -5   3  11 13.6360 5.97614   2
  -3  -3  11 22.7884 6.55268   5
   3  -3 -11 40.1123 6.46769   4
  -3  -3  11 26.5309 8.58155   2
  -3   3  11 36.0010 6.62253   5
   3   3 -11 20.6933 4.32860   5
   3   3 -11 20.1131 4.22941   2
  -3   3  11 32.7964 6.58624   2
   1  -3 -11 23.5277 4.82068   4
  -1  -3  11 14.2162 7.47292   2
   1  -3 -11 23.1765 3.72920   5
  -1  -3  11 16.2932 6.27241   5
  -1   3  11 14.3400 5.15364   2
  -1   3  11 22.9037 6.00303   5
   1   3 -11 10.7114 3.45807   5
   1   3 -11 13.4760 4.07959   2
  -1  -3 -11 33.5032 5.35577   4
   1  -3  11 21.1571 6.06024   5
   1  -3  11 22.2502 7.84511   2
   1   3  11 28.4989 6.33335   5
  -1   3 -11 16.8556 3.75469   5
   1   3  11 23.1891 5.81495   2
  -1   3 -11 22.1112 4.61541   2
   3  -3  11 13.4122 5.52977   5
  -3  -3 -11 14.1832 4.27374   4
   3  -3  11 16.3994 7.07916   2
   3   3  11 8.06449 5.96688   5
  -3   3 -11 4.98635 3.12704   5
  -3   3 -11 6.36126 3.82030   2
   3   3  11 9.97424 5.39403   2
   5  -3  11 20.6334 6.67497   5
   5  -3  11 13.8565 6.66183   2
  -5  -3 -11 24.6751 5.16047   4
  -5   3 -11 10.1279 3.58089   5
   5   3  11 12.6770 5.86200   2
   5   3  11 15.3704 7.22299   5
  -5   3 -11 8.52026 4.31759   2
  -7  -3 -11 55.1432 6.99425   4
   7  -3  11 73.0226 11.3745   2
   7  -3  11 54.7637 9.14746   5
  -7   3 -11 39.8821 6.54202   2
  -7   3 -11 36.5903 6.03378   5
   7   3  11 27.5029 9.68260   5
   9  -3  11 -6.0927 7.10970   5
   9  -3  11 5.77747 6.70560   2
  -9  -3 -11 2.65538 3.32398   4
  -9   3 -11 1.67849 3.17850   5
   9   3  11 -5.1007 6.69867   2
  -9   3 -11 3.83612 5.69325   2
  11  -3  11 29.0679 9.46037   2
 -11  -3 -11 24.1707 5.04964   4
  11  -3  11 40.1091 10.4714   5
 -11   3 -11 40.1551 5.72918   5
  11   3  11 37.2695 9.62593   2
 -11   3 -11 44.2263 7.02918   3
 -13  -3 -11 5.81262 12.1394   3
  13  -3  11 21.3936 9.42804   2
 -13  -3 -11 8.62718 4.26450   4
  13  -3  11 10.2545 10.0894   5
  13   3  11 6.30956 9.62691   2
 -13   3 -11 8.61835 4.89321   3
  15  -3  11 14.9527 9.05613   2
 -15  -3 -11 4.91192 3.83332   4
  15  -3  11 11.5000 12.0298   5
 -15  -3 -11 0.13256 7.55691   3
  15   3  11 -5.0004 11.7248   2
 -15   3 -11 10.2798 4.66457   3
  17  -3  11 2.96060 9.35672   2
 -17  -3 -11 7.13067 4.38463   4
  17  -3  11 -10.255 14.9489   5
 -17  -3 -11 -6.7592 7.79068   3
 -17   3 -11 7.39871 4.73514   3
  17   3  11 28.8724 14.2723   2
 -19  -3 -11 21.0636 8.94183   3
  19  -3  11 11.4421 10.5014   2
 -19   3 -11 19.6337 5.97994   3
  19   3  11 8.72310 25.3560   2
  21  -3  11 29.0085 11.2674   2
 -21  -3 -11 19.1874 9.49998   3
 -21   3 -11 19.5074 6.05320   3
  23  -3  11 27.9885 11.0009   2
 -23   3 -11 10.1055 6.19571   3
  24   4 -11 8.42085 6.38344   2
  22  -4 -11 22.8085 9.38774   2
 -22   4  11 24.6293 11.3875   2
  22   4 -11 24.2030 7.18739   2
  20  -4 -11 3.62861 8.42467   2
  20   4 -11 -3.5146 5.84991   2
 -20   4  11 0.02484 8.53780   2
  18  -4 -11 35.2874 8.93125   2
  18  -4 -11 23.1150 7.53734   5
  18   4 -11 31.4682 9.35066   5
 -18   4  11 38.3810 9.69751   2
  18   4 -11 34.7533 7.81115   2
 -18   4  11 32.3752 8.39593   5
  16  -4 -11 34.7003 7.08167   5
 -16  -4  11 15.1627 7.96588   5
  16  -4 -11 23.1248 7.86095   2
  16   4 -11 16.2212 5.71605   2
 -16   4  11 18.1375 8.13098   2
 -16   4  11 22.0904 7.60152   5
  16   4 -11 15.1938 6.75842   5
  14  -4 -11 62.3112 9.17447   2
  14  -4 -11 64.1544 8.98880   5
 -14  -4  11 49.8342 8.87848   5
 -14   4  11 73.8008 11.4032   5
  14   4 -11 51.5882 8.76415   2
 -14   4  11 66.8044 11.7040   2
  12  -4 -11 15.7922 4.85655   5
  12  -4 -11 27.7408 6.74513   2
 -12  -4  11 8.42698 6.37446   5
 -12   4  11 18.8067 7.57466   2
 -12   4  11 18.6972 7.35278   5
  12   4 -11 23.7393 5.82683   2
  12   4 -11 10.2579 4.82382   5
 -10  -4  11 124.210 14.2519   5
  10  -4 -11 125.939 12.8157   2
  10  -4 -11 126.315 11.5591   5
 -10  -4  11 121.184 17.3284   2
 -10   4  11 120.180 14.9216   5
 -10   4  11 142.182 15.9915   2
  10   4 -11 128.018 12.3191   5
  10   4 -11 132.653 12.2539   2
  -8  -4  11 10.2826 10.2972   2
   8  -4 -11 13.3073 5.99569   4
   8  -4 -11 3.89591 5.95855   2
  -8  -4  11 15.4895 6.58431   5
   8  -4 -11 13.9485 3.80454   5
   8   4 -11 19.5305 4.82064   5
  -8   4  11 12.4138 6.89304   5
  -8   4  11 14.2445 7.09318   2
   8   4 -11 9.12748 4.08523   2
   6  -4 -11 9.21699 5.07082   4
  -6  -4  11 1.41880 5.74926   5
   6  -4 -11 4.14923 2.87657   5
  -6  -4  11 2.42149 9.04722   2
   6   4 -11 -0.2282 3.04864   2
  -6   4  11 2.37263 5.85709   2
  -6   4  11 2.12261 5.65242   5
   6   4 -11 -0.4520 3.04848   5
   4  -4 -11 40.3044 6.25318   4
  -4  -4  11 34.9500 10.2393   2
   4  -4 -11 38.4240 4.94962   5
  -4  -4  11 36.9320 8.20878   5
  -4   4  11 43.4341 8.16127   2
   4   4 -11 34.5612 5.87175   5
   4   4 -11 38.4654 5.71861   2
  -4   4  11 38.1342 7.39034   5
   2  -4 -11 11.2429 4.55965   4
   2  -4 -11 9.08358 2.74941   5
  -2  -4  11 16.3542 9.23841   2
  -2  -4  11 17.1099 6.08444   5
  -2   4  11 9.08618 5.81446   5
  -2   4  11 10.9945 5.24166   2
   2   4 -11 21.1626 4.34606   5
   2   4 -11 13.1414 3.89766   2
   0  -4  11 5.07262 5.69224   5
   0  -4 -11 5.99860 3.96859   4
   0  -4  11 9.00055 7.72698   2
   0   4 -11 9.67875 3.49075   5
   0   4  11 9.49044 6.29865   5
   0   4 -11 5.93616 3.46068   2
   0   4  11 9.13304 4.99233   2
   2  -4  11 12.5981 6.66223   5
   2  -4  11 18.9688 8.22708   2
  -2  -4 -11 11.9080 4.61690   4
   2   4  11 12.6129 6.70876   5
  -2   4 -11 14.4455 4.08162   5
  -2   4 -11 7.16021 3.76922   2
   2   4  11 12.2787 5.39504   2
  -4  -4 -11 2.87377 3.56099   4
   4  -4  11 18.7902 7.17889   5
   4  -4  11 5.47162 7.55793   2
  -4   4 -11 4.52041 4.01008   2
  -4   4 -11 4.87856 3.37335   5
   4   4  11 10.7434 7.62149   5
   4   4  11 -0.6386 5.23670   2
   6  -4  11 9.42924 7.09533   5
   6  -4  11 -0.1620 7.00955   2
  -6  -4 -11 5.03842 3.82326   4
  -6   4 -11 3.74428 3.44491   5
   6   4  11 3.41013 6.14114   2
  -6   4 -11 2.04987 4.26562   2
  -8  -4 -11 17.0920 4.80421   4
   8  -4  11 14.1343 7.92610   5
   8  -4  11 19.3586 8.00229   2
  -8   4 -11 17.9921 4.37653   5
  -8   4 -11 22.9235 5.63296   2
  10  -4  11 16.5763 8.74077   5
  10  -4  11 29.4528 9.75139   2
 -10  -4 -11 13.9429 4.30453   4
 -10   4 -11 35.9661 7.15744   2
  10   4  11 21.6119 8.98192   2
 -10   4 -11 23.6006 5.03116   5
  12  -4  11 1.31315 9.82390   5
  12  -4  11 0.40268 8.30636   2
 -12  -4 -11 2.45784 3.91645   4
 -12   4 -11 1.72224 4.05850   5
 -12   4 -11 -0.0546 3.75540   3
  12   4  11 4.87830 10.0824   2
 -14  -4 -11 3.15167 4.03047   4
  14  -4  11 5.34869 8.87419   2
  14  -4  11 0.50689 10.2292   5
 -14   4 -11 -5.1282 4.48142   3
  14   4  11 13.5880 12.6923   2
 -14   4 -11 2.12686 5.69873   5
  16  -4  11 3.45015 9.65803   2
  16  -4  11 2.19994 13.0162   5
 -16  -4 -11 5.84594 4.12443   4
  16   4  11 -15.986 17.7215   2
 -16   4 -11 2.32505 4.74616   3
  18  -4  11 9.59164 9.87276   2
 -18  -4 -11 6.11868 4.70870   4
 -18   4 -11 12.6447 5.77538   3
  20  -4  11 17.9366 10.4554   2
 -20   4 -11 18.0905 6.18643   3
  22  -4  11 18.8194 10.7839   2
 -22   4 -11 9.46552 5.87533   3
  23   5 -11 6.84336 6.34520   2
  21  -5 -11 22.5295 13.0737   2
  21   5 -11 63.9772 9.95697   2
 -21   5  11 54.3399 11.2389   2
  19  -5 -11 21.2688 10.7684   2
  19   5 -11 22.9983 6.91921   2
 -19   5  11 24.0744 8.79374   2
  17  -5 -11 17.1594 7.31866   5
  17  -5 -11 23.3754 10.0825   2
 -17   5  11 32.5588 9.25657   2
  17   5 -11 17.3655 6.38173   2
  17   5 -11 17.5404 9.38329   5
 -17   5  11 22.6811 7.76733   5
  15  -5 -11 -0.7849 9.24762   2
  15  -5 -11 9.64916 6.04035   5
  15   5 -11 26.0985 6.56709   2
 -15   5  11 22.3723 8.81028   2
 -15   5  11 14.9521 7.93357   5
  15   5 -11 17.8604 7.46204   5
  13  -5 -11 29.1058 6.04233   5
  13  -5 -11 4.12154 9.97955   2
 -13  -5  11 23.2415 8.17141   5
 -13   5  11 33.5991 8.90429   2
  13   5 -11 19.7174 6.50184   5
  13   5 -11 37.1906 6.80795   2
 -13   5  11 37.2463 9.85013   5
 -11  -5  11 116.443 14.9528   5
  11  -5 -11 123.492 11.9195   5
 -11   5  11 133.500 16.5806   2
  11   5 -11 141.388 13.1011   2
  11   5 -11 143.942 13.4425   5
 -11   5  11 121.773 16.2548   5
  -9  -5  11 24.0202 8.02326   5
  -9  -5  11 -7.8405 13.9885   2
   9  -5 -11 30.5171 7.37299   4
   9  -5 -11 36.2867 5.19642   5
  -9   5  11 31.0360 8.55540   5
  -9   5  11 28.3998 8.82599   2
   9   5 -11 24.1063 5.46611   5
   9   5 -11 28.4442 5.98845   2
   7  -5 -11 59.2625 9.51383   4
  -7  -5  11 71.4554 14.7286   2
   7  -5 -11 58.1976 7.05680   5
  -7  -5  11 71.1027 12.0721   5
   7   5 -11 63.4365 8.17380   5
   7   5 -11 74.7227 8.05104   2
  -7   5  11 72.9136 11.0120   5
  -7   5  11 51.3727 10.0331   2
   5  -5 -11 53.1742 6.45607   5
  -5  -5  11 69.0692 13.8218   2
  -5  -5  11 68.9530 11.9524   5
   5  -5 -11 68.2925 8.93513   4
   5   5 -11 66.8958 7.99529   5
  -5   5  11 69.6645 10.8353   2
  -5   5  11 52.6668 9.55283   5
   5   5 -11 67.3764 7.48668   2
   3  -5 -11 131.527 12.4449   4
  -3  -5  11 144.393 15.8940   5
  -3  -5  11 119.098 18.2729   2
  -3   5  11 119.132 14.6515   5
  -3   5  11 145.759 14.5517   2
   3   5 -11 142.196 12.2516   2
   3   5 -11 144.327 12.2667   5
   1  -5 -11 57.0413 8.25878   4
  -1  -5  11 74.9192 13.6085   2
  -1  -5  11 71.3766 12.0035   5
   1   5 -11 70.4502 7.64889   2
   1   5 -11 65.8853 7.60769   5
  -1   5  11 62.4750 9.78950   2
   1  -5  11 61.9165 12.7790   2
  -1  -5 -11 56.9076 8.40355   4
   1  -5  11 75.5887 12.7350   5
   1   5  11 83.0014 10.4014   2
  -1   5 -11 85.2620 8.25899   2
  -1   5 -11 81.8400 8.25475   5
   1   5  11 53.0494 10.2105   5
   3  -5  11 218.230 20.6682   5
   3  -5  11 214.078 22.3453   2
  -3  -5 -11 190.670 17.3777   4
  -3   5 -11 209.799 17.3418   5
   3   5  11 229.734 19.0274   2
  -3   5 -11 229.167 17.6083   2
  -5  -5 -11 80.9446 9.56307   4
   5  -5  11 106.030 15.7118   2
   5  -5  11 85.5984 13.9712   5
   5   5  11 89.9431 12.1493   2
  -5   5 -11 98.1272 9.99747   2
  -5   5 -11 105.346 9.93670   5
   7  -5  11 30.9965 9.61214   5
   7  -5  11 24.9472 10.1839   2
  -7  -5 -11 19.5806 5.52590   4
  -7   5 -11 36.3782 5.94164   5
   7   5  11 33.2953 8.52492   2
  -7   5 -11 31.7515 6.21912   2
  -9  -5 -11 12.2553 4.78695   4
   9  -5  11 9.94948 8.80512   5
   9  -5  11 11.9044 9.03572   2
   9   5  11 1.50226 9.15956   2
  -9   5 -11 4.13507 5.71223   2
  -9   5 -11 7.83737 4.24553   5
  11  -5  11 3.81566 8.96258   2
 -11  -5 -11 6.65025 4.20688   4
  11  -5  11 14.5375 9.73403   5
 -11   5 -11 3.58397 4.72807   5
  11   5  11 2.46049 10.9089   2
 -11   5 -11 11.0055 7.47222   2
  13  -5  11 8.77547 11.3681   5
  13  -5  11 5.55271 9.01928   2
 -13  -5 -11 0.00986 3.43621   4
  13   5  11 -17.037 15.1850   2
 -13   5 -11 4.71413 4.93763   3
 -15  -5 -11 6.80057 4.04711   4
  15  -5  11 7.92949 9.53597   2
  15  -5  11 0.02894 12.9341   5
 -15   5 -11 -5.9239 4.72724   3
 -15   5 -11 1.77613 7.02777   5
 -17  -5 -11 -1.9403 4.33978   4
  17  -5  11 -12.104 9.30489   2
 -17   5 -11 -3.2324 4.27822   3
 -19  -5 -11 -0.0503 4.44333   4
  19  -5  11 4.28823 9.94479   2
 -19   5 -11 5.54379 4.84797   3
  21  -5  11 9.31856 10.1194   2
 -21   5 -11 11.5194 5.96852   3
  22   6 -11 29.4454 7.19986   2
 -20   6  11 18.4752 9.61321   2
  20   6 -11 20.1441 6.98604   2
 -18   6  11 6.13832 7.98452   2
  18   6 -11 11.3818 6.13446   2
  16  -6 -11 15.8137 9.73877   5
 -16   6  11 17.5318 8.41028   2
 -16   6  11 29.3309 10.2815   5
  16   6 -11 19.8221 6.41199   2
  14  -6 -11 28.4782 6.93782   5
  14   6 -11 23.6680 6.36677   2
 -14   6  11 25.7648 9.19812   2
  14   6 -11 8.17619 8.42885   5
 -14   6  11 11.7552 9.53137   5
 -12  -6  11 44.0742 11.4439   5
  12  -6 -11 70.1432 9.31757   5
 -12   6  11 70.1207 12.3409   5
  12   6 -11 57.3882 9.42574   5
 -12   6  11 69.0479 12.4725   2
  12   6 -11 76.4648 9.60810   2
 -10  -6  11 10.2305 8.66958   5
  10  -6 -11 7.13199 7.17167   4
  10   6 -11 9.02563 4.52761   2
 -10   6  11 18.6218 9.40405   5
 -10   6  11 11.8980 8.27672   2
  10   6 -11 15.9178 5.43416   5
  -8  -6  11 25.0752 8.94214   5
   8  -6 -11 32.9259 7.20367   4
   8  -6 -11 38.3981 5.26783   5
   8   6 -11 23.9161 6.02635   5
   8   6 -11 17.5439 4.95346   2
  -8   6  11 29.3463 9.14446   5
  -8   6  11 29.5265 8.99578   2
   6  -6 -11 88.1051 10.1548   4
  -6  -6  11 67.8131 11.5164   5
   6   6 -11 62.7248 9.38732   5
  -6   6  11 83.2423 12.6744   5
  -6   6  11 92.6939 12.8588   2
   6   6 -11 77.2239 8.83517   2
   4  -6 -11 6.20501 4.96099   4
  -4  -6  11 10.5459 8.40246   5
  -4  -6  11 10.5661 13.8785   2
  -4   6  11 -2.8928 5.99608   2
   4   6 -11 5.84860 3.60205   2
  -4   6  11 1.87415 8.43470   5
   4   6 -11 9.20542 4.08219   5
  -2  -6  11 100.713 17.6038   2
   2  -6 -11 118.774 11.2616   4
  -2  -6  11 100.403 15.2652   5
  -2   6  11 123.910 13.1297   2
  -2   6  11 90.6232 14.8524   5
   2   6 -11 95.2275 10.4439   5
   2   6 -11 101.629 10.2767   2
   0  -6 -11 15.2865 5.12233   4
   0  -6  11 13.8171 11.7408   2
   0  -6  11 7.37092 8.62985   5
   0   6  11 11.8259 6.55733   2
   0   6 -11 14.8029 4.56474   2
   0   6 -11 10.1733 4.41073   5
   0   6  11 17.2175 10.3629   5
   2  -6  11 117.787 16.4640   5
  -2  -6 -11 122.378 11.6293   4
   2  -6  11 116.515 18.7081   2
   2   6  11 121.336 13.4254   2
  -2   6 -11 127.785 11.5476   2
  -2   6 -11 109.238 11.1607   5
   4  -6  11 -14.335 10.0444   2
  -4  -6 -11 -0.4589 3.81076   4
   4  -6  11 -1.5733 8.11816   5
   4   6  11 0.52983 6.73932   2
  -4   6 -11 2.92422 4.20458   2
  -4   6 -11 4.79890 3.74542   5
   6  -6  11 8.13135 10.2277   2
  -6  -6 -11 17.3015 4.49752   4
   6  -6  11 17.5073 9.84032   5
  -6   6 -11 17.8727 5.45026   2
   6   6  11 14.6799 8.29403   2
  -6   6 -11 12.7633 4.53063   5
   8  -6  11 33.7274 10.7851   2
   8  -6  11 25.8751 10.6768   5
  -8  -6 -11 19.4449 5.11943   4
  -8   6 -11 12.1263 4.79814   5
  -8   6 -11 16.0479 5.73484   2
 -10  -6 -11 1.51988 4.02254   4
  10  -6  11 7.09753 9.71652   2
  10  -6  11 0.62036 9.98132   5
 -10   6 -11 -3.0110 6.35327   2
 -10   6 -11 2.34302 4.69227   5
  10   6  11 9.75993 12.1502   2
  12  -6  11 14.8052 10.5885   2
  12  -6  11 -0.3915 11.3640   5
 -12  -6 -11 6.74966 4.81816   4
 -12   6 -11 10.9511 8.96593   2
 -14  -6 -11 -0.3415 4.23116   4
  14  -6  11 0.86565 11.6370   5
  14  -6  11 7.22242 9.82033   2
 -14   6 -11 -1.7971 5.01119   3
 -14   6 -11 -4.5194 6.70697   5
  16  -6  11 28.0758 11.5837   2
 -16  -6 -11 14.3213 4.71563   4
 -16   6 -11 29.6609 6.80515   3
  18  -6  11 5.14068 10.2344   2
 -18  -6 -11 4.00426 4.44064   4
 -18   6 -11 19.0662 6.50081   3
 -20  -6 -11 1.83344 4.76772   4
  20  -6  11 25.1494 10.7074   2
 -20   6 -11 15.8665 5.77718   3
  19   7 -11 8.20088 6.44787   2
 -19   7  11 24.8469 9.69391   2
  17   7 -11 6.02536 6.25685   2
 -17   7  11 5.13071 8.77037   2
 -15   7  11 5.84156 8.63507   2
  15   7 -11 6.11071 5.78901   2
 -13   7  11 2.31630 8.70452   2
  13   7 -11 5.74756 5.23711   2
  13   7 -11 8.71553 11.7246   5
 -13   7  11 13.4155 11.4717   5
  11  -7 -11 1.45474 8.00050   4
  11   7 -11 -2.5889 7.47002   5
 -11   7  11 6.72331 8.45516   2
 -11   7  11 -10.104 11.0052   5
  11   7 -11 3.92772 5.12853   2
  -9  -7  11 5.23998 11.2257   5
   9  -7 -11 -0.3961 6.41238   4
   9   7 -11 4.26794 6.61519   5
   9   7 -11 1.38423 4.18919   2
  -9   7  11 3.79111 11.1500   5
  -9   7  11 0.95549 7.97834   2
  -7  -7  11 -0.4868 9.78096   5
   7  -7 -11 6.34583 5.92123   4
   7   7 -11 -0.4628 5.19333   5
  -7   7  11 -9.5217 10.6944   5
  -7   7  11 1.12907 7.47866   2
   7   7 -11 1.49053 4.08314   2
   5  -7 -11 33.5761 6.45708   4
  -5  -7  11 30.9707 10.6003   5
   5   7 -11 27.0890 5.51424   2
  -5   7  11 20.5122 8.14791   2
  -5   7  11 24.7565 10.8399   5
   5   7 -11 30.7997 6.28160   5
  -3  -7  11 0.43293 21.1703   2
   3  -7 -11 22.2134 5.65568   4
  -3  -7  11 12.4667 9.85917   5
   3   7 -11 24.8971 4.96943   2
  -3   7  11 7.04278 12.3267   5
   3   7 -11 13.4624 4.99237   5
  -1  -7  11 7.63779 15.5912   2
  -1  -7  11 -4.8002 9.52712   5
   1  -7 -11 7.38128 5.01493   4
   1   7 -11 4.35252 4.56094   5
   1   7 -11 7.05868 4.15445   2
  -1   7  11 13.2746 7.25234   2
  -1  -7 -11 4.71811 4.83024   4
   1  -7  11 3.87724 14.4501   2
   1  -7  11 3.89291 9.87640   5
   1   7  11 2.76066 6.93787   2
  -1   7 -11 0.59687 4.37470   5
  -1   7 -11 8.63676 4.33241   2
  -3  -7 -11 6.15701 4.50535   4
   3  -7  11 5.38055 13.0413   2
   3  -7  11 6.52023 9.98418   5
  -3   7 -11 1.04282 4.37045   2
  -3   7 -11 1.08095 4.67465   5
   3   7  11 -0.3485 7.33168   2
  -5  -7 -11 7.61150 4.54465   4
   5  -7  11 1.65731 12.8820   2
   5  -7  11 1.48353 10.6718   5
  -5   7 -11 3.04890 4.83606   2
  -5   7 -11 4.28688 4.51639   5
   5   7  11 -1.8056 8.77045   2
   7  -7  11 19.4135 11.2448   5
  -7  -7 -11 13.8382 4.69313   4
   7  -7  11 23.8905 13.1204   2
  -7   7 -11 13.1368 5.28483   5
   7   7  11 15.2570 11.1635   2
  -7   7 -11 16.1969 5.89674   2
  -9  -7 -11 24.9522 5.70127   4
   9  -7  11 14.0196 12.4360   2
   9  -7  11 13.2098 11.9669   5
  -9   7 -11 19.5610 6.70745   2
  -9   7 -11 13.0791 5.69048   5
 -11  -7 -11 5.12769 4.62003   4
  11  -7  11 -3.1034 11.7090   5
  11  -7  11 -1.6835 11.6923   2
 -11   7 -11 12.2288 7.71504   2
 -11   7 -11 -1.3783 5.51974   5
  13  -7  11 14.3749 12.1549   2
 -13  -7 -11 6.17497 4.65203   4
 -13   7 -11 10.4096 13.3437   2
  15  -7  11 7.73580 11.3578   2
 -15  -7 -11 9.98347 5.15816   4
 -15   7 -11 2.24579 5.17731   3
 -17  -7 -11 7.44597 5.08596   4
  17  -7  11 -10.073 11.2561   2
 -17   7 -11 3.89165 5.13104   3
 -19  -7 -11 9.58877 5.17824   4
  19  -7  11 3.12358 12.1113   2
 -19   7 -11 14.2297 5.93893   3
  18   8 -11 -1.1435 6.43986   2
 -18   8  11 7.09905 9.82339   2
 -16   8  11 8.22135 10.1152   2
  16   8 -11 3.45566 6.21862   2
  14   8 -11 2.51337 5.68677   2
 -14   8  11 4.24529 9.39291   2
  12  -8 -11 12.5360 9.41660   4
 -12   8  11 3.88866 9.61031   2
  12   8 -11 3.28408 5.41667   2
  10  -8 -11 -5.9127 7.46732   4
 -10   8  11 12.5855 9.47887   2
  10   8 -11 4.95484 5.00913   2
   8  -8 -11 45.2018 8.45774   4
  -8   8  11 60.5860 12.0032   2
   8   8 -11 58.0118 8.75914   2
   8   8 -11 34.2014 9.19602   5
  -8   8  11 35.9492 15.6701   5
  -6  -8  11 6.16429 14.0649   5
   6  -8 -11 6.88551 6.17566   4
  -6   8  11 7.08136 8.76431   2
   6   8 -11 0.53471 4.58069   2
   6   8 -11 3.70304 6.48547   5
  -4  -8  11 66.5527 14.2932   5
   4  -8 -11 68.7184 9.84800   4
  -4   8  11 77.6034 13.1238   2
   4   8 -11 77.4743 10.9326   5
   4   8 -11 79.7420 9.40222   2
   2  -8 -11 106.092 12.0347   4
  -2  -8  11 95.2689 16.2191   5
   2   8 -11 115.751 12.7544   5
   2   8 -11 140.583 12.1878   2
  -2   8  11 122.433 14.6913   2
   0  -8  11 26.4225 12.6621   5
   0  -8 -11 20.9230 5.68130   4
   0   8  11 28.9622 8.83371   2
   0   8 -11 33.8913 6.53738   2
   0   8 -11 43.1257 7.61437   5
   2  -8  11 68.5495 21.6878   2
   2  -8  11 90.3453 15.5295   5
  -2  -8 -11 75.3035 10.2838   4
   2   8  11 83.8520 13.8114   2
  -2   8 -11 117.192 10.8041   2
  -2   8 -11 93.1770 11.0584   5
   4  -8  11 67.7116 19.3252   2
   4  -8  11 41.6089 13.8725   5
  -4   8 -11 65.3313 9.92346   5
  -4   8 -11 60.5636 8.88540   2
   4   8  11 53.0036 11.5265   2
   6  -8  11 47.7258 17.1514   2
  -6  -8 -11 31.5365 6.45947   4
   6  -8  11 31.6149 13.5758   5
  -6   8 -11 39.2435 7.59031   2
   6   8  11 36.8145 16.4250   2
  -6   8 -11 40.5852 7.66063   5
   8  -8  11 13.7917 15.1495   2
  -8  -8 -11 11.2661 4.78637   4
   8  -8  11 5.76154 12.7404   5
  -8   8 -11 13.9136 6.57093   2
  -8   8 -11 17.1942 6.85542   5
 -10  -8 -11 0.96868 5.12718   4
  10  -8  11 1.42518 14.2293   2
 -10   8 -11 6.48676 7.46971   2
 -12  -8 -11 0.77703 5.02349   4
  12  -8  11 12.3722 14.3708   2
 -12   8 -11 -2.1195 9.55527   2
 -14  -8 -11 1.42759 4.32636   4
  14  -8  11 14.1132 13.9028   2
 -14   8 -11 1.19977 4.29441   3
 -16  -8 -11 5.04880 4.71509   4
  16  -8  11 18.0624 13.8920   2
 -16   8 -11 7.13429 4.72655   3
 -15   9  11 22.8398 11.7052   2
  15   9 -11 7.41045 6.98646   2
 -13   9  11 19.9169 11.1905   2
  13   9 -11 6.73546 6.32885   2
  11  -9 -11 26.4353 9.57128   4
  11   9 -11 9.85214 6.14451   2
 -11   9  11 9.50408 10.4904   2
   9  -9 -11 40.7345 8.81825   4
   9   9 -11 30.2005 6.77411   2
  -9   9  11 28.1833 11.5455   2
   7  -9 -11 4.33302 6.65750   4
  -7   9  11 19.5038 9.98577   2
   7   9 -11 7.14204 5.84421   2
   5  -9 -11 32.9532 7.50935   4
  -5   9  11 37.2323 11.1308   2
   5   9 -11 36.9616 6.98521   2
   3  -9 -11 14.2884 5.94648   4
   3   9 -11 7.89644 5.88656   2
  -3   9  11 0.08197 8.93796   2
   1  -9 -11 69.3664 9.31223   4
   1   9 -11 67.9970 9.50270   2
  -1   9  11 65.4357 11.7523   2
  -1  -9 -11 19.5369 5.81390   4
   1   9  11 17.4611 10.5144   2
  -1   9 -11 16.7088 5.84605   2
  -3  -9 -11 47.2341 7.61191   4
  -3   9 -11 38.4396 7.01959   2
   3   9  11 34.1658 12.4361   2
  -5  -9 -11 21.4037 6.00777   4
  -5   9 -11 27.4932 6.95254   2
  -7  -9 -11 18.9066 6.14211   4
  -7   9 -11 28.2201 7.14975   2
  -9  -9 -11 -2.9121 4.54207   4
  -9   9 -11 4.68893 7.24735   2
 -11  -9 -11 -2.7177 4.75997   4
 -11   9 -11 17.0863 9.17988   2
 -13  -9 -11 1.31805 4.89417   4
 -13   9 -11 8.46977 6.36608   3
 -15  -9 -11 7.87491 4.91438   4
  12  10 -11 1.12185 7.24327   2
 -10  10  11 2.74506 11.7516   2
  10  10 -11 6.13998 6.98506   2
   8 -10 -11 -2.1015 7.96405   4
  -8  10  11 11.1377 11.4025   2
   8  10 -11 -4.1143 6.62160   2
   6 -10 -11 5.59638 6.77957   4
   6  10 -11 3.56409 6.34963   2
  -6  10  11 -1.9314 10.5771   2
   4 -10 -11 3.40245 6.28327   4
  -4  10  11 0.58958 10.3490   2
   4  10 -11 -3.2845 5.99362   2
   2 -10 -11 17.0445 6.39215   4
   2  10 -11 8.98197 6.16805   2
  -2  10  11 11.5410 11.2328   2
   0 -10 -11 7.18648 5.31574   4
   0  10 -11 2.39636 5.88209   2
  -2 -10 -11 8.04609 5.05146   4
  -2  10 -11 2.68310 6.17711   2
  -4 -10 -11 31.7368 6.74297   4
  -4  10 -11 21.4805 6.98908   2
  -6 -10 -11 -1.7278 5.26885   4
  -6  10 -11 10.9463 7.07354   2
  -8 -10 -11 12.9442 6.11108   4
  -8  10 -11 26.6118 8.18456   2
 -10 -10 -11 5.13477 5.68907   4
   5  11 -11 29.4350 8.39573   2
   3 -11 -11 13.2376 6.96483   4
   3  11 -11 24.4236 7.56997   2
   1  11 -11 40.6598 8.22713   2
  -1 -11 -11 51.8894 9.04249   4
  -1  11 -11 82.4448 11.0855   2
  -3 -11 -11 5.76663 6.13813   4
  -3  11 -11 9.17317 7.80113   2
  -5 -11 -11 15.4354 7.41617   4
  24   0 -12 79.6806 12.6700   2
  22   0 -12 21.0250 7.74257   2
  20   0 -12 15.9217 7.53692   2
  18   0 -12 61.5298 9.65625   2
 -18   0  12 55.9786 9.62458   5
 -18   0  12 56.8933 12.8162   2
  18   0 -12 39.0138 9.41212   5
  16   0 -12 157.545 15.7122   5
 -16   0  12 151.663 18.2431   2
  16   0 -12 153.854 15.2527   2
 -16   0  12 147.817 16.4390   5
 -14   0  12 79.0069 11.4534   5
  14   0 -12 62.2864 9.77367   5
  14   0 -12 71.9319 10.0077   2
 -14   0  12 77.5910 12.8122   2
 -12   0  12 206.319 19.8950   2
 -12   0  12 173.582 18.6793   5
  12   0 -12 195.832 16.9839   2
  12   0 -12 206.304 17.0652   5
 -10   0  12 56.9231 9.99673   5
 -10   0  12 71.9063 11.7954   2
  10   0 -12 72.0818 8.67814   2
  10   0 -12 69.9238 8.25381   5
  -8   0  12 69.1974 10.2705   5
   8   0 -12 54.6800 7.18765   5
   8   0 -12 59.1273 7.68907   2
  -8   0  12 59.3525 10.4253   2
  -6   0  12 37.5565 7.50282   5
   6   0 -12 34.3301 5.69496   5
   6   0 -12 41.6893 6.14435   2
  -6   0  12 31.2478 7.93268   2
   4   0 -12 73.5836 7.81343   5
  -4   0  12 78.3997 10.3478   5
   4   0 -12 79.4153 8.46303   2
  -4   0  12 82.4900 11.3821   2
  -2   0  12 6.74069 5.04924   5
  -2   0  12 3.79033 5.35687   2
   2   0 -12 4.20238 2.78782   5
   2   0 -12 2.73739 3.69993   2
   0   0 -12 159.088 13.2628   4
   0   0 -12 149.627 13.1758   2
   0   0 -12 142.914 12.4204   5
   0   0  12 168.005 14.9293   5
  -2   0 -12 16.6288 3.35953   5
   2   0  12 15.4644 5.84058   5
  -2   0 -12 -2.9227 5.33347   2
  -2   0 -12 9.31429 4.68934   4
  -4   0 -12 26.6180 4.64242   5
   4   0  12 17.1808 6.58927   2
   4   0  12 34.4478 7.60227   5
  -4   0 -12 37.3519 5.98470   4
  -6   0 -12 36.5110 5.17844   5
  -6   0 -12 45.9071 6.82237   4
   6   0  12 37.4531 8.58354   2
   6   0  12 39.4801 8.99604   5
   8   0  12 72.6176 12.6618   5
  -8   0 -12 62.9829 7.08511   5
   8   0  12 85.7467 12.4514   2
  10   0  12 7.13228 9.76298   5
  10   0  12 7.32846 7.69230   2
  12   0  12 63.1878 11.4444   2
  12   0  12 25.0761 13.7413   5
 -12   0 -12 68.1725 8.55686   3
  14   0  12 4.86779 9.76037   2
 -14   0 -12 14.3451 6.45193   3
  16   0  12 3.93930 10.4372   2
 -16   0 -12 18.1124 6.37895   3
 -18   0 -12 15.1305 6.31439   3
  18   0  12 2.27187 11.5499   2
 -20   0 -12 30.2475 7.77391   3
  20   0  12 18.7743 12.1371   2
  22   0  12 4.29640 12.6229   2
 -22   0 -12 11.7933 10.3030   3
  25  -1 -12 -2.4127 10.3274   2
  25   1 -12 -2.3816 7.08662   2
  23  -1 -12 5.11928 7.47706   2
  23   1 -12 -1.5672 6.82115   2
  21  -1 -12 7.64715 7.24181   2
  21   1 -12 -4.9677 6.64233   2
  19  -1 -12 0.92556 7.02609   5
 -19  -1  12 8.43808 7.70169   5
  19  -1 -12 11.5946 7.02711   2
  19   1 -12 3.12137 6.40478   2
  19   1 -12 1.39349 8.22330   5
 -19   1  12 2.88866 11.0432   2
 -19   1  12 9.20815 7.60408   5
  17  -1 -12 4.74168 6.25384   2
 -17  -1  12 0.74667 6.52104   5
  17  -1 -12 -1.6729 6.11667   5
  17   1 -12 13.6704 7.32092   5
 -17   1  12 2.34798 6.67884   5
  17   1 -12 6.64447 6.40149   2
 -17   1  12 0.14663 8.81814   2
  15  -1 -12 19.4024 6.21327   5
  15  -1 -12 26.2723 6.70555   2
 -15  -1  12 22.0660 7.52874   5
 -15   1  12 22.8221 8.09277   5
  15   1 -12 34.0473 7.35955   2
  15   1 -12 24.3277 7.13619   5
 -15   1  12 17.3809 8.68042   2
  13  -1 -12 32.5199 6.18093   5
 -13  -1  12 31.5917 7.91092   5
  13  -1 -12 35.3180 6.97569   2
 -13   1  12 37.1804 9.46317   2
  13   1 -12 28.9848 6.45781   2
 -13   1  12 36.6270 8.46481   5
  13   1 -12 25.9682 5.98079   5
 -11  -1  12 73.7431 11.9184   5
 -11  -1  12 78.5336 13.1014   2
  11  -1 -12 77.8824 9.35083   2
  11  -1 -12 70.0393 8.87066   5
  11   1 -12 74.3001 9.02626   5
  11   1 -12 87.2070 9.36302   2
 -11   1  12 66.5294 10.8264   5
 -11   1  12 77.7397 12.6398   2
  -9  -1  12 54.4022 9.34787   5
   9  -1 -12 49.4911 6.83143   5
  -9  -1  12 56.2992 10.4093   2
   9  -1 -12 38.5537 6.40461   2
  -9   1  12 53.0972 9.36484   5
  -9   1  12 39.1569 9.20827   2
   9   1 -12 50.8185 7.20986   2
   9   1 -12 42.1566 6.81912   5
  -7  -1  12 10.2747 6.78893   2
   7  -1 -12 13.3723 4.08356   5
  -7  -1  12 17.6085 6.21799   5
   7  -1 -12 9.43631 4.40425   2
  -7   1  12 18.6514 6.67406   5
   7   1 -12 14.4699 4.33339   2
   7   1 -12 19.0175 4.61383   5
  -7   1  12 12.2025 6.09395   2
   5  -1 -12 12.6134 4.74890   2
   5  -1 -12 17.1377 3.91088   5
  -5  -1  12 23.4456 6.80299   5
  -5   1  12 19.1697 6.44235   5
  -5   1  12 19.9926 7.07544   2
   5   1 -12 27.8482 4.88740   5
   5   1 -12 21.6472 4.65009   2
  -3  -1  12 5.00277 4.79563   5
   3  -1 -12 -6.3471 3.90188   2
   3  -1 -12 1.25172 2.73996   5
   3   1 -12 2.91939 3.52247   2
  -3   1  12 1.47734 4.95892   5
  -3   1  12 0.99478 4.71290   2
   3   1 -12 1.90963 2.71873   5
  -1  -1  12 58.5344 8.91290   5
   1  -1 -12 31.9512 6.11343   4
   1  -1 -12 33.6267 4.98422   5
   1   1 -12 45.7278 5.57709   5
  -1   1  12 34.6876 7.17434   5
  -1   1  12 35.3071 7.24084   2
   1   1 -12 46.9377 6.55979   2
   1  -1  12 67.9222 10.4682   2
   1  -1  12 64.5286 9.43778   5
  -1  -1 -12 52.6777 5.92663   5
  -1  -1 -12 57.2325 8.10889   4
   1   1  12 52.2729 8.70382   5
   1   1  12 60.0496 9.51504   2
  -1   1 -12 57.6509 6.35951   5
  -1   1 -12 56.7346 7.43361   2
   3  -1  12 10.9313 6.70645   2
  -3  -1 -12 18.3970 5.32874   4
  -3  -1 -12 17.3238 3.39423   5
   3  -1  12 20.7603 6.30474   5
  -3   1 -12 16.4652 5.09781   2
   3   1  12 19.1552 6.37829   5
  -3   1 -12 16.6092 3.72701   5
  -5  -1 -12 57.8183 6.30569   5
   5  -1  12 66.6830 11.1850   2
   5  -1  12 60.4807 10.4785   5
  -5  -1 -12 79.0994 8.40281   4
   5   1  12 71.4385 10.5488   2
   5   1  12 63.3118 10.6230   5
  -5   1 -12 57.0266 6.60299   5
   7  -1  12 18.9632 7.83196   2
   7  -1  12 10.1928 6.97857   5
   7   1  12 24.1123 7.90860   2
  -7   1 -12 17.7919 3.74695   5
   7   1  12 23.6542 8.74127   5
  -7   1 -12 16.2875 6.60039   3
   9  -1  12 11.8989 8.47682   5
   9  -1  12 9.52326 7.55613   2
  -9  -1 -12 24.9735 5.46556   4
   9   1  12 18.2554 7.78627   2
  -9   1 -12 12.0969 3.98266   5
  -9   1 -12 15.7496 6.13076   3
   9   1  12 -8.3235 9.61711   5
  11  -1  12 11.9851 10.8666   5
 -11  -1 -12 9.46096 8.97224   3
 -11  -1 -12 14.7667 5.08705   4
  11  -1  12 18.3625 8.13886   2
 -11   1 -12 10.9629 5.82655   3
  11   1  12 6.58434 8.30021   2
  11   1  12 5.35882 13.0545   5
  13  -1  12 4.48964 8.95106   2
 -13  -1 -12 3.62124 6.69695   3
  13  -1  12 -3.8940 12.6165   5
 -13  -1 -12 15.2246 4.88128   4
 -13   1 -12 4.78129 5.77582   3
  13   1  12 2.14534 8.97888   2
  15  -1  12 19.0065 10.8644   2
  15  -1  12 -7.8147 17.4386   5
 -15  -1 -12 10.6767 6.79619   3
  15   1  12 5.97735 10.5283   2
 -15   1 -12 7.45291 6.05562   3
  17  -1  12 4.41905 10.7473   2
 -17  -1 -12 20.8204 7.51403   3
 -17   1 -12 20.4596 6.38593   3
  17   1  12 22.1193 12.2837   2
  19  -1  12 42.2263 12.1505   2
 -19  -1 -12 22.9112 8.46834   3
  19   1  12 23.1445 12.5406   2
 -19   1 -12 32.9289 7.03613   3
 -21  -1 -12 -5.7252 9.14461   3
  21  -1  12 15.5197 11.5194   2
 -21   1 -12 10.4758 6.27382   3
  21   1  12 -9.0080 13.9009   2
  24  -2 -12 1.02712 8.25841   2
  24   2 -12 7.91936 6.93899   2
  22  -2 -12 0.45864 7.69855   2
  22   2 -12 -3.2386 6.46430   2
  20  -2 -12 3.33883 7.29911   2
 -20   2  12 6.46423 11.4626   2
  20   2 -12 1.79075 6.34095   2
  18  -2 -12 -4.0290 6.34909   5
 -18  -2  12 4.05391 7.74288   5
  18  -2 -12 3.16641 6.85368   2
  18   2 -12 -1.0561 6.01269   2
  18   2 -12 -7.7535 7.04703   5
 -18   2  12 -1.5841 7.12423   5
 -18   2  12 16.5920 9.13517   2
  16  -2 -12 10.8518 6.22025   5
 -16  -2  12 0.94432 6.87647   5
  16  -2 -12 8.32080 6.24032   2
  16   2 -12 8.43779 5.72676   2
 -16   2  12 10.2381 7.89408   2
 -16   2  12 10.1915 7.33445   5
  16   2 -12 12.7034 6.58372   5
  14  -2 -12 5.34290 4.99561   5
  14  -2 -12 13.0032 6.15140   2
 -14  -2  12 9.20372 6.71041   5
 -14  -2  12 1.72042 12.7793   2
  14   2 -12 6.05748 5.05497   5
 -14   2  12 15.5960 7.67565   2
 -14   2  12 3.18264 6.68620   5
  14   2 -12 9.37064 5.34264   2
 -12  -2  12 17.3799 11.0210   2
 -12  -2  12 3.74594 6.40329   5
  12  -2 -12 3.33761 5.18027   2
  12  -2 -12 7.69805 4.44798   5
 -12   2  12 6.50708 7.38018   2
 -12   2  12 11.3021 6.63491   5
  12   2 -12 11.8400 4.98012   2
  12   2 -12 6.90603 4.30886   5
  10  -2 -12 -2.6156 4.68715   2
 -10  -2  12 1.68192 5.87699   5
 -10  -2  12 14.9135 9.97645   2
  10  -2 -12 -1.1226 3.63003   5
  10   2 -12 -1.8022 3.90374   2
 -10   2  12 3.59584 6.29330   2
  10   2 -12 -1.7071 3.87884   5
 -10   2  12 -1.5586 6.14932   5
   8  -2 -12 30.8031 5.98037   2
  -8  -2  12 38.5086 10.6600   2
  -8  -2  12 31.0944 7.37493   5
   8  -2 -12 22.7886 4.69385   5
   8   2 -12 29.6619 5.04796   5
   8   2 -12 33.5421 5.89987   2
  -8   2  12 30.5558 7.65466   5
  -8   2  12 24.9377 7.76339   2
  -6  -2  12 64.8547 10.4196   5
   6  -2 -12 61.9209 7.20579   5
   6  -2 -12 63.5957 8.39921   2
  -6  -2  12 61.5877 11.4309   2
   6   2 -12 63.0224 7.79289   2
  -6   2  12 77.7897 11.0679   2
   6   2 -12 62.7113 7.64872   5
  -6   2  12 70.5700 10.4082   5
  -4  -2  12 -0.9570 5.31043   5
   4  -2 -12 2.45462 2.80582   5
   4  -2 -12 1.05017 4.58962   2
  -4  -2  12 3.00215 7.12216   2
   4  -2 -12 -0.6467 5.39272   4
  -4   2  12 0.33385 4.58357   2
   4   2 -12 4.52169 3.52042   2
  -4   2  12 -1.1999 5.12569   5
   4   2 -12 1.47671 2.93301   5
   2  -2 -12 11.8848 3.10837   5
  -2  -2  12 1.69436 7.04987   2
   2  -2 -12 15.4702 5.34750   4
  -2  -2  12 7.29198 5.61717   5
  -2   2  12 8.16695 5.68428   5
   2   2 -12 5.01496 3.10975   5
   2   2 -12 5.50050 3.86099   2
  -2   2  12 10.7513 4.99476   2
   0  -2  12 10.8483 7.20251   2
   0  -2  12 10.5017 6.09638   5
   0  -2 -12 8.31562 2.80204   5
   0  -2 -12 14.5674 5.25018   4
   0   2 -12 10.4813 3.48205   5
   0   2 -12 7.57715 3.97065   2
   0   2  12 8.59588 5.42871   2
   0   2  12 7.92787 5.84048   5
   2  -2  12 4.39132 5.79217   5
  -2  -2 -12 3.70325 4.39748   4
  -2  -2 -12 4.92245 2.67814   5
   2  -2  12 3.24925 6.58885   2
  -2   2 -12 1.49908 3.92859   2
   2   2  12 -1.8164 4.86487   2
  -2   2 -12 -0.0811 2.78404   5
   2   2  12 2.46027 5.73867   5
   4  -2  12 7.62879 6.22645   5
   4  -2  12 4.81039 6.47689   2
  -4  -2 -12 5.41725 4.12051   4
   4   2  12 4.29019 5.20861   2
   4   2  12 8.99453 6.76163   5
  -4   2 -12 8.17683 4.81678   2
  -4   2 -12 6.04035 3.22357   5
   6  -2  12 14.7099 7.19875   5
  -6  -2 -12 17.2336 4.69826   4
   6  -2  12 23.4632 8.06324   2
   6   2  12 13.7114 6.62111   2
  -6   2 -12 -1.4296 5.84310   2
  -6   2 -12 32.3531 6.35358   3
  -6   2 -12 25.8455 4.40113   5
   6   2  12 13.5307 8.19959   5
  -8  -2 -12 11.7474 4.21719   4
   8  -2  12 11.6363 7.38734   2
   8  -2  12 10.1280 7.87953   5
   8   2  12 7.32305 10.4103   5
  -8   2 -12 8.85449 5.60290   3
  -8   2 -12 9.30837 3.64037   5
   8   2  12 4.13517 7.29249   2
  10  -2  12 160.873 18.6134   5
 -10  -2 -12 163.342 14.1031   4
  10  -2  12 198.310 18.4023   2
 -10   2 -12 147.170 13.2807   5
  10   2  12 138.631 17.3222   2
  12  -2  12 6.26925 11.0406   5
 -12  -2 -12 27.0478 5.46862   4
  12  -2  12 16.7739 9.32216   2
 -12   2 -12 5.86871 7.36700   5
  12   2  12 24.4798 10.0236   2
 -12   2 -12 19.1234 6.07851   3
 -14  -2 -12 11.7119 5.03094   4
  14  -2  12 7.92130 14.1139   5
  14  -2  12 9.36444 9.55799   2
  14   2  12 0.79338 9.92735   2
 -14   2 -12 14.0839 5.72127   3
  16  -2  12 9.75806 10.4380   2
  16  -2  12 21.2424 17.3991   5
 -16   2 -12 12.6661 6.06691   3
  16   2  12 15.5632 11.9591   2
  18  -2  12 16.0549 10.9903   2
  18   2  12 30.9524 14.3923   2
 -18   2 -12 18.5318 6.48402   3
  20  -2  12 18.4613 11.2639   2
 -20   2 -12 15.7671 6.55526   3
  20   2  12 27.8661 15.8402   2
  22  -2  12 8.48925 11.4465   2
 -22   2 -12 -5.0808 6.51200   3
  23  -3 -12 1.10029 10.6615   2
  23   3 -12 21.7710 7.25726   2
  21  -3 -12 33.2532 9.35001   2
 -21   3  12 14.8069 12.5675   2
  21   3 -12 19.8993 7.44176   2
  19  -3 -12 27.7142 9.06798   2
  19   3 -12 32.5460 8.25747   2
 -19   3  12 40.7678 10.1670   2
 -17  -3  12 73.2241 12.6125   5
  17  -3 -12 70.5709 10.3224   5
  17  -3 -12 80.2185 12.0208   2
  17   3 -12 86.6269 11.0181   2
 -17   3  12 94.0624 13.8790   2
  17   3 -12 48.7150 9.46607   5
 -17   3  12 55.1710 10.6704   5
  15  -3 -12 58.6394 9.39278   5
 -15  -3  12 43.4388 8.80605   5
  15  -3 -12 55.9573 9.14162   2
  15   3 -12 46.8328 8.51785   5
 -15   3  12 54.2373 10.3038   5
 -15   3  12 55.2177 10.6680   2
  15   3 -12 49.3618 8.46040   2
  13  -3 -12 161.568 15.8219   2
 -13  -3  12 140.109 24.5819   2
  13  -3 -12 158.869 14.8818   5
 -13  -3  12 167.437 17.1075   5
 -13   3  12 153.980 18.1433   5
  13   3 -12 171.623 15.8867   5
  13   3 -12 182.638 15.7519   2
 -13   3  12 170.533 18.7803   2
  11  -3 -12 212.966 17.8639   5
  11  -3 -12 196.783 18.6220   2
 -11  -3  12 214.499 24.5808   2
 -11  -3  12 220.723 20.4580   5
  11   3 -12 237.319 18.7006   2
 -11   3  12 231.339 21.7576   2
 -11   3  12 208.959 21.3489   5
  11   3 -12 221.654 18.5879   5
  -9  -3  12 140.253 18.8499   2
   9  -3 -12 102.109 12.4689   2
   9  -3 -12 114.241 11.3350   5
  -9  -3  12 135.372 14.8152   5
  -9   3  12 127.792 15.5994   2
   9   3 -12 141.503 12.3656   5
  -9   3  12 100.375 14.9448   5
   9   3 -12 149.898 12.5257   2
  -7  -3  12 45.1859 12.3691   2
  -7  -3  12 45.8368 9.29700   5
   7  -3 -12 40.2909 6.31718   5
  -7   3  12 40.2769 8.92083   5
   7   3 -12 48.6672 6.96825   2
  -7   3  12 38.2551 8.63444   2
   7   3 -12 52.3705 7.00747   5
   5  -3 -12 28.5041 6.88953   4
  -5  -3  12 35.6453 7.89943   5
  -5  -3  12 29.3633 10.8434   2
   5  -3 -12 30.9455 4.83734   5
   5   3 -12 49.6892 6.42817   2
  -5   3  12 42.6400 8.44406   2
  -5   3  12 34.4741 8.07975   5
  -3  -3  12 11.9231 6.30186   5
  -3  -3  12 7.87864 8.51062   2
   3  -3 -12 9.66084 3.29187   5
   3  -3 -12 14.0785 5.67527   4
   3   3 -12 24.9377 4.60499   5
  -3   3  12 13.8368 6.07355   2
   3   3 -12 19.4327 4.64181   2
  -3   3  12 17.1362 6.65147   5
   1  -3 -12 7.98289 3.02098   5
  -1  -3  12 8.72837 5.98007   5
  -1  -3  12 19.6956 8.75523   2
   1  -3 -12 9.54742 5.08660   4
  -1   3  12 8.44604 6.41222   5
  -1   3  12 5.08715 5.09190   2
   1   3 -12 8.42464 3.38212   5
   1   3 -12 18.9232 4.60463   2
   1  -3  12 34.1537 8.12974   5
   1  -3  12 47.7076 10.1800   2
  -1  -3 -12 39.3701 6.43592   4
   1   3  12 36.2416 8.18382   5
  -1   3 -12 40.9662 6.07323   5
   1   3  12 49.7656 8.71142   2
  -1   3 -12 42.5833 6.70865   2
   3  -3  12 15.8217 6.55591   5
   3  -3  12 10.6039 7.73890   2
  -3  -3 -12 7.78506 4.27674   4
  -3   3 -12 2.68768 4.05798   2
   3   3  12 -3.1961 7.21392   5
   3   3  12 12.2320 6.10374   2
  -3   3 -12 5.36757 3.45867   5
   5  -3  12 7.45266 7.36173   5
   5  -3  12 2.50129 6.85851   2
  -5  -3 -12 6.30006 3.99247   4
  -5   3 -12 11.4595 5.33409   2
   5   3  12 12.5467 8.75031   5
  -5   3 -12 6.96208 3.54527   5
   5   3  12 4.39048 6.13470   2
   7  -3  12 33.4426 9.53059   2
  -7  -3 -12 26.4244 5.16425   4
   7  -3  12 39.1659 9.29592   5
  -7   3 -12 34.6928 5.83975   5
   7   3  12 29.5356 8.31521   2
  -7   3 -12 20.1809 6.57568   2
   9  -3  12 -5.5227 7.35429   2
   9  -3  12 13.9915 8.73158   5
  -9  -3 -12 -3.8307 3.99110   4
   9   3  12 1.75406 7.78098   2
  -9   3 -12 2.05557 3.80397   5
  -9   3 -12 4.22593 5.03151   3
  11  -3  12 0.43707 9.55132   5
 -11  -3 -12 4.94453 4.28411   4
  11  -3  12 3.93207 8.36408   2
  11   3  12 16.1991 9.22977   2
 -11   3 -12 7.58785 5.74357   3
 -11   3 -12 4.67230 4.48216   5
  13  -3  12 6.20023 9.10214   2
  13  -3  12 -12.430 11.1040   5
 -13  -3 -12 4.65494 4.32409   4
 -13   3 -12 -5.9421 6.53509   5
 -13   3 -12 -0.9373 5.28113   3
  13   3  12 1.40610 10.1433   2
  15  -3  12 3.90360 9.60153   2
 -15  -3 -12 0.00966 4.38698   4
  15  -3  12 22.1590 14.0594   5
 -15   3 -12 1.80568 5.52318   3
  15   3  12 -6.4838 13.0530   2
 -17  -3 -12 2.20926 4.66660   4
  17  -3  12 -11.169 9.82335   2
 -17   3 -12 3.86062 5.92838   3
  19  -3  12 12.5833 10.8301   2
 -19   3 -12 8.80138 6.29357   3
  21  -3  12 21.2381 11.5868   2
 -21   3 -12 22.8644 6.77872   3
  22   4 -12 8.31255 6.75598   2
  20  -4 -12 10.8003 11.0692   2
 -20   4  12 19.6069 9.89406   2
  20   4 -12 13.5139 7.27901   2
  18  -4 -12 17.4035 10.2211   2
  18   4 -12 12.3701 6.59561   2
 -18   4  12 15.1498 8.71044   2
  16  -4 -12 23.7648 9.66023   2
  16  -4 -12 27.4258 7.54440   5
 -16  -4  12 19.3688 10.1119   5
 -16   4  12 14.7503 9.04342   5
  16   4 -12 22.5141 6.94319   2
  16   4 -12 38.0332 8.74101   5
 -16   4  12 32.0931 10.1252   2
 -14  -4  12 41.3139 9.81738   5
  14  -4 -12 45.4564 7.88133   5
  14  -4 -12 44.0328 9.91311   2
 -14   4  12 52.6316 11.2976   5
 -14   4  12 77.4486 12.5345   2
  14   4 -12 65.8603 9.72728   5
  14   4 -12 58.3957 9.44707   2
  12  -4 -12 39.7364 6.55593   5
 -12  -4  12 29.9544 8.66043   5
  12  -4 -12 25.8814 8.83952   2
  12   4 -12 43.1575 7.65569   5
 -12   4  12 40.4161 10.1243   5
  12   4 -12 45.3922 7.77391   2
 -12   4  12 40.4762 10.0713   2
 -10  -4  12 110.506 14.5294   5
 -10  -4  12 113.013 18.0379   2
  10  -4 -12 103.793 10.9698   5
 -10   4  12 95.3686 15.1484   5
  10   4 -12 133.783 12.1362   2
  10   4 -12 106.866 11.7151   5
 -10   4  12 148.258 16.3035   2
  -8  -4  12 32.4568 8.65671   5
  -8  -4  12 26.8287 13.0016   2
   8  -4 -12 31.6097 5.15775   5
   8   4 -12 28.3876 5.77038   5
  -8   4  12 20.4646 8.43582   2
  -8   4  12 35.6327 9.26757   5
   8   4 -12 32.9070 6.32295   2
  -6  -4  12 27.9635 11.4529   2
   6  -4 -12 24.6709 7.18192   4
  -6  -4  12 27.4107 8.46359   5
   6  -4 -12 26.6819 4.57141   5
   6   4 -12 33.2679 5.99797   2
  -6   4  12 14.5062 8.35196   5
  -6   4  12 22.4138 7.67786   2
   6   4 -12 31.8997 5.78306   5
   4  -4 -12 4.77841 3.21193   5
  -4  -4  12 6.66847 6.78716   5
   4  -4 -12 6.50194 5.84381   4
  -4  -4  12 8.58150 10.5844   2
   4   4 -12 9.00878 3.67506   5
   4   4 -12 12.0232 4.14690   2
  -4   4  12 12.5300 6.13799   2
  -4   4  12 -5.5441 6.56030   5
  -2  -4  12 53.4551 11.9835   2
  -2  -4  12 38.3630 8.51857   5
   2  -4 -12 47.6750 7.28047   4
   2   4 -12 40.6582 6.33196   5
   2   4 -12 39.1567 6.50128   2
  -2   4  12 24.5913 7.96737   5
  -2   4  12 41.2996 8.37382   2
   0  -4  12 0.86239 6.60626   5
   0  -4  12 16.3670 9.76742   2
   0  -4 -12 4.49216 4.80201   4
   0   4 -12 13.2227 4.12646   5
   0   4 -12 13.4230 4.39190   2
   0   4  12 2.34238 7.19052   5
   0   4  12 2.80193 5.35657   2
   2  -4  12 11.4786 7.25803   5
   2  -4  12 4.19401 8.62353   2
  -2  -4 -12 5.74687 4.33742   4
  -2   4 -12 20.1047 4.96435   2
  -2   4 -12 16.1479 4.36625   5
   2   4  12 3.29402 8.37813   5
   2   4  12 11.6590 6.29941   2
   4  -4  12 75.4366 12.4395   5
   4  -4  12 71.9591 12.5510   2
  -4  -4 -12 75.5246 8.58795   4
   4   4  12 36.3457 11.7227   5
  -4   4 -12 58.8957 8.47368   2
  -4   4 -12 67.9683 7.69110   5
   4   4  12 76.9557 11.1677   2
   6  -4  12 13.8715 8.23156   5
  -6  -4 -12 20.7833 4.77217   4
   6  -4  12 9.10123 8.45857   2
  -6   4 -12 13.7488 5.64881   2
  -6   4 -12 11.3605 4.14134   5
   6   4  12 14.0475 7.31293   2
   8  -4  12 46.4014 11.1837   2
  -8  -4 -12 62.5176 7.58395   4
   8  -4  12 43.4037 11.0559   5
  -8   4 -12 42.2765 6.97922   5
  -8   4 -12 32.9679 7.71676   2
   8   4  12 51.0029 9.79849   2
  10  -4  12 10.2182 9.59664   2
  10  -4  12 15.6662 9.80334   5
 -10  -4 -12 7.56003 4.54794   4
  10   4  12 7.60804 9.31760   2
 -10   4 -12 14.6652 5.91768   3
 -10   4 -12 14.4107 5.09159   5
  12  -4  12 11.7426 11.3953   5
  12  -4  12 11.7528 9.47732   2
 -12  -4 -12 14.6933 5.30852   4
 -12   4 -12 9.23177 5.67252   3
  12   4  12 9.02515 11.2250   2
 -14  -4 -12 7.17840 4.31248   4
  14  -4  12 14.3502 10.1650   2
  14  -4  12 -12.386 13.3863   5
  14   4  12 -1.8922 13.7183   2
 -14   4 -12 3.59129 5.33315   3
 -14   4 -12 2.40399 8.24458   5
 -16  -4 -12 8.27671 4.80432   4
  16  -4  12 -4.4308 9.81648   2
 -16   4 -12 7.94600 5.59128   3
 -18  -4 -12 35.9439 5.94843   4
  18  -4  12 32.3610 11.2625   2
 -18   4 -12 14.1929 6.25461   3
  20  -4  12 17.6817 11.2921   2
 -20   4 -12 21.0109 6.40939   3
 -21   5  12 2.54248 13.1479   2
  21   5 -12 12.1151 7.16384   2
  19   5 -12 17.6105 7.17311   2
 -19   5  12 19.2074 10.0342   2
 -17   5  12 8.08869 9.45956   2
  17   5 -12 23.1587 7.01455   2
  15  -5 -12 5.12140 7.05400   5
 -15   5  12 2.46653 9.01082   5
  15   5 -12 16.4274 7.99199   5
  15   5 -12 16.3571 6.48599   2
 -15   5  12 17.5156 9.26134   2
  13  -5 -12 -1.6353 5.76340   5
 -13  -5  12 15.6174 9.72984   5
 -13   5  12 9.61819 8.09267   2
  13   5 -12 14.4401 5.94204   2
  13   5 -12 7.80971 6.69040   5
 -13   5  12 2.64387 9.37171   5
  11  -5 -12 14.1824 5.31044   5
 -11  -5  12 14.1236 8.37598   5
  11   5 -12 16.3583 5.59263   5
 -11   5  12 15.8536 8.31772   2
  11   5 -12 23.3242 5.73240   2
 -11   5  12 6.97101 9.37983   5
  -9  -5  12 3.84335 8.17053   5
   9  -5 -12 2.47214 4.55228   5
   9   5 -12 3.97742 4.51376   2
  -9   5  12 -6.4232 8.89079   5
  -9   5  12 7.34975 7.66624   2
   9   5 -12 7.08967 5.08025   5
  -7  -5  12 8.92659 8.37064   5
   7  -5 -12 9.93452 7.19612   4
   7  -5 -12 -2.6942 3.90025   5
  -7   5  12 -4.8239 6.60493   2
  -7   5  12 -3.1213 8.05748   5
   7   5 -12 3.42014 4.29862   5
   7   5 -12 -1.5355 3.79222   2
   5  -5 -12 5.64561 6.57602   4
  -5  -5  12 24.4119 13.0835   2
  -5  -5  12 18.7651 8.74606   5
  -5   5  12 7.84837 8.30129   5
   5   5 -12 16.0915 4.93730   2
   5   5 -12 20.4749 5.25318   5
  -5   5  12 19.2614 7.57822   2
   3  -5 -12 46.0731 7.92749   4
  -3  -5  12 42.3373 13.5814   2
  -3  -5  12 47.6296 10.5192   5
  -3   5  12 56.9797 10.3702   5
  -3   5  12 48.4486 9.22462   2
   3   5 -12 60.5290 7.56736   2
   3   5 -12 42.0275 7.18770   5
  -1  -5  12 21.8912 11.2413   2
  -1  -5  12 19.8977 8.94033   5
   1  -5 -12 12.8215 5.49934   4
   1   5 -12 14.4365 4.40211   5
   1   5 -12 9.92500 4.53633   2
  -1   5  12 0.11383 8.93191   5
  -1   5  12 10.3186 6.33241   2
  -1  -5 -12 1.08150 4.53557   4
   1  -5  12 8.74465 9.63623   2
   1  -5  12 -2.2674 7.62149   5
  -1   5 -12 2.85576 3.85027   5
   1   5  12 10.4294 6.31734   2
  -1   5 -12 -1.1494 3.87304   2
   1   5  12 -3.4169 9.67776   5
   3  -5  12 1.66804 7.67191   5
   3  -5  12 3.55593 9.50253   2
  -3  -5 -12 -1.8518 4.43299   4
  -3   5 -12 -0.5703 4.28597   2
   3   5  12 -5.1364 6.38719   2
  -3   5 -12 2.10332 3.86915   5
   5  -5  12 -1.3803 8.92308   5
  -5  -5 -12 3.64421 4.12677   4
   5  -5  12 6.48949 9.50909   2
  -5   5 -12 0.59521 3.67986   5
   5   5  12 8.11470 7.61392   2
  -5   5 -12 -4.9874 4.65398   2
   7  -5  12 2.34729 9.62516   2
   7  -5  12 10.6085 9.51239   5
  -7  -5 -12 4.43074 4.87163   4
  -7   5 -12 6.04448 4.28782   5
  -7   5 -12 13.2994 5.90294   2
   9  -5  12 5.23695 9.60475   5
  -9  -5 -12 6.88385 4.76668   4
   9  -5  12 6.31501 9.73272   2
  -9   5 -12 2.13715 7.20551   2
  -9   5 -12 13.0596 5.33876   5
   9   5  12 20.5882 10.3833   2
 -11  -5 -12 16.2615 5.13579   4
  11  -5  12 26.3198 11.7045   5
  11  -5  12 26.6612 11.0472   2
 -11   5 -12 19.2039 5.90275   5
 -11   5 -12 18.8921 5.52278   3
  11   5  12 -0.6873 12.0874   2
  13  -5  12 37.6303 11.5440   2
 -13  -5 -12 12.2809 4.90119   4
  13  -5  12 22.1597 13.5801   5
 -13   5 -12 19.0114 7.40036   5
 -13   5 -12 22.0475 6.28561   3
 -15  -5 -12 6.44721 4.16312   4
  15  -5  12 11.5778 10.2685   2
 -15   5 -12 3.81425 5.69723   3
 -17  -5 -12 9.52362 4.51374   4
  17  -5  12 2.19408 10.2550   2
 -17   5 -12 6.26144 6.08125   3
  19  -5  12 9.82832 10.6173   2
 -19  -5 -12 5.90552 4.88927   4
 -19   5 -12 3.58664 6.26482   3
  20   6 -12 36.6871 7.74446   2
 -20   6  12 28.4316 11.9936   2
 -18   6  12 -0.5065 9.73728   2
  18   6 -12 18.3588 6.86226   2
  16   6 -12 28.1869 7.47447   2
 -16   6  12 31.8295 10.6205   2
 -14   6  12 24.7822 9.48057   2
  14   6 -12 31.9411 6.99951   2
  12  -6 -12 21.1810 7.40334   5
  12   6 -12 13.6883 7.54281   5
 -12   6  12 19.5451 10.1790   2
  12   6 -12 24.5543 6.71500   2
 -12   6  12 9.48805 11.3510   5
 -10  -6  12 76.8426 13.3314   5
  10   6 -12 102.865 10.7132   2
 -10   6  12 79.8294 13.5491   2
  10   6 -12 79.2061 12.0225   5
  -8  -6  12 11.3112 9.95547   5
   8  -6 -12 13.4872 8.39868   4
  -8   6  12 15.0470 10.8303   5
   8   6 -12 14.7161 5.88101   5
   8   6 -12 21.1958 5.51828   2
  -8   6  12 24.7725 9.64974   2
  -6  -6  12 104.994 15.2541   5
   6  -6 -12 86.4659 13.0795   4
  -6  -6  12 36.6114 25.2948   2
  -6   6  12 98.4026 17.3380   5
   6   6 -12 115.818 11.9690   5
   6   6 -12 133.084 11.6382   2
  -6   6  12 125.060 15.3397   2
   4  -6 -12 24.5349 7.06937   4
  -4  -6  12 48.5232 17.4847   2
  -4  -6  12 42.2215 11.4053   5
   4   6 -12 46.9137 7.32196   2
  -4   6  12 24.5457 8.65660   2
   4   6 -12 45.8779 7.78432   5
   2  -6 -12 44.7026 7.55364   4
  -2  -6  12 31.6091 15.7941   2
  -2  -6  12 35.6051 10.8019   5
   2   6 -12 46.4949 7.36236   2
  -2   6  12 35.5099 8.88290   2
  -2   6  12 32.1635 11.7299   5
   2   6 -12 47.0435 7.74113   5
   0  -6  12 6.55473 9.96089   5
   0  -6 -12 6.33446 5.06973   4
   0  -6  12 8.95347 13.3068   2
   0   6 -12 5.69472 4.27757   5
   0   6  12 5.77740 6.94833   2
   0   6 -12 7.59382 4.57394   2
  -2  -6 -12 1.68940 4.86490   4
   2  -6  12 9.84063 9.70864   5
   2  -6  12 15.0314 12.5707   2
  -2   6 -12 0.46825 4.34322   5
   2   6  12 3.86923 7.17520   2
  -2   6 -12 2.57506 4.51450   2
   4  -6  12 3.28688 9.63345   5
  -4  -6 -12 10.9126 4.77329   4
   4  -6  12 -1.2760 11.7299   2
  -4   6 -12 9.40005 5.05727   2
  -4   6 -12 7.05594 4.51081   5
   4   6  12 13.8226 8.44587   2
   6  -6  12 8.35694 11.1339   5
  -6  -6 -12 10.5475 5.06535   4
   6  -6  12 -3.9533 11.3144   2
  -6   6 -12 1.06053 4.75431   5
  -6   6 -12 -3.9071 5.38687   2
   6   6  12 7.76011 9.03207   2
   8  -6  12 6.88147 11.2056   2
  -8  -6 -12 -0.1222 4.73998   4
   8  -6  12 -6.0476 11.0612   5
   8   6  12 2.14263 10.7092   2
  -8   6 -12 0.90745 6.41666   2
  -8   6 -12 6.44003 5.22504   5
  10  -6  12 17.0453 12.2744   5
  10  -6  12 5.96394 11.0564   2
 -10  -6 -12 -0.0532 4.85000   4
 -10   6 -12 -2.2151 5.53501   5
  10   6  12 13.5557 13.9124   2
 -10   6 -12 10.6958 8.49595   2
 -12  -6 -12 -0.9215 3.64904   4
  12  -6  12 17.0875 16.8585   5
  12  -6  12 1.25694 10.2273   2
 -12   6 -12 7.59768 5.88722   3
 -14  -6 -12 3.80077 4.35991   4
  14  -6  12 -5.3591 10.2172   2
 -14   6 -12 5.02727 5.37098   3
  16  -6  12 3.15125 11.0008   2
 -16  -6 -12 2.31627 4.39082   4
 -16   6 -12 5.84191 5.59528   3
  18  -6  12 17.6087 11.3152   2
 -18  -6 -12 9.92127 5.15704   4
 -18   6 -12 17.6208 6.05774   3
  19   7 -12 9.83539 7.01183   2
  17   7 -12 13.6007 6.89612   2
 -17   7  12 4.88817 10.4730   2
  15   7 -12 27.0403 7.28266   2
 -15   7  12 14.0140 10.1462   2
  13   7 -12 38.9831 8.00154   2
 -13   7  12 41.1786 12.0014   2
 -11   7  12 34.4633 12.0740   2
  11   7 -12 39.8462 7.58083   2
   9  -7 -12 14.4956 9.16174   4
   9   7 -12 28.6168 7.70041   5
  -9   7  12 12.1238 10.2223   2
   9   7 -12 22.8156 6.25728   2
  -9   7  12 13.6109 14.3609   5
  -7  -7  12 79.2098 14.6589   5
   7  -7 -12 55.9490 10.1189   4
  -7   7  12 59.4013 15.6906   5
  -7   7  12 91.7581 14.8292   2
   7   7 -12 97.0930 11.4908   5
   5  -7 -12 8.20120 6.41524   4
  -5  -7  12 12.0348 11.9337   5
   5   7 -12 4.67688 5.62957   5
   5   7 -12 20.5188 5.34902   2
  -5   7  12 16.5935 8.57004   2
  -5   7  12 -1.5404 14.3579   5
  -3  -7  12 2.18501 11.6931   5
   3  -7 -12 8.44846 6.08172   4
   3   7 -12 11.8382 5.57641   5
   3   7 -12 10.5949 4.61387   2
  -3   7  12 13.5629 8.10916   2
  -1  -7  12 20.7813 19.1214   2
   1  -7 -12 17.7269 6.27630   4
  -1  -7  12 18.2141 12.5367   5
   1   7 -12 35.3074 6.40686   2
  -1   7  12 24.5943 8.62462   2
   1   7 -12 19.7619 5.47525   5
   1  -7  12 -1.6141 12.0373   5
  -1  -7 -12 0.42338 4.82880   4
   1  -7  12 25.9318 17.4477   2
  -1   7 -12 5.58025 5.43635   5
  -1   7 -12 4.81025 5.05143   2
   1   7  12 -3.2457 7.76727   2
  -3  -7 -12 5.04073 4.66041   4
   3  -7  12 19.0444 15.9122   2
   3  -7  12 3.31105 12.0541   5
  -3   7 -12 2.54537 5.19810   2
  -3   7 -12 3.45725 4.90398   5
   3   7  12 8.54225 8.51756   2
   5  -7  12 4.65803 14.5082   2
  -5  -7 -12 -5.1610 4.57638   4
   5  -7  12 1.75616 12.7933   5
  -5   7 -12 5.81624 5.58716   2
   5   7  12 -2.8565 10.4716   2
  -5   7 -12 -1.6706 5.16180   5
   7  -7  12 7.81338 13.5134   2
  -7  -7 -12 -2.0433 4.60295   4
   7  -7  12 23.5573 13.1390   5
  -7   7 -12 4.09269 6.34992   2
  -7   7 -12 0.20345 5.62828   5
  -9  -7 -12 9.99682 5.09864   4
   9  -7  12 14.6839 13.2413   2
   9  -7  12 -2.6921 16.4164   5
  -9   7 -12 8.12649 7.61456   2
  -9   7 -12 -0.9930 7.66573   5
  11  -7  12 34.4378 13.3843   2
 -11  -7 -12 30.9374 6.36462   4
 -11   7 -12 16.8686 11.7243   2
 -13  -7 -12 6.76082 5.13447   4
  13  -7  12 -13.472 12.4988   2
 -13   7 -12 -2.3189 6.45469   3
  15  -7  12 9.23646 12.5559   2
 -15  -7 -12 7.02179 4.70784   4
 -15   7 -12 14.3572 6.14382   3
 -17  -7 -12 41.7441 6.64126   4
  17  -7  12 40.7658 16.9872   2
 -17   7 -12 15.1845 8.16994   3
 -16   8  12 24.2826 12.0704   2
  16   8 -12 35.7390 8.21168   2
 -14   8  12 42.7188 12.3551   2
  14   8 -12 32.2360 7.80879   2
 -12   8  12 27.7408 11.7334   2
  12   8 -12 28.9661 7.41757   2
  10   8 -12 58.8621 10.0929   2
 -10   8  12 68.4787 13.6121   2
   8  -8 -12 -5.6627 8.20302   4
  -8   8  12 0.38589 10.0435   2
   8   8 -12 6.31152 5.56201   2
   6  -8 -12 5.82394 7.58075   4
  -6   8  12 8.00833 9.46066   2
   6   8 -12 21.8476 6.13018   2
   4  -8 -12 10.8796 6.73254   4
   4   8 -12 17.9124 9.44197   5
  -4   8  12 6.54726 8.62016   2
   4   8 -12 2.88925 5.00954   2
   2  -8 -12 3.42989 5.64911   4
  -2  -8  12 5.74665 20.7719   5
   2   8 -12 7.90032 6.61099   5
   2   8 -12 9.37714 5.16269   2
  -2   8  12 3.13058 8.93910   2
   0  -8 -12 7.81230 5.56231   4
   0  -8  12 3.30514 15.2677   5
   0   8  12 6.60683 8.75870   2
   0   8 -12 1.69485 6.14734   5
   0   8 -12 -2.4823 5.12474   2
  -2  -8 -12 12.4004 5.49664   4
   2  -8  12 12.0372 15.8772   5
  -2   8 -12 1.22800 6.48326   5
  -2   8 -12 13.1310 5.99339   2
   2   8  12 31.0928 10.4006   2
  -4   8 -12 2.80332 5.51739   2
   4   8  12 -5.4686 12.0820   2
   6  -8  12 24.1929 19.4033   2
  -6  -8 -12 12.7746 5.22316   4
  -6   8 -12 6.19957 6.36804   2
  -8  -8 -12 4.38923 4.84097   4
   8  -8  12 1.72850 17.0757   2
  -8   8 -12 0.66947 7.15653   2
 -10  -8 -12 7.32340 5.49433   4
  10  -8  12 16.9644 16.2259   2
 -10   8 -12 -1.8543 9.69538   2
 -12  -8 -12 9.03922 4.62107   4
  12  -8  12 19.1045 16.0377   2
 -12   8 -12 11.2955 5.72899   3
 -14  -8 -12 -4.2273 4.77477   4
 -14   8 -12 -4.9150 5.85354   3
 -13   9  12 6.77641 11.8756   2
  13   9 -12 3.73180 7.26272   2
 -11   9  12 5.02039 11.5991   2
   9  -9 -12 27.7987 13.0667   4
   9   9 -12 20.1372 6.91681   2
  -9   9  12 15.4757 11.4541   2
   7  -9 -12 21.6391 9.07435   4
  -7   9  12 31.9563 11.5870   2
   7   9 -12 24.9127 6.93078   2
   5  -9 -12 13.9743 7.29556   4
  -5   9  12 17.3178 10.5915   2
   5   9 -12 16.6844 6.45866   2
   3  -9 -12 20.8188 6.92147   4
  -3   9  12 17.6078 10.6450   2
   1  -9 -12 3.90963 5.89995   4
   1   9 -12 3.69190 5.80363   2
  -1  -9 -12 10.6934 5.90173   4
   1   9  12 17.0216 12.1316   2
  -1   9 -12 -1.4117 5.62331   2
  -3  -9 -12 1.41611 5.62518   4
  -3   9 -12 2.26602 5.85123   2
   3   9  12 11.6707 22.7468   2
  -5  -9 -12 28.5498 5.94819   4
  -5   9 -12 19.6705 7.38503   2
  -7  -9 -12 2.17322 5.24729   4
  -7   9 -12 1.56566 7.53794   2
  -9  -9 -12 -1.9626 4.97238   4
  -9   9 -12 6.08622 10.7369   2
 -11  -9 -12 0.76705 5.39712   4
  -8  10  12 -9.3679 13.1461   2
   8  10 -12 14.0313 7.21099   2
  -6  10  12 -4.9783 12.4717   2
   6  10 -12 15.2981 7.15802   2
   4 -10 -12 11.0351 8.03978   4
   4  10 -12 20.2425 7.03708   2
  -4  10  12 5.45450 12.3568   2
   2 -10 -12 7.00806 6.90737   4
  -2  10  12 -0.7842 18.6560   2
   2  10 -12 15.0627 6.75492   2
   0 -10 -12 4.57530 6.26927   4
   0  10 -12 9.27523 6.73671   2
  -2 -10 -12 1.25355 5.67778   4
  -2  10 -12 6.59448 6.77785   2
  -4 -10 -12 2.62334 5.38371   4
  -4  10 -12 3.85660 7.28193   2
  -6 -10 -12 10.6524 5.74850   4
  -8 -10 -12 -5.8231 8.12347   4
  22   0 -13 -4.1916 7.66560   2
  20   0 -13 -0.8209 7.56704   2
  18   0 -13 1.63796 7.04365   2
  16   0 -13 5.19001 6.14331   5
  16   0 -13 -5.4218 6.37690   2
 -16   0  13 -7.8778 8.07059   5
  14   0 -13 3.56185 5.99829   2
 -14   0  13 -8.5717 9.07211   2
  14   0 -13 0.30604 5.34572   5
 -14   0  13 0.53871 7.79800   5
  12   0 -13 6.84377 5.00555   5
 -12   0  13 -6.5418 6.87232   5
 -12   0  13 -1.9684 8.15626   2
  12   0 -13 4.81071 5.21611   2
  10   0 -13 1.05979 4.17373   5
 -10   0  13 -4.9532 7.67695   2
 -10   0  13 -5.9281 6.48893   5
  10   0 -13 0.51428 4.97630   2
  -8   0  13 -0.5566 7.06789   2
  -8   0  13 -5.2041 6.68127   5
   8   0 -13 -1.6941 3.54844   5
  -6   0  13 11.8177 6.61934   5
   6   0 -13 5.51317 4.81115   2
  -6   0  13 10.1312 7.33544   2
   6   0 -13 3.61305 3.63110   5
   4   0 -13 6.23554 4.85970   2
  -4   0  13 13.9351 7.15564   2
  -4   0  13 2.84021 5.96092   5
   4   0 -13 4.10946 3.26409   5
   2   0 -13 11.7106 5.62234   2
  -2   0  13 11.2225 6.57387   5
   2   0 -13 16.5407 3.86356   5
   0   0 -13 6.22615 3.44722   5
   0   0 -13 3.34316 6.21007   2
   0   0  13 14.1411 6.86231   5
   2   0  13 9.64756 6.64994   5
   2   0  13 10.4959 6.77433   2
  -2   0 -13 14.0517 3.73436   5
   4   0  13 11.6231 7.29003   5
  -4   0 -13 10.6606 3.63240   5
   4   0  13 18.1201 7.74723   2
   6   0  13 11.3892 8.47026   5
   6   0  13 3.59564 7.42849   2
  -6   0 -13 14.8702 4.07052   5
   8   0  13 0.36254 9.99461   5
   8   0  13 25.7062 9.04601   2
  10   0  13 8.11179 12.4158   5
  10   0  13 18.0205 9.36525   2
  12   0  13 12.1883 9.74107   2
  12   0  13 2.97469 16.6085   5
  14   0  13 8.93643 10.3619   2
  16   0  13 -4.8120 11.0140   2
  18   0  13 17.7593 12.0456   2
  20   0  13 36.8018 12.9687   2
  23  -1 -13 22.9650 12.6451   2
  23   1 -13 15.3416 7.96613   2
  21   1 -13 7.85934 7.56126   2
  19  -1 -13 26.1548 8.94354   2
  19   1 -13 18.9266 7.71522   2
  17  -1 -13 60.3681 9.74948   5
  17  -1 -13 47.5019 9.33406   2
 -17  -1  13 38.4802 10.1949   5
  17   1 -13 63.0545 9.81675   2
  17   1 -13 31.3186 9.23829   5
 -17   1  13 36.8121 11.7044   2
 -17   1  13 40.7052 10.1506   5
 -15  -1  13 38.2921 9.91569   5
  15  -1 -13 60.9468 10.0475   5
 -15  -1  13 31.0327 15.6377   2
  15  -1 -13 47.1044 8.78047   2
  15   1 -13 47.4886 8.77847   2
 -15   1  13 53.0081 11.7760   2
 -15   1  13 45.2629 10.4766   5
  13  -1 -13 12.5442 6.12488   5
 -13  -1  13 12.7115 8.30439   5
  13  -1 -13 9.84598 6.31245   2
 -13   1  13 19.5456 8.49522   5
 -13   1  13 28.1226 9.60402   2
  13   1 -13 19.1832 6.27074   2
  13   1 -13 16.0399 5.64247   5
  11  -1 -13 20.8394 5.04051   5
  11  -1 -13 25.9568 6.50597   2
 -11  -1  13 13.6487 7.56018   5
  11   1 -13 11.9309 5.57400   2
  11   1 -13 11.1950 5.00775   5
 -11   1  13 22.4709 9.26223   2
 -11   1  13 14.2944 7.96098   5
   9  -1 -13 38.6897 6.04231   5
  -9  -1  13 30.2036 8.81801   5
   9  -1 -13 37.5031 6.79867   2
  -9   1  13 28.3207 8.87855   5
   9   1 -13 24.3551 6.26883   2
   9   1 -13 20.5372 5.32775   5
  -9   1  13 30.9392 9.48629   2
  -7  -1  13 38.5916 9.05435   5
   7  -1 -13 47.8165 6.68875   5
   7  -1 -13 41.1655 6.93222   2
   7   1 -13 42.4077 6.93228   2
   7   1 -13 35.0203 5.90423   5
  -7   1  13 49.3481 9.72306   5
  -7   1  13 36.8305 9.00662   2
  -5  -1  13 28.5373 8.25209   5
   5  -1 -13 20.2290 5.94380   2
   5  -1 -13 24.4098 4.52400   5
   5   1 -13 16.1645 5.04271   2
   5   1 -13 22.5501 4.78994   5
  -5   1  13 37.0381 9.30042   2
  -5   1  13 32.4325 8.21109   5
   3  -1 -13 4.96567 3.28403   5
  -3  -1  13 0.48281 6.84613   2
   3  -1 -13 0.35394 5.95777   2
  -3  -1  13 2.56592 6.04158   5
  -3   1  13 0.87423 6.12992   2
  -3   1  13 1.40650 6.42438   5
   3   1 -13 5.07413 4.54315   2
   3   1 -13 2.33257 3.12899   5
   1  -1 -13 47.7595 6.23098   5
  -1  -1  13 47.8973 9.88895   2
   1  -1 -13 61.5544 9.44265   4
  -1  -1  13 50.0617 8.92494   5
  -1   1  13 50.6108 9.12196   5
  -1   1  13 62.2731 10.0125   2
   1   1 -13 55.7561 6.64639   5
   1   1 -13 48.7162 7.28499   2
  -1  -1 -13 19.7788 6.08344   4
   1  -1  13 19.1959 7.16378   5
  -1  -1 -13 19.3748 3.90004   5
   1  -1  13 31.8485 9.14108   2
  -1   1 -13 20.5002 4.08005   5
   1   1  13 11.3759 7.06090   5
  -1   1 -13 20.7510 5.99091   2
  -3  -1 -13 17.2785 3.86943   5
   3  -1  13 20.7248 8.61340   2
   3  -1  13 23.0146 7.79574   5
  -3  -1 -13 21.0827 6.23102   4
  -3   1 -13 22.1674 4.23845   5
   3   1  13 13.5135 7.46181   5
   3   1  13 20.3542 7.48188   2
   5  -1  13 -1.6228 7.37039   5
  -5  -1 -13 3.56487 5.19480   4
   5  -1  13 6.14890 7.64020   2
   5   1  13 1.55148 8.36240   5
   5   1  13 7.42648 7.63093   2
  -5   1 -13 3.29772 3.33802   5
   7  -1  13 37.8624 9.88973   2
  -7  -1 -13 28.5074 6.20125   4
   7  -1  13 23.1035 9.61246   5
   7   1  13 35.1878 9.13602   2
   7   1  13 24.4480 10.5471   5
  -7   1 -13 29.0491 4.96416   5
  -9  -1 -13 46.4228 7.34777   4
   9  -1  13 31.1528 11.2504   5
   9  -1  13 41.9834 9.81519   2
   9   1  13 47.3362 10.1636   2
   9   1  13 31.6803 13.4282   5
  11  -1  13 -0.8008 8.49345   2
  11  -1  13 14.7441 12.6629   5
 -11   1 -13 18.5682 8.15781   3
  11   1  13 -6.4323 8.82906   2
  13  -1  13 12.0839 16.5393   5
  13  -1  13 7.97382 9.95025   2
 -13   1 -13 3.72949 7.43366   3
  13   1  13 2.31033 9.90076   2
  15  -1  13 -5.0259 10.2274   2
  15   1  13 0.88243 11.1519   2
 -15   1 -13 6.39390 7.58258   3
  17  -1  13 3.23715 11.4794   2
 -17   1 -13 11.3107 7.79311   3
  17   1  13 17.5268 12.4520   2
  19  -1  13 2.80064 11.4079   2
 -19   1 -13 -1.0099 7.92965   3
  19   1  13 -13.089 13.3219   2
  22  -2 -13 22.9932 11.7965   2
  22   2 -13 25.1629 8.52605   2
  20  -2 -13 22.1607 9.80393   2
  20   2 -13 37.2148 8.63055   2
 -20   2  13 23.9514 15.4075   2
  18  -2 -13 73.4427 11.8030   2
 -18   2  13 56.1899 12.9001   2
  18   2 -13 78.7124 11.0275   2
  16  -2 -13 25.0079 7.68181   5
 -16  -2  13 13.3179 8.92845   5
  16  -2 -13 10.3922 8.30795   2
 -16   2  13 36.6346 10.5023   2
 -16   2  13 23.0509 9.61088   5
  16   2 -13 27.4827 7.54600   2
  16   2 -13 27.9789 8.12791   5
 -14  -2  13 93.2092 18.8668   2
  14  -2 -13 75.4199 12.5250   2
  14  -2 -13 80.1614 11.4420   5
 -14  -2  13 96.5016 14.7331   5
  14   2 -13 122.785 12.5789   2
  14   2 -13 99.3633 12.4006   5
 -14   2  13 105.129 15.3690   5
 -14   2  13 104.759 15.6487   2
  12  -2 -13 35.7165 8.07399   2
 -12  -2  13 50.6617 10.0989   5
  12  -2 -13 35.7973 6.87446   5
 -12  -2  13 49.1454 14.7358   2
  12   2 -13 60.3326 8.98370   2
 -12   2  13 49.3825 10.9168   5
 -12   2  13 51.6603 11.0597   2
  12   2 -13 42.2139 7.40328   5
 -10  -2  13 101.856 16.3372   2
  10  -2 -13 70.0905 11.0582   2
  10  -2 -13 68.4391 9.33978   5
 -10  -2  13 91.6119 13.0379   5
 -10   2  13 77.5826 13.5905   2
  10   2 -13 97.1394 10.3154   5
  10   2 -13 101.673 10.7141   2
 -10   2  13 90.4312 13.6212   5
   8  -2 -13 12.1620 6.44883   2
   8  -2 -13 10.9710 4.34420   5
  -8  -2  13 12.9864 7.61614   5
  -8  -2  13 21.0988 10.7393   2
   8   2 -13 15.8388 5.15170   2
   8   2 -13 15.3715 4.59842   5
  -8   2  13 9.09566 7.94853   2
  -8   2  13 12.7790 8.13420   5
  -6  -2  13 11.9729 10.1020   2
   6  -2 -13 -3.7711 6.17705   2
   6  -2 -13 8.74192 3.74217   5
  -6  -2  13 5.30914 6.85004   5
  -6   2  13 9.80607 6.90284   2
   6   2 -13 8.34897 4.59621   2
  -6   2  13 7.49024 6.95503   5
   6   2 -13 4.23909 3.76995   5
  -4  -2  13 8.23223 6.58202   5
   4  -2 -13 6.28485 3.34238   5
  -4  -2  13 8.26924 9.07411   2
   4   2 -13 7.12950 3.68822   5
  -4   2  13 8.98334 7.08298   5
   4   2 -13 6.33774 4.68875   2
  -4   2  13 3.68049 5.88884   2
   2  -2 -13 8.22994 3.32510   5
   2  -2 -13 3.45754 6.40520   4
  -2  -2  13 11.8681 6.89007   5
  -2  -2  13 7.79531 8.70196   2
   2   2 -13 5.52333 4.52563   2
   2   2 -13 7.12456 3.84679   5
  -2   2  13 6.45468 6.13806   2
  -2   2  13 8.35276 6.90137   5
   0  -2 -13 22.4317 6.63100   4
   0  -2  13 29.8088 8.15478   5
   0  -2 -13 18.9231 3.96598   5
   0  -2  13 24.0857 8.96891   2
   0   2  13 16.5218 6.69011   2
   0   2 -13 24.6994 5.84503   2
   0   2 -13 28.1638 4.76842   5
   0   2  13 18.3115 7.77524   5
   2  -2  13 66.1494 11.8522   2
   2  -2  13 66.8130 11.0520   5
  -2  -2 -13 65.9753 9.59232   4
   2   2  13 83.4221 10.9740   2
  -2   2 -13 65.9495 8.89615   2
   2   2  13 66.0585 10.8916   5
  -2   2 -13 56.8913 7.39773   5
   4  -2  13 42.6549 9.80987   2
   4  -2  13 36.7154 8.91378   5
   4   2  13 43.9674 10.0793   5
  -4   2 -13 26.3203 4.96742   5
   6  -2  13 51.3090 10.4361   2
   6  -2  13 44.4733 10.3791   5
  -6  -2 -13 48.1651 7.41065   4
   6   2  13 46.0229 9.25094   2
   6   2  13 23.5648 11.3902   5
  -6   2 -13 32.2998 5.45502   5
  -8  -2 -13 13.3993 5.39448   4
   8  -2  13 -2.9814 8.96252   5
   8  -2  13 7.32912 8.13105   2
   8   2  13 -2.5547 14.5029   5
  -8   2 -13 2.81232 4.35026   5
   8   2  13 3.19826 7.99019   2
  -8   2 -13 -0.3808 7.38295   3
  10  -2  13 12.9453 9.56706   2
 -10  -2 -13 23.6583 5.77672   4
  10  -2  13 14.9720 11.0369   5
  10   2  13 1.28142 8.87778   2
 -10   2 -13 24.0528 7.59499   3
  12  -2  13 8.99624 9.90950   2
 -12  -2 -13 0.64350 4.75741   4
  12  -2  13 20.4285 14.0186   5
 -12   2 -13 3.68800 6.75020   3
  12   2  13 5.16146 9.65833   2
  14  -2  13 -8.2190 17.5864   5
  14  -2  13 -11.747 9.60415   2
 -14   2 -13 5.91142 6.75647   3
  14   2  13 6.00196 10.9190   2
  16  -2  13 7.29771 10.7352   2
 -16   2 -13 2.73883 7.18641   3
  16   2  13 1.95731 12.5157   2
  18  -2  13 15.9037 10.7628   2
 -18   2 -13 -2.2196 7.62128   3
  18   2  13 9.42492 15.0179   2
  20  -2  13 12.0725 11.5304   2
  21   3 -13 14.5300 7.84916   2
  19  -3 -13 5.38619 10.9157   2
  19   3 -13 -0.7043 6.75517   2
 -19   3  13 4.51330 10.7427   2
  17  -3 -13 12.7299 10.1641   2
  17   3 -13 26.4632 7.72461   2
 -17   3  13 22.3149 10.1513   2
  15  -3 -13 30.6824 7.49730   5
 -15  -3  13 20.3059 8.96235   5
  15  -3 -13 21.4003 9.32134   2
 -15   3  13 30.2828 10.3030   2
  15   3 -13 33.7183 7.77905   2
  15   3 -13 12.3634 7.28880   5
 -15   3  13 35.1882 10.4957   5
  13  -3 -13 -3.4151 8.23476   2
 -13  -3  13 5.86886 21.9003   2
 -13  -3  13 0.36230 7.90222   5
  13  -3 -13 0.13146 5.36592   5
  13   3 -13 -1.4701 6.02647   5
  13   3 -13 3.30219 5.54105   2
 -13   3  13 -2.4113 8.15480   2
 -13   3  13 -0.5288 8.82932   5
  11  -3 -13 61.0455 8.85374   5
  11  -3 -13 63.6464 10.4174   2
 -11  -3  13 51.6106 16.1696   2
 -11  -3  13 64.2342 11.4068   5
  11   3 -13 65.5698 9.71829   5
 -11   3  13 65.2347 12.4777   2
  11   3 -13 70.0195 9.81474   2
 -11   3  13 67.8135 12.2985   5
  -9  -3  13 11.4038 7.83823   5
   9  -3 -13 14.4574 4.78716   5
  -9  -3  13 24.7321 13.0425   2
   9   3 -13 20.2407 6.06138   2
   9   3 -13 14.7212 4.95520   5
  -9   3  13 13.8033 8.44308   2
  -9   3  13 12.4330 8.76876   5
   7  -3 -13 3.03997 3.83738   5
  -7  -3  13 16.6172 11.7029   2
  -7  -3  13 12.7660 7.89330   5
   7   3 -13 11.2889 5.01533   2
  -7   3  13 0.69813 7.69178   5
  -7   3  13 10.8806 7.46726   2
   7   3 -13 11.8101 4.63727   5
  -5  -3  13 4.63181 7.58792   5
   5  -3 -13 4.98218 3.55112   5
  -5  -3  13 6.21266 10.4287   2
  -5   3  13 -1.8269 7.27395   5
   5   3 -13 1.02120 4.17303   2
   5   3 -13 -2.3370 3.49959   5
  -5   3  13 2.65143 6.37217   2
   3  -3 -13 -1.3442 6.89749   4
  -3  -3  13 8.08881 9.32717   2
  -3  -3  13 11.0621 7.14259   5
   3  -3 -13 3.15270 3.30878   5
   3   3 -13 3.61684 4.28755   2
   3   3 -13 8.24189 4.05354   5
  -3   3  13 1.39532 7.30549   5
  -3   3  13 7.50239 6.20663   2
   1  -3 -13 6.52066 6.36394   4
   1  -3 -13 8.05069 3.95755   5
  -1  -3  13 11.8693 9.40984   2
  -1  -3  13 17.1818 8.13984   5
   1   3 -13 13.5473 3.89916   5
  -1   3  13 10.6848 7.94963   5
   1   3 -13 13.0726 4.76265   2
  -1   3  13 19.0341 6.96666   2
   1  -3  13 19.5298 9.63920   2
  -1  -3 -13 23.8033 6.43025   4
   1  -3  13 9.11484 7.61081   5
  -1   3 -13 7.99620 4.09271   5
  -1   3 -13 17.1665 5.31177   2
   1   3  13 17.3528 8.59696   5
   1   3  13 18.9320 7.01489   2
   3  -3  13 22.2111 8.64361   5
   3  -3  13 20.8856 9.00402   2
  -3   3 -13 13.6227 6.07308   2
  -3   3 -13 19.4627 4.70158   5
   3   3  13 35.5644 7.82481   2
   3   3  13 38.9001 10.4609   5
  -5  -3 -13 24.8512 5.80684   4
   5  -3  13 6.23955 8.40642   2
   5  -3  13 14.6878 8.68508   5
  -5   3 -13 10.2643 4.31481   5
  -5   3 -13 15.8878 7.27856   3
   5   3  13 2.65029 11.4573   5
  -5   3 -13 7.38650 6.71180   2
  -7  -3 -13 24.5908 5.99128   4
   7  -3  13 1.90843 9.10772   5
   7  -3  13 17.7770 9.41514   2
  -7   3 -13 11.7354 6.93712   3
  -7   3 -13 2.77231 4.09485   5
   7   3  13 13.1388 8.37213   2
  -9  -3 -13 19.2055 5.92595   4
   9  -3  13 22.0269 9.95353   2
   9  -3  13 9.48431 10.0708   5
  -9   3 -13 2.54438 6.80383   3
   9   3  13 11.8484 8.98122   2
  -9   3 -13 4.87921 4.98343   5
  11  -3  13 14.3167 12.8616   5
 -11  -3 -13 4.97168 4.85872   4
  11  -3  13 21.0430 10.2227   2
  11   3  13 19.5074 10.3061   2
 -13  -3 -13 2.64553 4.91601   4
  13  -3  13 -3.7089 9.87722   2
 -13   3 -13 9.88424 6.59967   3
  13   3  13 4.52828 11.2497   2
 -15  -3 -13 3.36789 4.53920   4
  15  -3  13 21.6509 11.1821   2
 -15   3 -13 6.46784 6.68265   3
  15   3  13 10.8046 14.5075   2
  17  -3  13 -2.1548 10.2788   2
  17   3  13 33.5327 17.7405   2
  19  -3  13 17.6501 11.1554   2
 -19   3 -13 -0.0444 8.00719   3
  22   4 -13 14.5900 15.3911   2
 -20   4  13 21.0443 12.6396   2
  20   4 -13 5.60529 7.50669   2
 -18   4  13 0.21042 9.35213   2
  18   4 -13 3.48559 6.83169   2
 -16   4  13 0.74810 9.09386   2
  16   4 -13 9.48542 6.70867   2
 -14  -4  13 -2.4754 10.1415   5
  14  -4 -13 6.59544 6.41351   5
  14   4 -13 -5.5481 7.48982   5
 -14   4  13 4.88532 9.27869   2
  14   4 -13 8.10889 6.29534   2
 -14   4  13 -0.7095 10.1497   5
  12  -4 -13 0.49004 5.68138   5
 -12  -4  13 5.86403 9.06664   5
 -12   4  13 6.02603 8.97704   2
  12   4 -13 0.07050 5.67771   5
 -12   4  13 13.0336 9.85111   5
  12   4 -13 5.25920 5.65315   2
  10  -4 -13 30.7278 6.00908   5
 -10  -4  13 13.7614 9.17126   5
 -10  -4  13 -11.039 17.0483   2
  10   4 -13 22.7167 6.13569   2
 -10   4  13 19.5200 10.0880   5
 -10   4  13 42.1210 11.1529   2
  10   4 -13 16.2106 6.21186   5
   8  -4 -13 -3.1280 4.32208   5
  -8  -4  13 11.9624 14.3943   2
  -8  -4  13 -1.0310 8.14575   5
  -8   4  13 -0.0159 7.46535   2
  -8   4  13 1.62924 8.85813   5
   8   4 -13 -1.1654 4.52851   2
   8   4 -13 7.53836 4.75582   5
   6  -4 -13 -3.5388 3.96752   5
  -6  -4  13 2.02869 8.20526   5
  -6  -4  13 1.62314 12.7249   2
   6   4 -13 1.92758 4.22783   5
   6   4 -13 3.13038 4.13555   2
  -6   4  13 0.89231 7.22432   2
  -6   4  13 5.31826 8.83613   5
  -4  -4  13 10.7752 12.2814   2
   4  -4 -13 16.6163 6.02010   5
  -4  -4  13 1.99091 8.06551   5
   4  -4 -13 20.9681 8.13821   4
   4   4 -13 11.0994 4.77770   2
  -4   4  13 5.57651 8.09416   5
   4   4 -13 11.7132 4.41055   5
  -4   4  13 11.2718 7.42440   2
  -2  -4  13 -4.0071 8.02945   5
   2  -4 -13 2.46470 6.70296   4
  -2  -4  13 8.29802 10.7236   2
   2   4 -13 0.69000 3.62447   5
   2   4 -13 1.04668 4.17252   2
  -2   4  13 -6.0454 8.65433   5
  -2   4  13 5.09890 6.36819   2
   0  -4  13 39.8514 9.52664   5
   0  -4 -13 35.1388 7.41552   4
   0  -4  13 45.4718 12.0691   2
   0   4  13 35.5379 8.62905   2
   0   4 -13 31.9910 6.18812   2
   0   4  13 27.4484 10.0838   5
   0   4 -13 26.2654 5.36342   5
   2  -4  13 2.90745 8.48301   5
   2  -4  13 -2.8452 9.28802   2
  -2  -4 -13 -1.5113 5.39427   4
  -2   4 -13 4.08683 4.16325   5
   2   4  13 -3.4057 10.8169   5
  -2   4 -13 1.48639 4.92542   2
   2   4  13 -8.7094 6.67498   2
  -4  -4 -13 15.4011 5.26767   4
   4  -4  13 13.3079 8.74207   5
   4  -4  13 22.0350 10.1878   2
  -4   4 -13 13.4802 6.25478   2
   4   4  13 12.5458 7.62993   2
  -4   4 -13 8.12208 4.09806   5
  -6  -4 -13 4.39500 4.95261   4
   6  -4  13 3.79557 9.02757   5
   6  -4  13 4.01679 9.06980   2
  -6   4 -13 3.36640 4.24365   5
  -6   4 -13 12.2086 7.00218   2
   8  -4  13 3.27925 9.47233   2
  -8  -4 -13 5.59790 4.50792   4
  -8   4 -13 7.16216 4.94200   5
   8   4  13 6.25434 8.99379   2
  -8   4 -13 11.5601 6.16699   3
 -10  -4 -13 0.94387 4.87064   4
  10  -4  13 9.31987 10.2258   2
  10  -4  13 14.4193 12.1677   5
 -10   4 -13 6.55429 7.02618   3
 -10   4 -13 0.83398 5.29465   5
  10   4  13 -1.2144 10.0531   2
  12  -4  13 13.2054 13.6135   5
 -12  -4 -13 0.66385 4.65388   4
  12  -4  13 5.75866 10.4582   2
 -12   4 -13 0.89845 6.83067   3
  12   4  13 -4.8441 12.0646   2
 -14  -4 -13 9.27144 5.45484   4
  14  -4  13 3.76820 10.5061   2
  14   4  13 27.1228 16.3323   2
 -14   4 -13 19.0632 6.98355   3
 -16  -4 -13 1.26134 4.56443   4
  16  -4  13 14.3914 11.0072   2
 -16   4 -13 -0.3761 6.55038   3
  18  -4  13 -12.491 10.4906   2
 -18   4 -13 3.42227 7.61175   3
 -19   5  13 47.2283 12.2219   2
  19   5 -13 67.8704 10.1426   2
  17   5 -13 102.445 12.5169   2
 -17   5  13 56.3408 12.6714   2
  15   5 -13 33.3294 8.01733   2
 -15   5  13 24.2517 10.9584   2
  13   5 -13 29.3555 7.09307   2
 -13   5  13 4.99207 13.1180   5
 -13   5  13 16.3055 11.1706   2
 -11  -5  13 47.7983 12.1228   5
  11   5 -13 65.6664 9.16947   2
 -11   5  13 36.2136 12.2993   2
 -11   5  13 27.2611 12.6071   5
  11   5 -13 50.5963 8.84706   5
  -9  -5  13 8.83092 10.1182   5
   9  -5 -13 9.19710 6.28906   5
  -9   5  13 8.93286 11.0633   5
   9   5 -13 12.1148 6.07078   5
  -9   5  13 18.3271 9.93525   2
   9   5 -13 15.8817 5.55434   2
  -7  -5  13 12.7216 18.0211   2
  -7  -5  13 5.28848 9.77576   5
  -7   5  13 7.69307 8.50614   2
   7   5 -13 10.2100 5.47071   5
  -7   5  13 0.27683 10.2615   5
   7   5 -13 13.2929 5.36194   2
   5  -5 -13 24.5156 9.15486   4
  -5  -5  13 51.0157 11.6947   5
  -5  -5  13 47.5013 16.8051   2
   5   5 -13 36.3301 6.73601   5
   5   5 -13 54.2356 7.86862   2
  -5   5  13 39.0050 11.7618   5
  -5   5  13 43.0190 10.2323   2
  -3  -5  13 15.5242 10.3293   5
   3  -5 -13 15.3881 7.26174   4
  -3  -5  13 29.0687 14.3814   2
  -3   5  13 8.93442 10.1690   5
   3   5 -13 20.2451 5.57675   5
  -3   5  13 16.1390 8.07988   2
   3   5 -13 14.0842 4.95066   2
  -1  -5  13 36.6168 11.3763   5
  -1  -5  13 37.2733 13.8633   2
   1  -5 -13 33.1963 7.40488   4
  -1   5  13 42.0703 9.08176   2
   1   5 -13 22.7630 5.66046   5
  -1   5  13 25.6089 11.4886   5
   1   5 -13 31.0736 5.91228   2
   1  -5  13 7.73165 9.51725   5
  -1  -5 -13 13.4417 6.03079   4
   1  -5  13 4.43845 11.5030   2
  -1   5 -13 6.90159 5.05893   2
  -1   5 -13 5.54436 4.50849   5
   1   5  13 15.6074 7.98727   2
   3  -5  13 24.9064 10.0991   5
   3  -5  13 38.2994 12.8805   2
  -3  -5 -13 17.5411 6.07014   4
   3   5  13 31.6275 9.10625   2
  -3   5 -13 28.6773 5.98828   5
  -3   5 -13 32.7706 6.85777   2
   5  -5  13 4.34332 10.1725   5
  -5  -5 -13 1.46154 5.02772   4
   5  -5  13 -7.6409 10.6291   2
  -5   5 -13 -2.8896 6.07098   2
  -5   5 -13 7.48005 4.38077   5
   7  -5  13 24.4068 12.0387   5
  -7  -5 -13 32.3314 6.20899   4
   7  -5  13 33.4298 12.0644   2
  -7   5 -13 32.8632 6.11563   5
  -7   5 -13 28.4537 8.32571   2
   7   5  13 17.9246 10.0028   2
  -9  -5 -13 12.6421 5.40948   4
   9  -5  13 18.6712 11.3984   2
   9  -5  13 13.4208 12.8556   5
   9   5  13 4.60709 11.1132   2
  -9   5 -13 4.36168 5.86031   5
  -9   5 -13 15.8015 6.73125   3
 -11  -5 -13 5.28864 5.22470   4
  11  -5  13 3.65030 10.4815   2
  11  -5  13 13.2774 20.7700   5
 -11   5 -13 2.16970 6.69753   3
  11   5  13 12.9090 14.1973   2
  13  -5  13 26.7371 11.3365   2
 -13  -5 -13 11.7040 5.02589   4
 -13   5 -13 13.4165 6.72869   3
 -15  -5 -13 12.8211 5.65004   4
  15  -5  13 3.01981 11.0546   2
 -15   5 -13 2.08582 6.30538   3
  17  -5  13 10.4852 11.3028   2
 -17  -5 -13 7.13265 5.09520   4
 -17   5 -13 5.40495 6.61467   3
  18   6 -13 29.4787 7.71175   2
 -18   6  13 11.0043 10.9084   2
  16   6 -13 33.0445 7.71586   2
 -16   6  13 23.6974 12.2138   2
 -14   6  13 28.7110 11.8042   2
  14   6 -13 23.9830 7.51042   2
  12   6 -13 18.9571 6.23851   2
 -12   6  13 13.2271 11.4417   2
  10   6 -13 2.66618 5.52654   2
 -10   6  13 7.99347 10.1435   2
  -8  -6  13 -7.3401 11.6359   5
   8   6 -13 2.09286 6.42872   5
  -8   6  13 -4.7206 13.4037   5
   8   6 -13 0.90473 4.76012   2
  -8   6  13 -9.1938 8.98782   2
  -6  -6  13 12.5693 11.7819   5
   6  -6 -13 12.6911 8.88720   4
  -6   6  13 -1.6389 13.2364   5
  -6   6  13 10.1983 8.54922   2
   6   6 -13 4.50371 5.19167   2
   6   6 -13 0.03939 5.37501   5
  -4  -6  13 7.76627 11.7867   5
  -4  -6  13 3.90443 20.0091   2
   4  -6 -13 -0.1582 7.56130   4
   4   6 -13 -1.0596 5.32447   5
  -4   6  13 -7.4827 7.85170   2
  -4   6  13 -1.7758 13.3036   5
   4   6 -13 8.32255 5.14575   2
  -2  -6  13 -15.315 17.1971   2
  -2  -6  13 -1.4882 11.1934   5
   2  -6 -13 -2.3326 6.49769   4
   2   6 -13 1.21998 5.15692   5
  -2   6  13 2.67624 7.99483   2
   2   6 -13 2.65792 4.67095   2
   0  -6 -13 10.2966 6.21095   4
   0  -6  13 0.58454 15.4597   2
   0  -6  13 -2.4248 11.2915   5
   0   6 -13 0.14002 4.93104   5
   0   6 -13 3.65566 5.16499   2
   0   6  13 -0.4529 7.80265   2
  -2  -6 -13 3.98445 5.73705   4
   2  -6  13 -2.4426 11.3321   5
  -2   6 -13 9.25044 5.80516   2
   2   6  13 10.0668 8.37964   2
  -2   6 -13 -1.6819 5.21542   5
   4  -6  13 13.2782 12.9817   5
   4  -6  13 5.39352 13.2733   2
  -4  -6 -13 9.94681 5.50193   4
   4   6  13 1.34551 8.99340   2
  -4   6 -13 5.67833 5.04200   5
  -4   6 -13 3.28150 5.89787   2
   6  -6  13 24.4724 12.9682   2
   6  -6  13 -0.3383 11.7618   5
  -6  -6 -13 5.74291 5.49553   4
  -6   6 -13 0.18444 6.83647   2
  -6   6 -13 7.26929 5.61448   5
  -8  -6 -13 11.1936 5.44650   4
   8  -6  13 1.39037 12.3841   2
   8  -6  13 11.5774 13.9561   5
  -8   6 -13 2.20398 7.44665   5
   8   6  13 -10.749 11.8728   2
  -8   6 -13 1.36980 9.03587   2
  10  -6  13 -5.0203 11.8960   2
 -10  -6 -13 8.17739 5.34996   4
 -10   6 -13 2.67696 5.91938   3
  12  -6  13 2.25459 11.7577   2
 -12  -6 -13 4.50695 4.41086   4
 -12   6 -13 -5.5555 6.28362   3
  14  -6  13 11.2852 11.8803   2
 -14  -6 -13 3.67713 5.13413   4
 -14   6 -13 9.02157 7.12954   3
  16  -6  13 -2.5793 11.4436   2
 -16  -6 -13 3.65275 5.10724   4
 -16   6 -13 -1.5452 8.30319   3
  17   7 -13 8.59276 8.04920   2
 -17   7  13 3.54245 17.2252   2
  15   7 -13 1.00238 6.45236   2
 -15   7  13 -10.499 11.1526   2
  13   7 -13 2.37879 6.27845   2
 -13   7  13 -0.0410 11.7981   2
  11   7 -13 2.02972 5.99130   2
 -11   7  13 -8.6515 10.8333   2
   9   7 -13 3.40454 5.73354   2
  -9   7  13 1.46836 10.8145   2
   7  -7 -13 6.49993 13.9557   4
  -7   7  13 27.1760 10.6628   2
   7   7 -13 17.9685 6.30996   2
   5  -7 -13 7.26719 8.47466   4
   5   7 -13 20.0267 6.19365   2
  -5   7  13 11.4450 9.38403   2
   3  -7 -13 -3.5084 7.26846   4
  -3  -7  13 3.74513 15.7971   5
   3   7 -13 -2.4539 5.75305   5
  -3   7  13 0.54936 8.91943   2
   3   7 -13 2.35856 5.06791   2
  -1  -7  13 -2.9307 25.9976   2
   1  -7 -13 -7.0332 6.00974   4
   1   7 -13 4.93563 5.28104   2
   1   7 -13 3.37449 5.53236   5
  -1   7  13 -2.4313 8.48805   2
  -1  -7 -13 8.99767 5.73176   4
   1  -7  13 3.08404 14.1869   5
   1  -7  13 -1.8485 20.2347   2
  -1   7 -13 -2.5275 5.99918   5
   1   7  13 -3.8471 9.10460   2
  -1   7 -13 11.6666 5.74097   2
  -3  -7 -13 -0.4922 5.53909   4
   3  -7  13 12.5516 17.6407   2
   3  -7  13 -9.6761 22.6917   5
  -3   7 -13 1.96137 7.90864   5
   3   7  13 -1.2589 10.1631   2
  -3   7 -13 5.20200 5.78290   2
   5  -7  13 3.49860 16.4008   2
  -5  -7 -13 3.48078 5.30414   4
  -5   7 -13 16.7118 6.87963   2
  -7  -7 -13 -0.5025 4.98473   4
   7  -7  13 11.6113 15.2269   2
  -7   7 -13 5.53300 7.92437   2
  -9  -7 -13 1.94614 5.40397   4
   9  -7  13 9.22889 14.1308   2
  -9   7 -13 -4.5471 12.8677   2
  11  -7  13 22.5172 13.8413   2
 -11  -7 -13 3.05828 4.68410   4
 -11   7 -13 7.77182 6.85377   3
 -13  -7 -13 4.85653 5.08970   4
  13  -7  13 7.06462 13.5162   2
 -13   7 -13 1.63281 6.50428   3
 -15  -7 -13 1.64440 5.43201   4
 -14   8  13 30.6990 13.4358   2
  14   8 -13 9.48918 7.45795   2
 -12   8  13 2.34961 12.4592   2
  12   8 -13 17.6411 7.52761   2
  10   8 -13 10.3921 6.34439   2
 -10   8  13 6.12742 12.3297   2
   8   8 -13 28.9580 7.28908   2
  -8   8  13 25.8113 12.1666   2
   6  -8 -13 -1.9166 9.70512   4
   6   8 -13 16.7414 6.28101   2
  -6   8  13 4.80209 10.7050   2
   4   8 -13 -6.6931 5.50250   2
  -4   8  13 -3.9646 9.95053   2
   2  -8 -13 -2.3318 6.95797   4
  -2   8  13 1.91888 9.92196   2
   2   8 -13 -7.2590 5.65044   2
   0  -8 -13 10.7265 6.69144   4
   0   8 -13 6.19546 5.96319   2
   0   8  13 -2.0722 10.1520   2
  -2  -8 -13 -4.0804 5.61311   4
  -2   8 -13 0.37167 5.98854   2
   2   8  13 -11.189 11.9107   2
  -4  -8 -13 7.64897 6.15419   4
  -4   8 -13 17.6846 7.03703   2
  -6  -8 -13 11.6532 5.71454   4
   6  -8  13 -10.202 24.0892   2
  -6   8 -13 4.85982 8.08135   2
   8  -8  13 51.6058 25.2684   2
  -8  -8 -13 33.8547 7.17200   4
  -8   8 -13 33.9187 11.7036   2
 -10  -8 -13 18.7319 5.72515   4
 -10   8 -13 9.38470 7.11921   3
 -12  -8 -13 12.5796 5.43670   4
  -9   9  13 24.1672 13.0559   2
   9   9 -13 14.8398 7.92598   2
   7   9 -13 2.82476 7.11251   2
  -7   9  13 7.20181 11.9159   2
  -5   9  13 12.2324 11.7592   2
   3  -9 -13 -0.9621 8.06216   4
  -3   9  13 9.69088 11.6167   2
   3   9 -13 5.24120 6.94514   2
   1  -9 -13 -2.9563 7.08856   4
  -1   9  13 14.5210 12.5873   2
   1   9 -13 9.95299 6.79777   2
  -1  -9 -13 0.84364 6.27476   4
  -1   9 -13 6.17301 6.61533   2
  -3  -9 -13 -0.2322 6.15330   4
  -3   9 -13 5.79113 7.19760   2
  -5  -9 -13 10.5570 6.02809   4
  -5   9 -13 -1.9061 10.0418   2
  -7  -9 -13 3.46251 5.71742   4
  20   0 -14 32.0222 10.2193   2
  18   0 -14 22.3982 9.38160   2
 -16   0  14 -1.2677 16.8679   2
  16   0 -14 14.3670 8.47526   2
 -14   0  14 -3.5967 9.45430   5
  14   0 -14 -1.1137 6.17212   5
  14   0 -14 4.63273 7.39872   2
  12   0 -14 -6.5142 5.29341   5
 -12   0  14 -3.5204 8.47977   5
 -10   0  14 -4.6603 8.29913   5
  10   0 -14 7.96433 6.48799   2
  10   0 -14 4.56898 5.06980   5
  -8   0  14 17.1285 9.06006   5
   8   0 -14 8.90526 4.51691   5
   8   0 -14 8.11968 6.24652   2
   6   0 -14 54.9828 8.24877   2
  -6   0  14 59.3828 11.2332   5
   6   0 -14 44.8352 7.20156   5
   4   0 -14 24.5088 7.42266   2
   4   0 -14 33.2820 5.31345   5
  -4   0  14 44.0037 9.96395   5
  -2   0  14 14.5975 8.27956   5
  -2   0  14 7.13640 8.30837   2
   2   0 -14 19.0905 4.35686   5
   0   0 -14 46.1533 6.80140   5
   0   0  14 61.0804 11.0409   2
   0   0  14 58.5954 10.4945   5
   2   0  14 1.81165 7.65159   2
  -2   0 -14 0.88046 3.74343   5
   2   0  14 1.92073 8.02977   5
  -4   0 -14 -1.9237 4.28906   5
   4   0  14 -5.8170 7.29811   2
   4   0  14 -3.1884 8.72702   5
   6   0  14 29.1413 11.3001   5
   6   0  14 25.4822 9.58420   2
   8   0  14 11.4305 9.12899   2
   8   0  14 17.7958 12.5314   5
  10   0  14 19.6996 16.5727   5
  10   0  14 52.9206 11.9771   2
  12   0  14 7.27398 10.0946   2
  14   0  14 1.36721 10.7417   2
  16   0  14 0.55782 11.7766   2
  18   0  14 15.4134 12.4150   2
  21   1 -14 -4.4300 9.10009   2
  19  -1 -14 28.4417 10.4409   2
  19   1 -14 3.01029 8.73831   2
  17  -1 -14 9.49260 9.48738   2
  17   1 -14 11.5787 7.92916   2
 -15  -1  14 -13.015 17.9480   2
  15  -1 -14 9.23046 8.61568   2
  15   1 -14 -4.2456 7.05365   2
 -15   1  14 12.1386 10.6779   2
 -13  -1  14 2.59636 9.33664   5
 -13  -1  14 17.8611 14.8473   2
  13  -1 -14 2.77698 5.86405   5
  13  -1 -14 -0.1905 7.80079   2
 -13   1  14 16.9682 10.3028   2
  13   1 -14 10.3454 7.08851   2
  13   1 -14 -1.9924 6.05371   5
 -13   1  14 18.8435 9.36298   5
  11  -1 -14 13.1993 5.62196   5
 -11  -1  14 16.7792 13.9433   2
 -11  -1  14 9.93921 9.21050   5
  11  -1 -14 6.40041 7.48062   2
  11   1 -14 6.84451 6.45301   2
  11   1 -14 10.4615 5.68204   5
 -11   1  14 1.44466 9.18008   2
 -11   1  14 -6.1880 9.39180   5
   9  -1 -14 6.32360 7.14926   2
   9  -1 -14 8.22639 4.85691   5
  -9  -1  14 20.8700 12.0223   2
  -9  -1  14 10.3189 8.89009   5
   9   1 -14 5.19468 4.78022   5
  -9   1  14 10.3454 8.72159   5
  -9   1  14 15.4623 9.55805   2
   9   1 -14 9.25149 6.14306   2
  -7  -1  14 10.9821 8.48841   5
  -7  -1  14 10.0663 10.6362   2
   7  -1 -14 4.79900 4.17708   5
   7  -1 -14 -2.8090 6.93664   2
   7   1 -14 6.97182 5.59618   2
  -7   1  14 -10.065 7.99452   2
  -7   1  14 -0.0025 7.81160   5
   7   1 -14 3.46615 4.28002   5
   5  -1 -14 29.0207 5.07090   5
  -5  -1  14 18.6192 10.3181   2
  -5  -1  14 23.8965 8.72751   5
  -5   1  14 24.2545 8.66206   5
   5   1 -14 18.5517 4.97374   5
  -5   1  14 21.3882 9.00013   2
   5   1 -14 8.31242 6.08527   2
  -3  -1  14 43.5757 11.2158   2
  -3  -1  14 37.4177 9.79125   5
   3  -1 -14 51.3131 6.58472   5
  -3   1  14 52.5124 10.3034   5
   3   1 -14 36.9913 5.99234   5
  -3   1  14 54.8972 10.3009   2
   3   1 -14 31.1933 7.27732   2
  -1  -1  14 5.67951 7.63580   5
   1  -1 -14 9.23927 3.92009   5
  -1  -1  14 7.77828 8.82486   2
   1   1 -14 8.30091 3.75038   5
   1   1 -14 -0.3195 6.67702   2
  -1   1  14 13.9697 8.11022   5
  -1  -1 -14 32.4283 5.02712   5
   1  -1  14 22.2749 9.36468   5
   1  -1  14 34.5120 10.1786   2
   1   1  14 43.3851 9.84236   2
   1   1  14 46.5035 10.1674   5
  -1   1 -14 23.4451 5.00174   5
   3  -1  14 5.64680 8.35662   2
   3  -1  14 -5.9786 8.00528   5
  -3   1 -14 -2.5454 3.83737   5
   3   1  14 -0.4294 9.29544   5
   3   1  14 7.61619 6.98443   2
   5  -1  14 6.72980 9.25358   5
   5  -1  14 -1.1525 7.82447   2
  -5   1 -14 4.85898 4.41725   5
   5   1  14 4.44512 8.01875   2
   5   1  14 33.7686 11.3483   5
   7  -1  14 6.22426 8.72503   2
   7  -1  14 -1.4472 10.4194   5
   7   1  14 12.0659 13.1525   5
   7   1  14 10.2047 9.21212   2
   9  -1  14 15.8102 13.7773   5
   9  -1  14 43.6815 10.6332   2
   9   1  14 30.4209 10.5982   2
  11  -1  14 -11.732 16.4915   5
  11  -1  14 16.3529 10.2083   2
  11   1  14 13.6817 10.1761   2
  13  -1  14 30.9373 12.0340   2
  13   1  14 19.8161 11.2767   2
  15  -1  14 3.44288 11.2545   2
  15   1  14 2.15051 12.0231   2
  17  -1  14 10.8824 11.7504   2
  17   1  14 -9.0372 13.0236   2
  19  -1  14 4.25868 16.7596   2
  20   2 -14 -0.3191 8.55349   2
  18  -2 -14 -7.2855 11.6462   2
  18   2 -14 7.99524 7.88733   2
 -18   2  14 -1.4595 12.5504   2
  16  -2 -14 13.8666 10.6015   2
  16   2 -14 2.49977 7.19860   2
 -16   2  14 8.13099 10.8476   2
  14  -2 -14 16.6070 9.80079   2
 -14  -2  14 4.15111 13.7101   5
  14  -2 -14 6.63876 8.26567   5
 -14  -2  14 49.0461 23.1672   2
  14   2 -14 5.46436 7.36420   5
 -14   2  14 2.11032 10.7198   2
  14   2 -14 22.3634 7.54349   2
 -14   2  14 2.42390 11.1302   5
 -12  -2  14 4.21873 16.4301   2
  12  -2 -14 7.32615 5.61005   5
  12  -2 -14 -7.9731 9.27880   2
 -12  -2  14 11.1209 9.79668   5
  12   2 -14 12.8394 6.42391   5
 -12   2  14 3.61370 9.99573   2
  12   2 -14 5.35149 6.43389   2
 -12   2  14 1.41442 10.2935   5
  10  -2 -14 16.0651 5.28191   5
 -10  -2  14 17.0273 13.7102   2
 -10  -2  14 8.22685 9.01321   5
  10  -2 -14 1.76363 9.44831   2
  10   2 -14 15.3094 6.42585   2
 -10   2  14 1.05972 9.89831   5
 -10   2  14 9.08506 9.32269   2
  10   2 -14 13.3867 5.67482   5
   8  -2 -14 7.30263 4.67165   5
  -8  -2  14 24.4432 12.9748   2
  -8  -2  14 22.3493 9.54402   5
   8   2 -14 10.4822 5.62756   2
  -8   2  14 6.59638 9.13151   2
   8   2 -14 19.7744 5.91639   5
  -8   2  14 0.37265 9.29064   5
   6  -2 -14 -0.0153 4.00158   5
  -6  -2  14 6.65198 8.91970   5
  -6  -2  14 7.65326 11.3419   2
   6   2 -14 -0.9730 5.31327   2
  -6   2  14 16.1220 8.77873   5
  -6   2  14 -0.1653 8.02425   2
   6   2 -14 3.98060 4.44101   5
  -4  -2  14 15.7078 8.29104   5
   4  -2 -14 6.57742 3.87642   5
  -4  -2  14 15.3349 11.0338   2
   4   2 -14 16.1148 5.89171   2
  -4   2  14 6.52343 7.66776   2
   4   2 -14 17.1892 4.59054   5
  -4   2  14 2.39500 8.13860   5
  -2  -2  14 14.1499 9.99080   2
   2  -2 -14 2.63947 3.94312   5
  -2  -2  14 -3.6604 7.95537   5
   2   2 -14 -0.9215 5.50764   2
  -2   2  14 8.30574 8.29298   5
  -2   2  14 -0.6614 7.26565   2
   2   2 -14 5.69250 3.94300   5
   0  -2  14 0.92770 7.97039   5
   0  -2  14 14.3295 9.50972   2
   0  -2 -14 4.81932 8.21231   4
   0   2 -14 13.5911 4.48139   5
   0   2  14 6.01926 6.94603   2
   0   2  14 2.44280 8.47068   5
   0   2 -14 15.2541 6.59012   2
  -2  -2 -14 -4.4353 7.08755   4
   2  -2  14 9.08540 8.77683   2
   2  -2  14 9.24234 8.47082   5
  -2   2 -14 -0.6845 8.51014   2
  -2   2 -14 8.19719 4.09522   5
   2   2  14 11.6863 9.99864   5
   4  -2  14 5.19989 8.67882   5
  -4  -2 -14 -2.2869 6.73827   4
   4  -2  14 1.74175 8.68177   2
   4   2  14 14.1552 10.9177   5
  -4   2 -14 2.03785 4.08605   5
   4   2  14 3.70517 7.47997   2
   6  -2  14 3.19069 9.87926   5
  -6  -2 -14 5.62553 6.05439   4
   6  -2  14 -0.5252 8.35736   2
  -6   2 -14 -1.2745 4.53754   5
   6   2  14 -9.9942 14.0902   5
   6   2  14 3.72007 8.40396   2
  -8  -2 -14 9.60891 5.81710   4
   8  -2  14 12.0848 9.39291   2
   8  -2  14 4.18439 11.2154   5
  -8   2 -14 0.52161 6.23954   5
   8   2  14 5.97652 9.26020   2
  10  -2  14 12.5247 14.0917   5
  10  -2  14 11.3109 9.85923   2
 -10  -2 -14 17.8554 6.23676   4
  10   2  14 12.8910 10.1547   2
  12  -2  14 -8.4127 10.0731   2
  12   2  14 -0.7509 10.6753   2
  14  -2  14 -9.8265 10.3810   2
  14   2  14 -6.7191 12.2093   2
  16  -2  14 17.9759 11.7978   2
  16   2  14 7.04047 14.5729   2
  18  -2  14 -12.004 11.5441   2
  19   3 -14 29.8728 9.39666   2
  17   3 -14 11.1093 8.00723   2
 -17   3  14 24.3314 11.6544   2
 -15   3  14 39.8011 11.8312   2
  15   3 -14 26.1835 8.15058   2
  13   3 -14 9.21579 6.52027   2
 -13   3  14 2.75461 13.1407   5
  13   3 -14 8.02758 7.56728   5
 -13   3  14 0.23147 9.72879   2
 -11  -3  14 43.5047 18.5890   2
 -11  -3  14 9.79467 9.74365   5
  11  -3 -14 5.64997 5.72304   5
 -11   3  14 2.10211 10.6673   5
  11   3 -14 3.53417 6.20815   5
  11   3 -14 9.36486 5.93737   2
 -11   3  14 3.75745 9.78750   2
  -9  -3  14 27.7360 10.6901   5
  -9  -3  14 33.7535 16.2782   2
   9  -3 -14 32.4226 6.37776   5
   9   3 -14 27.1246 6.57298   2
   9   3 -14 33.8662 6.81693   5
  -9   3  14 27.1903 10.8996   5
  -9   3  14 47.8161 11.2513   2
  -7  -3  14 -5.0505 13.6164   2
  -7  -3  14 1.56993 9.16948   5
   7  -3 -14 -1.8539 4.61011   5
   7   3 -14 -1.6288 5.10394   2
   7   3 -14 5.25203 4.86699   5
  -7   3  14 6.55972 9.64358   5
  -7   3  14 8.91541 8.63491   2
  -5  -3  14 -3.9982 11.6675   2
  -5  -3  14 1.43207 8.53568   5
   5  -3 -14 4.45137 4.52942   5
  -5   3  14 3.36144 9.49578   5
   5   3 -14 10.8807 4.79381   5
  -5   3  14 4.81373 8.08432   2
   5   3 -14 6.57053 5.23208   2
  -3  -3  14 24.5793 12.0917   2
  -3  -3  14 15.7814 9.37352   5
   3   3 -14 11.8141 4.50966   5
   3   3 -14 17.5124 5.79527   2
  -3   3  14 6.63873 9.75187   5
  -3   3  14 17.4470 8.25006   2
   1  -3 -14 30.2041 8.96548   4
  -1  -3  14 22.7826 9.20800   5
  -1  -3  14 11.1007 11.0141   2
  -1   3  14 12.8081 10.1257   5
   1   3 -14 29.3738 6.61195   2
   1   3 -14 24.7944 5.27211   5
  -1   3  14 30.3675 9.10769   2
  -1  -3 -14 15.9852 7.69935   4
   1  -3  14 14.7594 10.3501   2
   1  -3  14 20.0499 9.50626   5
  -1   3 -14 23.3417 6.92229   2
   1   3  14 26.6480 8.66794   2
   1   3  14 20.3015 11.7457   5
  -1   3 -14 37.3142 5.87538   5
  -3  -3 -14 13.4385 7.06246   4
   3  -3  14 18.0829 9.43140   2
   3  -3  14 3.99573 9.37041   5
   3   3  14 9.18461 12.6077   5
  -3   3 -14 12.0273 8.04374   2
  -3   3 -14 16.6029 5.03097   5
   5  -3  14 8.43948 9.60065   2
  -5  -3 -14 4.00830 6.01472   4
   5  -3  14 10.1889 10.2422   5
   5   3  14 2.53108 8.20405   2
  -5   3 -14 5.01376 4.59734   5
   7  -3  14 -1.0087 9.45026   2
  -7  -3 -14 0.40793 5.82783   4
   7   3  14 4.66665 9.07423   2
  -7   3 -14 3.99905 5.33254   5
  -9  -3 -14 12.7085 5.97537   4
   9  -3  14 15.9589 10.4876   2
   9  -3  14 12.9262 12.2460   5
  -9   3 -14 8.71001 6.96365   5
   9   3  14 23.5245 10.0546   2
 -11  -3 -14 3.28750 5.31451   4
  11  -3  14 -4.1139 9.82461   2
 -11   3 -14 8.98953 11.6954   3
  11   3  14 8.58337 10.8307   2
 -13  -3 -14 3.86248 5.11219   4
  13  -3  14 -5.4143 10.2850   2
 -13   3 -14 8.19157 12.7868   3
  13   3  14 -11.050 12.5993   2
  15  -3  14 0.01744 10.8412   2
  15   3  14 -9.7856 15.5373   2
 -15   3 -14 -4.2118 18.0424   3
  17  -3  14 -2.4371 11.0945   2
 -18   4  14 -1.2356 12.2387   2
  18   4 -14 18.7817 7.91863   2
 -16   4  14 22.7187 11.3726   2
  16   4 -14 13.1909 7.69673   2
  14   4 -14 13.5745 6.90729   2
 -14   4  14 -10.889 9.70723   2
 -12   4  14 0.15651 10.2072   2
  12   4 -14 11.0852 6.21855   2
 -10  -4  14 -0.3627 40.2686   2
  10  -4 -14 15.6946 8.24741   5
 -10  -4  14 18.6922 11.0639   5
  10   4 -14 7.75556 6.46040   5
 -10   4  14 9.49916 9.94537   2
 -10   4  14 7.90098 11.8437   5
  10   4 -14 27.4932 6.67927   2
   8  -4 -14 16.8061 6.48485   5
  -8  -4  14 3.08867 9.95796   5
  -8  -4  14 0.90896 18.4008   2
   8   4 -14 10.2222 5.83326   5
  -8   4  14 15.0717 9.90470   2
  -8   4  14 -0.6305 11.3272   5
   8   4 -14 12.7753 5.76366   2
  -6  -4  14 25.5723 15.6385   2
  -6  -4  14 24.0093 10.8761   5
   6   4 -14 25.5527 6.10408   2
   6   4 -14 20.9228 5.93986   5
  -6   4  14 35.3916 10.0658   2
  -6   4  14 23.2541 11.5447   5
  -4  -4  14 79.7364 17.0573   2
  -4  -4  14 68.1202 13.2032   5
  -4   4  14 78.4776 12.3712   2
   4   4 -14 58.0501 8.85323   2
   4   4 -14 47.2901 8.43187   5
  -4   4  14 52.8545 12.8189   5
  -2  -4  14 35.8102 13.7870   2
   2  -4 -14 28.9561 9.42796   4
  -2  -4  14 29.3198 11.2577   5
   2   4 -14 20.1064 5.47119   5
  -2   4  14 25.5774 9.06619   2
  -2   4  14 22.6343 12.2388   5
   2   4 -14 38.7199 6.88639   2
   0  -4  14 51.3391 14.0425   2
   0  -4  14 25.1903 10.9328   5
   0  -4 -14 51.4437 8.90078   4
   0   4  14 32.5319 13.2597   5
   0   4  14 52.6995 10.5051   2
   0   4 -14 37.4382 7.30706   2
   0   4 -14 28.7734 6.08428   5
  -2  -4 -14 5.37149 6.72807   4
   2  -4  14 -0.9809 9.78223   5
   2  -4  14 6.60314 10.8840   2
  -2   4 -14 17.4178 7.11248   2
  -2   4 -14 2.79219 4.76866   5
   2   4  14 7.25917 8.12916   2
   4  -4  14 6.39050 11.0040   5
  -4  -4 -14 12.7321 6.34915   4
   4  -4  14 3.83278 11.1368   2
  -4   4 -14 8.22077 8.15444   2
  -4   4 -14 6.08072 4.59092   5
   6  -4  14 10.1174 10.6735   2
  -6  -4 -14 1.96306 5.48887   4
   6  -4  14 1.14992 11.6046   5
  -6   4 -14 -4.0129 12.2926   3
  -6   4 -14 -0.4262 5.14073   5
   6   4  14 12.6306 9.53813   2
   8  -4  14 27.1420 11.4322   2
  -8  -4 -14 17.2439 6.31928   4
   8  -4  14 -3.6908 12.2323   5
  -8   4 -14 19.8340 6.94773   5
   8   4  14 1.80212 10.0074   2
  -8   4 -14 33.7560 9.97070   3
  10  -4  14 -8.9838 10.3443   2
 -10  -4 -14 -2.8866 5.04509   4
 -10   4 -14 7.65230 8.83315   3
  10   4  14 -2.2560 11.1883   2
  12  -4  14 18.6981 11.3530   2
 -12  -4 -14 7.35850 5.47208   4
 -12   4 -14 12.1977 8.81409   3
  12   4  14 24.5484 14.5848   2
 -14  -4 -14 0.89917 5.20825   4
  14  -4  14 8.33373 10.6889   2
 -14   4 -14 17.4409 9.63729   3
  16  -4  14 12.2734 11.6137   2
 -17   5  14 -4.5377 11.5574   2
  17   5 -14 14.7031 7.80380   2
  15   5 -14 -1.1835 6.85937   2
 -15   5  14 -12.490 10.8459   2
  13   5 -14 10.7087 6.92189   2
 -13   5  14 13.0688 11.4535   2
  11   5 -14 3.98923 5.74110   2
 -11   5  14 2.57228 10.6048   2
  -9   5  14 18.4683 10.9985   2
   9   5 -14 3.58490 5.44564   2
  -7  -5  14 7.96583 25.4192   2
  -7  -5  14 4.07582 12.2541   5
   7   5 -14 7.30600 5.67187   2
  -7   5  14 -10.298 20.4259   5
   7   5 -14 5.88281 5.74617   5
  -7   5  14 6.64576 9.85575   2
  -5  -5  14 37.0190 19.0609   2
  -5  -5  14 8.17524 12.0127   5
   5   5 -14 4.67967 5.67602   5
  -5   5  14 -0.9214 8.41997   2
   5   5 -14 3.58961 5.12020   2
  -5   5  14 -8.6531 13.8303   5
  -3  -5  14 -1.9298 16.6510   2
  -3  -5  14 3.19206 11.3822   5
   3  -5 -14 17.0689 11.1360   4
  -3   5  14 2.93194 8.63691   2
   3   5 -14 8.65717 5.57043   2
  -3   5  14 5.29217 14.3081   5
   3   5 -14 2.88690 5.14241   5
  -1  -5  14 5.35532 14.6660   2
   1  -5 -14 8.32641 8.32409   4
  -1  -5  14 9.96088 11.0532   5
  -1   5  14 -0.0372 8.28754   2
   1   5 -14 4.01557 5.75934   2
   1   5 -14 4.64040 5.18820   5
  -1  -5 -14 22.5900 8.04087   4
   1  -5  14 25.8766 14.8929   2
   1  -5  14 29.9281 12.6952   5
   1   5  14 19.4871 9.31521   2
  -1   5 -14 45.3717 7.95976   2
  -1   5 -14 38.5236 6.96265   5
   3  -5  14 -1.1337 11.6652   5
   3  -5  14 1.60816 12.6927   2
  -3  -5 -14 -0.8840 6.14514   4
  -3   5 -14 3.91268 6.87754   2
  -3   5 -14 -0.6761 5.16985   5
   3   5  14 3.36145 8.59807   2
   5  -5  14 -11.553 12.6938   5
  -5  -5 -14 8.80384 5.99124   4
   5  -5  14 -0.8829 12.2717   2
  -5   5 -14 0.07183 5.34983   5
   5   5  14 3.32333 9.81520   2
  -5   5 -14 1.48798 8.42034   2
  -7  -5 -14 22.4850 5.98770   4
   7  -5  14 19.3936 12.5898   2
   7   5  14 4.80138 10.6025   2
  -7   5 -14 3.97645 9.12175   3
   9  -5  14 -6.2004 11.2425   2
  -9  -5 -14 -2.1172 5.16624   4
   9   5  14 5.97956 12.2149   2
  11  -5  14 6.51783 11.3045   2
 -11  -5 -14 0.22659 4.86428   4
 -11   5 -14 -3.0415 8.33420   3
  11   5  14 -3.4872 16.2854   2
  13  -5  14 9.32910 11.5998   2
 -13  -5 -14 4.46538 4.94381   4
 -13   5 -14 2.75689 8.76591   3
  15  -5  14 6.18116 11.5162   2
 -15  -5 -14 1.86239 5.47882   4
  16   6 -14 2.26428 7.52748   2
 -16   6  14 -2.9590 14.0577   2
 -14   6  14 7.32921 12.4467   2
  14   6 -14 7.51695 7.09795   2
 -12   6  14 8.63344 11.6928   2
  12   6 -14 -3.9388 5.99908   2
  10   6 -14 2.97603 5.70150   2
 -10   6  14 6.20111 11.6187   2
  -8   6  14 7.00253 10.6182   2
   8   6 -14 -1.7310 5.54757   2
  -6   6  14 10.4756 9.64412   2
   6   6 -14 0.67298 5.46075   2
  -4   6  14 28.5867 9.86161   2
   4   6 -14 1.80738 5.37957   2
   2  -6 -14 11.9895 9.21795   4
  -2  -6  14 47.9020 21.7826   2
   2   6 -14 21.2656 6.51716   2
  -2   6  14 3.59814 9.31896   2
   0  -6 -14 5.51644 7.74294   4
   0  -6  14 10.6404 18.5426   2
   0  -6  14 0.24204 21.7275   5
   0   6 -14 12.3011 6.59861   2
   0   6  14 12.8217 9.69732   2
   0   6 -14 10.8749 10.6200   5
   2  -6  14 11.8040 16.6369   2
  -2  -6 -14 -2.0211 6.67518   4
  -2   6 -14 4.50434 6.63972   2
   2   6  14 2.23993 9.58180   2
   4  -6  14 26.5962 15.5895   2
  -4  -6 -14 4.74561 6.34528   4
  -4   6 -14 11.0766 7.71024   2
   6  -6  14 21.1913 14.6045   2
  -6  -6 -14 3.12533 5.81436   4
   6   6  14 5.46402 11.6748   2
  -6   6 -14 41.4056 10.6199   2
  -8  -6 -14 10.0018 5.65970   4
   8  -6  14 7.54217 13.3251   2
  -8   6 -14 -1.0385 8.48604   3
   8   6  14 6.33185 14.1972   2
  10  -6  14 -12.233 12.9085   2
 -10  -6 -14 -3.8653 5.22000   4
 -10   6 -14 0.95910 8.32908   3
 -12  -6 -14 4.64144 5.34650   4
  12  -6  14 -10.799 12.3978   2
 -14  -6 -14 3.79577 5.28071   4
  14  -6  14 -8.9848 19.7592   2
 -13   7  14 -10.929 12.7867   2
  13   7 -14 -4.2925 7.25709   2
 -11   7  14 -11.194 12.2830   2
  11   7 -14 -3.5408 6.35318   2
   9   7 -14 10.8833 6.43587   2
  -9   7  14 20.5617 12.6762   2
   7   7 -14 -2.5507 5.87157   2
  -7   7  14 14.9133 11.3212   2
  -5   7  14 34.8256 11.8287   2
   5   7 -14 45.3025 7.88637   2
   3  -7 -14 17.9598 10.2868   4
   3   7 -14 6.16575 6.20396   2
  -3   7  14 3.96958 10.0574   2
   1  -7 -14 78.7641 12.3534   4
  -1   7  14 57.8037 12.4754   2
   1   7 -14 52.7033 8.69381   2
  -1  -7 -14 12.0143 7.92484   4
   1  -7  14 -0.0412 27.7050   2
  -1   7 -14 12.0667 7.01025   2
   1   7  14 32.4924 11.0896   2
  -3  -7 -14 -1.9308 6.75129   4
   3  -7  14 -7.5214 21.9721   2
  -3   7 -14 17.4289 7.78277   2
   5  -7  14 17.7351 19.7203   2
  -5  -7 -14 -4.3864 6.00626   4
   5   7  14 -11.652 13.1265   2
  -7  -7 -14 -0.0796 5.12793   4
  -7   7 -14 -8.1673 8.26615   3
  -9  -7 -14 1.18972 5.59930   4
   9  -7  14 7.27704 17.3146   2
 -11  -7 -14 0.57523 5.55485   4
  10   8 -14 1.83405 7.61990   2
   8   8 -14 17.1052 7.68164   2
  -8   8  14 4.07743 12.2915   2
   6   8 -14 11.1447 7.02175   2
  -6   8  14 -2.1569 11.7427   2
   4   8 -14 17.4116 7.51938   2
  -4   8  14 13.9889 11.5790   2
   2  -8 -14 -5.5464 10.5381   4
  -2   8  14 -8.9626 11.8282   2
   2   8 -14 3.37924 7.04371   2
   0  -8 -14 0.00031 8.68929   4
   0   8  14 1.82592 12.5377   2
   0   8 -14 -4.8340 7.04801   2
  -2  -8 -14 9.64801 7.45665   4
  -2   8 -14 5.45990 7.68579   2
  -4  -8 -14 -1.1771 6.61860   4
  -6  -8 -14 1.04236 6.20303   4
  -8  -8 -14 1.06484 7.08256   4
  16   0 -15 14.2678 10.6184   2
 -16   0  15 -14.413 27.7929   2
  14   0 -15 10.4246 9.89275   2
 -14   0  15 -12.807 17.3248   2
 -12   0  15 11.6899 15.7426   2
  12   0 -15 -1.6003 8.87316   2
 -10   0  15 -1.5544 10.1622   5
 -10   0  15 8.73733 14.0724   2
  10   0 -15 5.19961 5.95113   5
   8   0 -15 -1.0718 5.38416   5
  -8   0  15 12.0432 11.1385   5
   8   0 -15 -4.1713 8.73704   2
  -8   0  15 2.76453 12.3364   2
   6   0 -15 5.91374 4.68338   5
  -6   0  15 11.4095 11.5287   2
  -6   0  15 -2.7437 10.5161   5
  -4   0  15 9.26351 10.3561   2
  -4   0  15 -2.5603 10.0228   5
   4   0 -15 0.80824 4.46127   5
  -2   0  15 -11.152 9.43445   2
  -2   0  15 11.1196 9.62565   5
   0   0 -15 -2.6863 4.84067   5
   0   0  15 1.32784 10.1390   5
   0   0  15 7.66873 9.38761   2
  -2   0 -15 0.05123 5.69255   5
   2   0  15 4.24254 8.79169   2
   2   0  15 -6.1070 10.8352   5
   4   0  15 6.65524 8.99133   2
   4   0  15 4.65384 11.8961   5
   6   0  15 -0.1531 13.8773   5
   6   0  15 -6.4160 9.07056   2
   8   0  15 -1.9882 9.33594   2
  10   0  15 14.0491 10.7979   2
  12   0  15 -3.6905 10.9022   2
  14   0  15 0.92232 12.0339   2
  16   0  15 -3.0033 12.9229   2
  17   1 -15 2.62419 9.93159   2
  15   1 -15 10.2333 9.47617   2
 -13  -1  15 22.2930 18.2207   2
  13  -1 -15 5.89634 11.5362   2
  13   1 -15 25.0796 8.68655   2
  11  -1 -15 -4.5758 11.0590   2
 -11  -1  15 -6.6501 15.7085   2
  11   1 -15 -2.8898 7.46718   2
  11   1 -15 11.0068 10.6795   5
  -9  -1  15 -11.160 13.8584   2
   9  -1 -15 12.4348 5.61936   5
  -9  -1  15 12.0053 11.3109   5
   9   1 -15 13.4377 5.93026   5
  -9   1  15 12.3057 11.6679   5
   9   1 -15 12.4764 7.42554   2
  -7  -1  15 44.7330 11.9552   5
  -7  -1  15 48.9320 14.4594   2
   7  -1 -15 37.6897 6.32874   5
  -7   1  15 12.6128 11.6804   5
   7   1 -15 29.0567 6.27046   5
   7   1 -15 29.3796 8.25977   2
   5  -1 -15 11.1819 5.07301   5
  -5  -1  15 7.90892 11.9067   2
  -5  -1  15 13.0603 10.8085   5
   5   1 -15 11.2265 5.17763   5
  -5   1  15 -6.1374 9.77931   5
   5   1 -15 9.10885 7.81521   2
   3  -1 -15 25.1380 5.66813   5
  -3  -1  15 31.3033 11.2707   5
  -3  -1  15 30.2968 12.1690   2
   3   1 -15 23.1334 5.33096   5
   3   1 -15 25.0467 12.3490   2
  -3   1  15 20.0865 11.1572   5
  -1  -1  15 3.63362 9.94162   2
   1  -1 -15 -3.5853 5.18035   5
  -1  -1  15 10.9802 10.0211   5
  -1   1  15 2.41978 8.97644   2
  -1   1  15 11.0874 9.92800   5
   1   1 -15 1.97508 4.50736   5
   1  -1  15 1.97507 9.43421   2
   1  -1  15 -8.1512 9.35255   5
  -1   1 -15 -0.2501 4.73485   5
   1   1  15 3.96295 9.16784   2
   1   1  15 8.75755 11.1646   5
   3  -1  15 3.08316 9.39137   2
   3  -1  15 9.42750 10.4808   5
  -3   1 -15 -0.3184 5.24986   5
   3   1  15 0.42953 9.00798   2
   3   1  15 -6.5175 12.1280   5
   5  -1  15 -3.7135 9.19292   2
   5  -1  15 0.17787 11.6031   5
   5   1  15 7.76382 9.29118   2
   5   1  15 6.15465 14.2419   5
   7  -1  15 6.85116 9.60877   2
   7  -1  15 9.71202 15.3764   5
   7   1  15 -3.5780 9.12448   2
   9  -1  15 10.8661 9.91528   2
   9   1  15 -6.9079 9.53803   2
  11  -1  15 57.7621 13.2947   2
  11   1  15 65.9421 13.3916   2
  13  -1  15 -0.0492 11.2169   2
  13   1  15 -8.7535 11.5413   2
  15  -1  15 8.26887 11.8746   2
  15   1  15 6.08165 13.2842   2
  18   2 -15 -10.019 10.6995   2
  16   2 -15 4.80539 8.88507   2
 -14   2  15 8.87840 11.6205   2
  14   2 -15 13.3689 8.43761   2
 -12  -2  15 9.28833 20.4573   2
  12   2 -15 8.90346 7.54627   2
 -12   2  15 3.56128 11.3647   2
 -10  -2  15 10.8626 16.6633   2
  10   2 -15 30.3598 8.12607   2
  10   2 -15 17.4735 11.6376   5
 -10   2  15 14.0975 11.3774   2
  -8  -2  15 18.9665 12.4085   5
   8  -2 -15 21.4707 6.39846   5
  -8  -2  15 43.2983 16.3251   2
   8   2 -15 36.3934 6.88265   5
  -8   2  15 4.52866 11.3602   5
  -8   2  15 34.5167 11.2766   2
   8   2 -15 37.6850 8.23442   2
  -6  -2  15 20.6317 14.0920   2
  -6  -2  15 10.3978 11.3373   5
   6  -2 -15 14.9027 5.62178   5
  -6   2  15 4.68328 9.33357   2
  -6   2  15 25.0370 11.9829   5
   6   2 -15 16.9305 7.34769   2
   6   2 -15 9.65596 5.36663   5
   4  -2 -15 19.1330 6.15379   5
  -4  -2  15 15.4114 10.6395   5
  -4  -2  15 37.3972 14.1922   2
   4   2 -15 33.8247 6.25352   5
   4   2 -15 34.4589 8.04052   2
  -4   2  15 10.7294 11.7099   5
  -4   2  15 41.0930 10.9729   2
  -2  -2  15 18.2729 10.4982   5
  -2  -2  15 7.12411 11.4429   2
  -2   2  15 8.73743 11.4657   5
   2   2 -15 6.29942 4.76689   5
   2   2 -15 15.1516 8.19198   2
   0  -2  15 -11.178 9.47394   5
   0  -2  15 4.23289 10.4095   2
   0   2  15 7.52475 9.09470   2
   0   2 -15 -4.7019 4.63129   5
   0   2  15 -4.0262 11.9703   5
   2  -2  15 -0.8284 9.99453   2
   2  -2  15 -10.018 10.0718   5
   2   2  15 -2.8904 12.5467   5
   2   2  15 -9.4668 7.95224   2
  -2   2 -15 2.61313 4.84725   5
   4  -2  15 4.37938 11.2302   5
   4  -2  15 13.0123 10.2010   2
   4   2  15 -7.9152 8.79513   2
  -4   2 -15 1.81361 5.46338   5
   4   2  15 17.9618 16.0495   5
   6  -2  15 -0.7618 9.74075   2
   6   2  15 -0.2976 8.94504   2
   8  -2  15 -1.0691 10.1429   2
   8   2  15 5.12243 9.84888   2
  10  -2  15 23.1963 11.3930   2
  10   2  15 25.7956 12.0032   2
  12  -2  15 12.1009 10.9729   2
  12   2  15 1.86014 12.0931   2
  14  -2  15 9.74849 11.7162   2
  14   2  15 10.0314 14.0623   2
  16  -2  15 23.6957 12.3740   2
 -15   3  15 12.5611 12.1514   2
  15   3 -15 7.89962 8.15216   2
  13   3 -15 12.8639 7.84762   2
 -13   3  15 14.6295 12.5154   2
 -11  -3  15 42.7517 30.9344   2
 -11   3  15 5.18733 11.9565   2
  -9  -3  15 46.9289 20.0039   2
   9   3 -15 35.5636 7.93426   2
  -9   3  15 48.5222 13.1773   2
  -7  -3  15 12.7040 16.5364   2
  -7  -3  15 8.35982 12.2034   5
  -7   3  15 3.10968 10.2652   2
   7   3 -15 4.05682 6.47802   2
   7   3 -15 6.00414 5.81194   5
  -7   3  15 5.85684 14.7378   5
  -5  -3  15 11.7289 14.5043   2
  -5  -3  15 -8.0014 11.0880   5
   5   3 -15 1.44551 6.55443   2
  -5   3  15 11.2254 10.2331   2
  -5   3  15 11.6918 13.0852   5
   5   3 -15 6.85955 5.08956   5
  -3  -3  15 -2.5910 10.6483   5
  -3  -3  15 8.05982 12.8984   2
  -3   3  15 14.4754 12.5265   5
   3   3 -15 12.7142 7.01434   2
   3   3 -15 5.01988 5.20273   5
  -3   3  15 -2.3636 8.22268   2
  -1  -3  15 -1.4551 11.6429   2
  -1  -3  15 6.99604 11.0427   5
   1   3 -15 1.06632 4.85680   5
  -1   3  15 -0.0572 8.31256   2
   1   3 -15 4.84686 7.82949   2
   1  -3  15 13.2382 11.5694   5
   1  -3  15 4.51643 11.4905   2
  -1   3 -15 3.62580 5.26367   5
   1   3  15 0.79115 14.3915   5
  -3  -3 -15 9.44265 9.37317   4
   3  -3  15 -0.5477 11.5472   5
   3  -3  15 1.00384 11.0393   2
   3   3  15 -1.7741 8.99040   2
  -3   3 -15 -3.7735 5.35089   5
   5  -3  15 -4.6584 12.4699   5
   5  -3  15 9.03055 10.3646   2
  -5  -3 -15 -1.7789 7.84762   4
   5   3  15 15.9339 9.67068   2
   7  -3  15 0.74475 10.7114   2
  -7  -3 -15 13.2743 7.54830   4
   7   3  15 -5.5096 9.79108   2
  -9  -3 -15 6.00776 6.57837   4
   9  -3  15 2.35221 10.8082   2
   9   3  15 6.34583 10.9115   2
  11  -3  15 2.96732 11.1353   2
  11   3  15 7.69895 12.3830   2
  13  -3  15 -0.3919 11.4297   2
  13   3  15 -5.2088 15.1083   2
  15  -3  15 8.42367 11.9444   2
  16   4 -15 -2.2893 8.49289   2
 -16   4  15 -1.8068 16.5885   2
 -14   4  15 -2.4927 12.3395   2
  14   4 -15 11.2155 8.16913   2
  12   4 -15 4.07500 6.93537   2
 -12   4  15 -10.950 11.8861   2
 -10   4  15 11.4965 12.3543   2
  10   4 -15 -0.9864 6.47178   2
  -8  -4  15 7.71755 23.2137   2
  -8   4  15 -5.9556 10.5802   2
   8   4 -15 -0.1959 6.13611   2
  -6  -4  15 0.31188 18.4045   2
  -6   4  15 10.9254 10.3215   2
   6   4 -15 5.69033 6.28237   2
  -4  -4  15 -2.8874 14.6415   5
  -4  -4  15 -17.437 16.2294   2
  -4   4  15 -3.1945 9.30861   2
   4   4 -15 11.1133 6.51388   2
   4   4 -15 -4.0891 6.32028   5
  -2  -4  15 -7.9212 14.9856   2
  -2  -4  15 9.81388 12.3266   5
   2   4 -15 -0.0034 5.43157   5
   2   4 -15 1.15025 6.88594   2
  -2   4  15 -4.6915 8.92208   2
   0  -4  15 -10.025 12.2790   5
   0  -4  15 8.51090 13.5335   2
   0   4  15 2.06482 8.71367   2
   0   4 -15 5.37598 8.13640   2
   0   4 -15 -3.1941 5.98300   5
   2  -4  15 15.9842 16.3907   5
   2  -4  15 11.3385 12.5425   2
  -2  -4 -15 -0.6889 9.26682   4
  -2   4 -15 11.1198 11.6903   2
  -4  -4 -15 6.83516 8.62698   4
   4  -4  15 11.1614 12.2674   2
   4   4  15 9.84210 9.56009   2
   6  -4  15 6.06952 11.7206   2
  -6  -4 -15 7.39793 7.34496   4
   6   4  15 4.74830 10.2323   2
  -8  -4 -15 5.86888 6.84497   4
   8  -4  15 -1.5272 11.1421   2
   8   4  15 -8.0108 10.6636   2
 -10  -4 -15 8.58605 6.25658   4
  10   4  15 2.89060 13.2993   2
  12  -4  15 8.68616 11.7490   2
  14  -4  15 -1.7420 11.8803   2
 -15   5  15 15.9694 16.2249   2
  15   5 -15 15.3035 10.7567   2
  13   5 -15 5.23914 7.82444   2
 -13   5  15 4.32349 13.7294   2
 -11   5  15 33.2985 13.6816   2
  11   5 -15 18.0589 7.51005   2
  -9   5  15 21.7396 12.4432   2
   9   5 -15 8.02174 6.95248   2
  -7   5  15 41.7156 13.3795   2
   7   5 -15 41.2743 8.27659   2
  -5  -5  15 -5.3496 24.5423   2
  -5   5  15 27.7944 11.2155   2
   5   5 -15 21.8118 7.44807   2
  -3  -5  15 30.5922 20.6038   2
   3   5 -15 34.7372 7.75504   2
  -3   5  15 29.5543 11.6542   2
  -1  -5  15 29.2051 17.9282   2
   1   5 -15 7.49186 7.76754   2
  -1   5  15 -3.4174 9.51510   2
  -1  -5 -15 13.5855 9.77685   4
   1  -5  15 26.9462 16.6356   2
  -1   5 -15 19.4862 8.70614   2
   3  -5  15 21.9617 15.1811   2
  -3  -5 -15 5.55444 8.05710   4
  -3   5 -15 2.55409 13.8755   2
   3   5  15 -7.5954 10.1597   2
  -5  -5 -15 8.73829 7.54624   4
   5  -5  15 3.00137 13.4511   2
   5   5  15 25.1057 10.8641   2
   7  -5  15 24.4972 13.4935   2
  -7  -5 -15 -0.2082 6.44806   4
   7   5  15 -2.2039 12.0326   2
  -9  -5 -15 -1.3571 6.27404   4
 -11  -5 -15 -1.1094 6.23841   4
  11  -5  15 10.4360 12.6930   2
  13  -5  15 -1.1059 19.4043   2
  12   6 -15 21.9895 8.53240   2
 -12   6  15 2.91431 13.5851   2
  10   6 -15 11.4745 7.84335   2
 -10   6  15 -16.240 13.1325   2
   8   6 -15 28.3123 8.07877   2
  -8   6  15 22.0039 12.9803   2
  -6   6  15 5.07666 11.5801   2
   6   6 -15 13.5025 6.80344   2
   4   6 -15 32.3371 8.05265   2
  -4   6  15 33.0017 12.2551   2
  -2  -6  15 29.2456 37.0273   2
   2   6 -15 -2.4156 7.49720   2
  -2   6  15 2.91687 10.7029   2
   0  -6 -15 -3.3299 11.5114   4
   0  -6  15 19.4434 23.0256   2
   0   6 -15 4.30345 8.10035   2
   0   6  15 7.43980 10.3237   2
   2  -6  15 1.95257 20.2418   2
  -2  -6 -15 8.45737 8.75426   4
  -2   6 -15 2.47670 9.35191   2
   4  -6  15 22.3833 18.6003   2
   4   6  15 5.91183 12.0570   2
  -6  -6 -15 0.26527 7.11832   4
   6  -6  15 -2.3458 16.8176   2
   6   6  15 -8.2542 13.7295   2
   8  -6  15 -8.7053 15.2879   2
  -8  -6 -15 12.2430 6.73159   4
 -10  -6 -15 0.84908 8.49716   4
  -9   7  15 10.8838 14.0087   2
   9   7 -15 -3.7573 8.66110   2
  -7   7  15 -7.6057 12.6404   2
   7   7 -15 7.52878 7.70868   2
  -5   7  15 1.49502 12.1382   2
   5   7 -15 -4.6103 7.41641   2
  -3   7  15 -3.8934 11.6628   2
   3   7 -15 1.02161 7.47548   2
  -1   7  15 2.97879 11.8192   2
   1   7 -15 -3.8389 8.23578   2
  -1   7 -15 4.14563 11.8801   2
 -12   0  16 98.9870 21.1691   2
 -10   0  16 17.7988 16.2709   2
  -8   0  16 9.57352 14.6672   2
  -6   0  16 3.21998 12.9652   2
  -4   0  16 -1.4897 12.0273   2
  -2   0  16 -7.2882 10.9720   2
   0   0  16 -3.8602 10.6884   2
   2   0  16 -2.9720 10.0955   2
   4   0  16 2.23163 10.2469   2
   6   0  16 -5.9410 10.3663   2
   8   0  16 -2.6732 10.3209   2
  10   0  16 6.88580 11.3322   2
  12   0  16 3.37713 12.3802   2
  13   1 -16 47.1646 15.1186   2
 -13   1  16 34.4807 19.1569   2
 -11  -1  16 24.9375 19.2426   2
  11   1 -16 17.1970 11.3101   2
 -11   1  16 -3.0511 16.2653   2
  -9  -1  16 1.63750 16.1448   2
  -9   1  16 5.59092 15.1645   2
   9   1 -16 -0.6111 11.7483   2
  -7  -1  16 5.19491 14.6791   2
  -7   1  16 10.4736 14.1076   2
  -5  -1  16 13.1024 13.7089   2
  -5   1  16 6.42130 12.6581   2
  -3  -1  16 -3.2393 12.1581   2
  -3   1  16 7.30804 11.0395   2
  -1  -1  16 -13.028 10.9535   2
  -1   1  16 -4.6785 10.7447   2
   1  -1  16 -0.5358 10.7884   2
   1   1  16 3.68255 9.81311   2
   3  -1  16 -8.7441 10.0758   2
   3   1  16 -1.6882 9.62914   2
   5  -1  16 4.54698 10.6692   2
   5   1  16 17.1615 10.4950   2
   7  -1  16 4.26530 10.7871   2
   7   1  16 3.13314 10.9543   2
   9  -1  16 14.9846 11.1696   2
   9   1  16 2.91542 10.9331   2
  11  -1  16 15.5042 11.8933   2
  11   1  16 -1.6623 12.2631   2
  13  -1  16 19.2987 12.5519   2
  13   1  16 -11.806 15.6498   2
 -14   2  16 -3.2438 19.9769   2
  12   2 -16 14.1179 10.0904   2
 -10  -2  16 9.29072 21.1119   2
  10   2 -16 3.90752 9.86217   2
  -8  -2  16 24.4625 18.3804   2
   8   2 -16 7.27299 9.68838   2
  -6  -2  16 20.9943 16.5351   2
   6   2 -16 7.46511 10.3415   2
  -4  -2  16 4.71981 14.5596   2
  -4   2  16 13.6215 12.1496   2
  -2  -2  16 17.7866 13.4878   2
  -2   2  16 13.3706 11.4923   2
   0  -2  16 6.76643 12.1193   2
   0   2  16 5.00702 10.1498   2
   2  -2  16 6.09296 11.2469   2
   4  -2  16 -3.5964 11.1424   2
   4   2  16 0.14626 9.93306   2
   6  -2  16 0.88456 10.8622   2
   6   2  16 5.60837 10.4776   2
   8  -2  16 -2.6627 11.1934   2
   8   2  16 8.24262 11.0829   2
  10  -2  16 8.91929 11.5680   2
  10   2  16 -4.6851 12.1620   2
  12  -2  16 -4.8135 11.5254   2
  12   2  16 -2.6847 19.6598   2
  13   3 -16 17.8955 11.5429   2
  11   3 -16 21.2347 9.41141   2
 -11   3  16 26.5828 13.6046   2
  -9  -3  16 38.8753 26.0333   2
  -9   3  16 1.18464 12.3945   2
   9   3 -16 13.4839 8.93289   2
  -7  -3  16 -14.939 20.2909   2
  -7   3  16 -10.659 11.0963   2
   7   3 -16 6.77423 9.06536   2
  -5  -3  16 3.97782 17.5851   2
   5   3 -16 3.78438 9.27096   2
  -3  -3  16 4.43472 15.7809   2
   3   3 -16 3.15398 16.7103   2
  -1  -3  16 12.8977 14.2936   2
  -1   3  16 -0.9311 10.4800   2
   1  -3  16 -6.8573 12.6954   2
   1   3  16 8.95678 10.0089   2
   3  -3  16 12.9026 13.0008   2
   3   3  16 -10.630 10.0489   2
   5  -3  16 -2.2938 11.5927   2
   5   3  16 -2.3745 10.2184   2
   7  -3  16 -1.7576 12.2691   2
   7   3  16 1.84560 11.2181   2
   9  -3  16 3.18006 12.0495   2
   9   3  16 8.91239 12.5218   2
  11  -3  16 2.74157 12.3345   2
 -12   4  16 11.2170 14.6357   2
 -10   4  16 5.73870 13.1069   2
  10   4 -16 25.7174 9.27844   2
   8   4 -16 10.5133 8.79056   2
  -8   4  16 30.5026 13.6777   2
  -6  -4  16 10.9242 25.1791   2
   6   4 -16 -3.8079 8.50849   2
  -4   4  16 3.88137 11.2028   2
   4   4 -16 5.92512 9.29084   2
  -2  -4  16 -0.9336 18.0923   2
   0  -4  16 2.79002 15.8409   2
   0   4  16 6.69369 10.7502   2
   2  -4  16 5.37021 15.0265   2
   2   4  16 -10.180 10.3609   2
   4  -4  16 7.11075 13.8201   2
   4   4  16 1.26450 10.9692   2
   6  -4  16 1.57645 13.5661   2
   6   4  16 -0.6907 11.3345   2
   8  -4  16 -13.737 12.9574   2
   8   4  16 -11.121 13.4580   2
  10  -4  16 23.0225 13.4447   2
 -11   5  16 29.2736 15.4364   2
  -9   5  16 16.8615 14.1597   2
   7   5 -16 3.37191 8.59969   2
  -7   5  16 11.3966 13.5875   2
  -5   5  16 -10.163 11.1420   2
   5   5 -16 7.48273 8.95030   2
  -3  -5  16 -8.1140 33.4972   2
  -3   5  16 -1.3718 11.1244   2
  -1  -5  16 2.57091 23.0378   2
   1   5 -16 15.2876 18.1065   2
   1  -5  16 -2.6316 19.5263   2
   3  -5  16 -15.627 17.2868   2
   3   5  16 -12.618 11.2886   2
   5  -5  16 19.3203 16.6036   2
   5   5  16 9.11479 12.5787   2
   7  -5  16 10.0304 16.2592   2
  -8   6  16 5.39619 18.4736   2
  -6   6  16 1.75046 12.9946   2
  -4   6  16 12.6957 12.6145   2
   0   6  16 1.84167 12.5281   2
 -10   0  17 -4.3562 21.5494   2
  -8   0  17 -8.3535 17.7466   2
  -4   0  17 8.48887 14.7612   2
   0   0  17 -1.2385 12.4673   2
   2   0  17 19.6676 12.2345   2
   4   0  17 2.94906 11.3311   2
   6   0  17 10.0568 11.8315   2
   8   0  17 14.4180 12.3331   2
  10   0  17 6.62768 18.4953   2
  -9  -1  17 7.00403 22.8045   2
  -9   1  17 -11.470 17.4389   2
  -7  -1  17 13.4444 18.1233   2
  -7   1  17 -2.9395 15.6383   2
  -5   1  17 7.44415 14.3620   2
  -3  -1  17 6.39922 14.6704   2
  -3   1  17 17.7754 12.9802   2
  -1  -1  17 23.6329 13.7324   2
   1  -1  17 5.44349 12.9906   2
   1   1  17 7.46587 11.6578   2
   3  -1  17 7.85607 12.1897   2
   3   1  17 -13.024 11.1647   2
   5  -1  17 6.65381 12.0925   2
   5   1  17 -1.6463 11.1448   2
   7  -1  17 -1.8623 11.9539   2
   7   1  17 14.1793 12.2745   2
   9  -1  17 9.97721 12.3225   2
   9   1  17 0.73982 12.9906   2
 -10   2  17 2.74964 18.8910   2
  -8   2  17 13.3764 16.8021   2
  -6  -2  17 -7.4675 19.1954   2
  -6   2  17 -0.4391 14.3637   2
  -4  -2  17 -16.454 17.2357   2
  -4   2  17 13.9615 13.7231   2
  -2   2  17 -10.027 11.7365   2
   0  -2  17 -9.4750 14.2811   2
   0   2  17 5.11902 11.2686   2
   2  -2  17 5.08300 13.5414   2
   2   2  17 -4.5264 11.3192   2
   4  -2  17 2.54791 12.8206   2
   4   2  17 12.5144 11.7114   2
   6  -2  17 11.2825 13.2748   2
   6   2  17 6.67526 12.1480   2
   8  -2  17 2.85498 12.9729   2
   8   2  17 3.00156 15.4797   2
  -9   3  17 0.53235 17.5806   2
  -7   3  17 12.5976 15.9824   2
  -5   3  17 13.8459 13.7164   2
  -3  -3  17 24.2515 19.3630   2
  -3   3  17 -1.8253 12.2340   2
  -1  -3  17 6.95744 17.2086   2
  -1   3  17 -0.8699 11.8201   2
   1  -3  17 24.2455 15.5565   2
   1   3  17 5.22152 12.0035   2
   3  -3  17 -4.3440 14.5851   2
   3   3  17 2.50873 11.5566   2
   5  -3  17 2.32842 14.2175   2
   7  -3  17 -8.0191 13.9785   2
  -6   4  17 -16.486 15.4762   2
  -4   4  17 -4.7199 13.4352   2
  -2   4  17 11.5483 12.6313   2
   0   4  17 -5.4207 12.0585   2
   2  -4  17 15.2039 29.9672   2
   2   4  17 19.0417 12.2630   2
  -2   0  18 0.78599 16.1388   2
   0   0  18 46.4459 15.7253   2
   2   0  18 16.8097 16.3609   2
  -3   1  18 -9.7543 18.3371   2
  -1  -1  18 4.25018 25.1253   2
  -1   1  18 -5.9399 14.7583   2
   1  -1  18 -1.8229 23.5488   2
   0   0   0
;
_shelx_hkl_checksum              36804
loop_
_space_group_symop_operation_xyz
'x, y, z'
'-x, y, -z+1/2'
'x+1/2, y+1/2, z'
'-x+1/2, y+1/2, -z+1/2'
'-x, -y, -z'
'x, -y, z-1/2'
'-x+1/2, -y+1/2, -z'
'x+1/2, -y+1/2, z-1/2'
loop_
_atom_site_label
_atom_site_type_symbol
_atom_site_fract_x
_atom_site_fract_y
_atom_site_fract_z
_atom_site_U_iso_or_equiv
_atom_site_adp_type
_atom_site_occupancy
_atom_site_site_symmetry_order
_atom_site_calc_flag
_atom_site_refinement_flags_posn
_atom_site_refinement_flags_adp
_atom_site_refinement_flags_occupancy
_atom_site_disorder_assembly
_atom_site_disorder_group
Cd1 Cd 0.50668(15) 0.51209(17) 0.2735(3) 0.0578(13) Uani 0.5 1 d . . P A -1
O1W O 0.5324(12) 0.476(2) 0.416(2) 0.081(8) Uani 0.5 1 d . U P A -1
O2W O 0.4786(7) 0.554(2) 0.1183(15) 0.056(6) Uani 0.5 1 d . U P A -1
O3W O 0.5081(16) 0.308(3) 0.294(2) 0.101(10) Uani 0.5 1 d . U P A -1
Cd2 Cd 0.500000 0.8495(12) 0.250000 0.025(3) Uani 0.5 2 d S TU P A .
Cd2' Cd 0.5062(11) 0.8693(14) 0.2682(18) 0.036(3) Uani 0.25 1 d . U P A .
Cd3 Cd 0.45149(18) 1.1335(4) 0.5111(4) 0.0712(15) Uani 0.5 1 d . . P B 1
Cd3' Cd 0.4611(2) 1.1497(6) 0.4660(4) 0.092(2) Uani 0.5 1 d . . P B 2
O1 O 0.4223(5) 0.5472(11) 0.3255(12) 0.083(5) Uani 1 1 d . . . . .
O2 O 0.4436(5) 0.6922(10) 0.2297(10) 0.070(4) Uani 1 1 d . . . . .
O3 O 0.4783(4) 0.8092(11) 0.4042(8) 0.059(3) Uani 1 1 d . . . . .
O4 O 0.4434(4) 0.9393(12) 0.5035(9) 0.063(3) Uani 1 1 d . . . . .
O5 O 0.1300(13) 1.3138(14) 0.4928(16) 0.047(5) Uani 0.5 1 d D U P C 1
O6 O 0.0756(8) 1.157(3) 0.4832(18) 0.061(5) Uani 0.5 1 d D U P C 1
O5' O 0.1306(13) 1.3116(15) 0.4620(16) 0.047(5) Uani 0.5 1 d D . P C 2
O6' O 0.0791(9) 1.165(3) 0.5144(18) 0.061(5) Uani 0.5 1 d D . P C 2
O7 O 0.0508(11) 0.634(2) 0.1767(18) 0.078(6) Uani 0.5 1 d D U P D 1
O8 O 0.0652(12) 0.4666(18) 0.2635(16) 0.066(5) Uani 0.5 1 d D U P D 1
O7' O 0.0473(11) 0.587(3) 0.1615(16) 0.078(6) Uani 0.5 1 d D . P D 2
O8' O 0.0669(13) 0.483(2) 0.2919(14) 0.066(5) Uani 0.5 1 d D . P D 2
C1 C 0.4174(5) 0.6513(13) 0.2996(12) 0.049(4) Uani 1 1 d . . . . .
C2 C 0.3757(4) 0.7299(12) 0.3413(10) 0.036(3) Uani 1 1 d . . . . .
C3 C 0.3246(4) 0.7010(11) 0.3116(8) 0.028(2) Uani 1 1 d . . . . .
H3 H 0.318874 0.632170 0.271730 0.033 Uiso 1 1 calc R U . . .
C4 C 0.2810(4) 0.7699(11) 0.3384(8) 0.028(2) Uani 1 1 d . . . . .
C5 C 0.2891(5) 0.8735(10) 0.3950(8) 0.029(2) Uani 1 1 d . . . . .
C6 C 0.3413(5) 0.8966(11) 0.4282(9) 0.032(3) Uani 1 1 d . . . . .
H6 H 0.347419 0.963247 0.470153 0.038 Uiso 1 1 calc R U . . .
C7 C 0.3838(5) 0.8278(11) 0.4033(10) 0.037(3) Uani 1 1 d . . . . .
C8 C 0.4367(5) 0.8546(15) 0.4425(12) 0.052(4) Uani 1 1 d . . . . .
C9 C 0.2468(4) 0.9550(11) 0.4219(8) 0.028(2) Uani 1 1 d . . . . .
C10 C 0.2523(5) 1.0799(11) 0.4091(9) 0.033(3) Uani 1 1 d . . . . .
H10 H 0.283921 1.111531 0.385629 0.040 Uiso 1 1 calc R U . . .
C11 C 0.2119(6) 1.1582(12) 0.4305(10) 0.043(3) Uani 1 1 d . . . . .
H11 H 0.216199 1.243287 0.422010 0.052 Uiso 1 1 calc R U . . .
C12 C 0.1660(6) 1.1144(12) 0.4635(9) 0.042(3) Uani 1 1 d . . . . .
C13 C 0.1594(5) 0.9931(14) 0.4785(9) 0.043(3) Uani 1 1 d . . . . .
H13 H 0.127696 0.963849 0.503403 0.051 Uiso 1 1 calc R U . . .
C14 C 0.1992(4) 0.9119(11) 0.4574(9) 0.030(3) Uani 1 1 d . . . . .
H14 H 0.194359 0.827127 0.466990 0.036 Uiso 1 1 calc R U . . .
C15 C 0.1220(5) 1.2008(10) 0.4811(7) 0.056(4) Uani 1 1 d D . . . .
C16 C 0.2284(4) 0.7228(12) 0.3074(9) 0.033(3) Uani 1 1 d . . . . .
C17 C 0.1912(5) 0.7912(14) 0.2550(10) 0.043(3) Uani 1 1 d . . . . .
H17 H 0.199526 0.871907 0.236769 0.051 Uiso 1 1 calc R U . . .
C18 C 0.1427(6) 0.7434(18) 0.2292(12) 0.059(5) Uani 1 1 d . . . . .
H18 H 0.117785 0.790359 0.193023 0.071 Uiso 1 1 calc R U . . .
C19 C 0.1306(5) 0.6246(19) 0.2572(13) 0.064(6) Uani 1 1 d . . . . .
C20 C 0.1674(6) 0.5556(16) 0.3073(11) 0.053(4) Uani 1 1 d . . . . .
H20 H 0.159307 0.474772 0.325522 0.064 Uiso 1 1 calc R U . . .
C21 C 0.2154(5) 0.6038(13) 0.3305(10) 0.040(3) Uani 1 1 d . . . . .
H21 H 0.240784 0.554698 0.363513 0.048 Uiso 1 1 calc R U . . .
C22 C 0.0785(7) 0.5666(14) 0.2320(10) 0.074(5) Uani 1 1 d D U . . .
loop_
_atom_site_aniso_label
_atom_site_aniso_U_11
_atom_site_aniso_U_22
_atom_site_aniso_U_33
_atom_site_aniso_U_23
_atom_site_aniso_U_13
_atom_site_aniso_U_12
Cd1 0.029(2) 0.0343(9) 0.112(4) 0.0135(12) 0.0189(18) 0.0046(10)
O1W 0.090(15) 0.042(11) 0.112(16) 0.020(12) 0.036(13) 0.014(11)
O2W 0.017(8) 0.086(14) 0.063(11) -0.023(10) -0.022(8) 0.002(8)
O3W 0.116(18) 0.079(15) 0.111(17) -0.005(13) 0.029(16) 0.012(14)
Cd2 0.018(4) 0.011(3) 0.046(9) 0.000 0.004(4) 0.000
Cd2' 0.041(6) 0.028(5) 0.041(7) -0.003(4) 0.009(6) -0.008(3)
Cd3 0.0366(18) 0.0439(15) 0.130(4) -0.047(2) -0.031(2) 0.0237(12)
Cd3' 0.052(3) 0.103(4) 0.117(4) -0.074(3) -0.035(2) 0.053(2)
O1 0.070(9) 0.040(7) 0.144(13) -0.003(7) 0.057(9) 0.006(6)
O2 0.053(7) 0.045(6) 0.117(10) -0.025(6) 0.042(7) -0.018(5)
O3 0.033(5) 0.074(8) 0.071(7) -0.004(6) 0.005(5) -0.004(5)
O4 0.031(5) 0.075(8) 0.082(8) -0.020(6) -0.011(5) 0.003(5)
O5 0.054(6) 0.043(5) 0.044(11) -0.010(6) -0.012(8) 0.018(5)
O6 0.059(7) 0.059(7) 0.067(11) -0.011(8) 0.006(7) 0.031(6)
O5' 0.054(6) 0.043(5) 0.044(11) -0.010(6) -0.012(8) 0.018(5)
O6' 0.059(7) 0.059(7) 0.067(11) -0.011(8) 0.006(7) 0.031(6)
O7 0.051(7) 0.099(11) 0.084(9) -0.032(8) -0.011(7) -0.010(8)
O8 0.044(6) 0.071(8) 0.082(11) -0.060(8) -0.019(8) 0.002(6)
O7' 0.051(7) 0.099(11) 0.084(9) -0.032(8) -0.011(7) -0.010(8)
O8' 0.044(6) 0.071(8) 0.082(11) -0.060(8) -0.019(8) 0.002(6)
C1 0.027(6) 0.039(8) 0.082(11) -0.012(7) 0.016(7) -0.011(6)
C2 0.014(5) 0.035(6) 0.057(8) -0.001(6) 0.001(5) -0.002(5)
C3 0.018(5) 0.030(6) 0.035(6) -0.006(5) -0.003(4) 0.001(4)
C4 0.018(5) 0.030(6) 0.035(6) 0.003(5) 0.001(4) -0.003(4)
C5 0.030(6) 0.022(5) 0.033(6) 0.004(5) 0.003(5) 0.002(4)
C6 0.023(6) 0.026(6) 0.046(7) -0.003(5) 0.005(5) -0.008(4)
C7 0.026(6) 0.030(6) 0.054(8) -0.007(6) 0.000(5) -0.001(5)
C8 0.011(5) 0.064(10) 0.080(10) -0.035(8) 0.000(6) -0.011(6)
C9 0.019(5) 0.032(6) 0.033(6) -0.005(5) -0.004(4) 0.004(4)
C10 0.036(6) 0.030(6) 0.034(6) 0.003(5) -0.005(5) -0.002(5)
C11 0.056(9) 0.025(6) 0.047(8) -0.010(6) -0.015(6) 0.010(6)
C12 0.046(8) 0.037(7) 0.041(7) -0.004(6) -0.012(6) 0.022(6)
C13 0.032(7) 0.057(9) 0.040(7) 0.010(6) 0.003(5) 0.023(6)
C14 0.019(5) 0.032(6) 0.041(7) 0.001(5) -0.002(5) 0.009(4)
C15 0.055(10) 0.047(9) 0.064(10) -0.013(7) -0.013(8) 0.027(8)
C16 0.011(5) 0.048(7) 0.041(7) -0.008(6) -0.006(4) 0.006(5)
C17 0.020(6) 0.048(8) 0.059(9) -0.013(7) -0.011(5) 0.015(5)
C18 0.032(7) 0.080(12) 0.064(10) -0.031(9) -0.010(7) 0.026(8)
C19 0.017(6) 0.097(15) 0.078(11) -0.054(11) -0.005(6) 0.007(7)
C20 0.037(8) 0.067(10) 0.056(9) -0.023(8) 0.008(6) -0.016(7)
C21 0.019(6) 0.043(7) 0.058(8) -0.011(6) 0.002(5) 0.003(5)
C22 0.060(8) 0.084(9) 0.080(9) -0.025(8) 0.011(7) 0.008(7)
loop_
_atom_type_symbol
_atom_type_description
_atom_type_scat_dispersion_real
_atom_type_scat_dispersion_imag
_atom_type_scat_source
C C 0.0137 0.0067 'International Tables Vol C Tables 4.2.6.8 and 6.1.1.4'
H H 0.0000 0.0000 'International Tables Vol C Tables 4.2.6.8 and 6.1.1.4'
O O 0.0389 0.0241 'International Tables Vol C Tables 4.2.6.8 and 6.1.1.4'
Cd Cd 0.1061 3.6794 'International Tables Vol C Tables 4.2.6.8 and 6.1.1.4'
loop_
_geom_angle_atom_site_label_1
_geom_angle_atom_site_label_2
_geom_angle_atom_site_label_3
_geom_angle
_geom_angle_site_symmetry_1
_geom_angle_site_symmetry_3
_geom_angle_publ_flag
O1W Cd1 O3W 71.8(11) . . ?
O1W Cd1 O2W 179.6(11) . . ?
O3W Cd1 O2W 108.6(11) . . ?
O1W Cd1 O1 89.4(9) . . ?
O3W Cd1 O1 97.7(10) . . ?
O2W Cd1 O1 90.6(7) . . ?
O1W Cd1 O2 122.1(8) . . ?
O3W Cd1 O2 142.2(11) . . ?
O2W Cd1 O2 57.6(7) . . ?
O1 Cd1 O2 51.8(4) . . ?
O2 Cd2 O3 78.3(5) . . ?
O2 Cd2 O8' 168.1(8) . 3 ?
O3 Cd2 O8' 94.9(6) . 3 ?
O8 Cd2' O8' 12.2(10) 3 3 ?
O8 Cd2' O3 120.3(14) 3 . ?
O8' Cd2' O3 108.7(12) 3 . ?
O8 Cd2' O2 158.8(14) 3 . ?
O8' Cd2' O2 167.9(15) 3 . ?
O3 Cd2' O2 74.5(7) . . ?
O4 Cd3 O5 100.1(5) . 7_576 ?
O4 Cd3 O3 112.7(5) . 5_676 ?
O5 Cd3 O3 134.3(6) 7_576 5_676 ?
O4 Cd3 O6 157.9(5) . 7_576 ?
O5 Cd3 O6 57.7(6) 7_576 7_576 ?
O3 Cd3 O6 86.3(6) 5_676 7_576 ?
O4 Cd3 C15 128.8(4) . 7_576 ?
O5 Cd3 C15 28.8(4) 7_576 7_576 ?
O3 Cd3 C15 110.2(4) 5_676 7_576 ?
O6 Cd3 C15 29.1(4) 7_576 7_576 ?
O4 Cd3 Cd2' 93.7(5) . 5_676 ?
O5 Cd3 Cd2' 108.0(8) 7_576 5_676 ?
O3 Cd3 Cd2' 41.7(5) 5_676 5_676 ?
O6 Cd3 Cd2' 93.6(7) 7_576 5_676 ?
C15 Cd3 Cd2' 100.2(5) 7_576 5_676 ?
O6' Cd3' O4 137.0(6) 7_576 . ?
O3 Cd3' O4 97.7(5) 5_676 . ?
O3 Cd3' O5' 103.4(6) 5_676 7_576 ?
O4 Cd3' O5' 83.9(5) . 7_576 ?
O3 Cd3' O4 51.9(4) 5_676 5_676 ?
O4 Cd3' O4 77.8(4) . 5_676 ?
C1 O1 Cd1 98.5(9) . . ?
C1 O2 Cd2 121.0(10) . . ?
C1 O2 Cd2' 116.1(11) . . ?
Cd2 O2 Cd2' 5.0(6) . . ?
C1 O2 Cd1 83.6(10) . . ?
Cd2 O2 Cd1 99.7(5) . . ?
Cd2' O2 Cd1 98.9(8) . . ?
C8 O3 Cd2' 123.2(14) . . ?
C8 O3 Cd3 108.7(9) . 5_676 ?
Cd2' O3 Cd3 95.9(8) . 5_676 ?
C8 O3 Cd2 123.0(11) . . ?
Cd2' O3 Cd2 8.8(4) . . ?
Cd3 O3 Cd2 103.5(5) 5_676 . ?
C8 O3 Cd3' 97.0(9) . 5_676 ?
Cd2' O3 Cd3' 113.1(8) . 5_676 ?
Cd3 O3 Cd3' 17.3(2) 5_676 5_676 ?
Cd2 O3 Cd3' 120.8(5) . 5_676 ?
C8 O4 Cd3 140.4(12) . . ?
C8 O4 Cd3' 124.9(12) . . ?
C8 O4 Cd3' 86.4(8) . 5_676 ?
Cd3 O4 Cd3' 105.9(5) . 5_676 ?
C15 O5 Cd3 96.4(17) . 7_576 ?
C15 O6 Cd3 84.5(16) . 7_576 ?
C15 O5' Cd3' 84.8(16) . 7_576 ?
C15 O6' Cd3' 99.5(18) . 7_576 ?
C22 O8 Cd2' 140(2) . 3_445 ?
C22 O8 Cd2 138(2) . 3_445 ?
C22 O8' Cd2' 122.1(19) . 3_445 ?
C22 O8' Cd2 118.2(17) . 3_445 ?
O1 C1 O2 120.6(14) . . ?
O1 C1 C2 119.5(13) . . ?
O2 C1 C2 119.5(14) . . ?
C3 C2 C7 118.6(11) . . ?
C3 C2 C1 114.8(11) . . ?
C7 C2 C1 126.6(11) . . ?
C2 C3 C4 122.4(11) . . ?
C5 C4 C3 119.3(10) . . ?
C5 C4 C16 124.2(10) . . ?
C3 C4 C16 116.5(10) . . ?
C4 C5 C6 116.7(10) . . ?
C4 C5 C9 123.4(11) . . ?
C6 C5 C9 119.9(11) . . ?
C7 C6 C5 123.7(11) . . ?
C6 C7 C2 119.0(11) . . ?
C6 C7 C8 120.9(12) . . ?
C2 C7 C8 120.1(11) . . ?
O4 C8 O3 118.0(11) . . ?
O4 C8 C7 119.9(12) . . ?
O3 C8 C7 121.0(12) . . ?
C10 C9 C14 118.0(11) . . ?
C10 C9 C5 119.4(11) . . ?
C14 C9 C5 122.6(11) . . ?
C11 C10 C9 120.4(12) . . ?
C12 C11 C10 120.7(12) . . ?
C13 C12 C11 120.7(12) . . ?
C13 C12 C15 120.0(13) . . ?
C11 C12 C15 119.3(12) . . ?
C12 C13 C14 120.0(13) . . ?
C13 C14 C9 120.2(12) . . ?
O5' C15 O6' 122.3(18) . . ?
O5 C15 O6 120.8(18) . . ?
O5 C15 C12 121.8(19) . . ?
O5' C15 C12 116.0(19) . . ?
O6' C15 C12 121.7(18) . . ?
O6 C15 C12 117.5(18) . . ?
C12 C15 Cd3 171.8(8) . 7_576 ?
C21 C16 C17 117.8(12) . . ?
C21 C16 C4 118.7(11) . . ?
C17 C16 C4 123.5(12) . . ?
C18 C17 C16 121.1(15) . . ?
C17 C18 C19 119.1(15) . . ?
C20 C19 C18 120.3(14) . . ?
C20 C19 C22 117.6(18) . . ?
C18 C19 C22 122.1(16) . . ?
C21 C20 C19 119.6(16) . . ?
C20 C21 C16 122.1(14) . . ?
O8 C22 O7 126(2) . . ?
O7' C22 O8' 119(2) . . ?
O8 C22 C19 123(2) . . ?
O7' C22 C19 129(2) . . ?
O7 C22 C19 111.1(19) . . ?
O8' C22 C19 111.9(19) . . ?
loop_
_geom_bond_atom_site_label_1
_geom_bond_atom_site_label_2
_geom_bond_distance
_geom_bond_site_symmetry_2
_geom_bond_publ_flag
Cd1 O1W 2.12(3) . ?
Cd1 O3W 2.27(3) . ?
Cd1 O2W 2.32(2) . ?
Cd1 O1 2.330(13) . ?
Cd1 O2 2.607(14) . ?
Cd2 O8 2.10(3) 3 ?
Cd2 O2 2.258(14) . ?
Cd2 O3 2.305(12) . ?
Cd2 O8' 2.31(3) 3 ?
Cd2' O8' 2.00(3) 3 ?
Cd3 O4 2.147(14) . ?
Cd3 O5 2.15(3) 7_576 ?
Cd3 O3 2.201(12) 5_676 ?
Cd3 O6 2.41(3) 7_576 ?
Cd3' O6' 2.30(3) 7_576 ?
Cd3' O3 2.387(13) 5_676 ?
Cd3' O4 2.420(15) . ?
Cd3' O5' 2.62(3) 7_576 ?
Cd3' O4 2.639(12) 5_676 ?
O1 C1 1.206(19) . ?
O2 C1 1.294(19) . ?
O3 C8 1.306(17) . ?
O4 C8 1.273(18) . ?
O5 C15 1.268(15) . ?
O6 C15 1.279(15) . ?
O5' C15 1.268(15) . ?
O6' C15 1.269(15) . ?
O7 C22 1.270(16) . ?
O8 C22 1.238(16) . ?
O7' C22 1.265(16) . ?
O8' C22 1.291(16) . ?
C1 C2 1.506(18) . ?
C2 C3 1.386(16) . ?
C2 C7 1.396(18) . ?
C3 C4 1.409(16) . ?
C4 C5 1.400(16) . ?
C4 C16 1.485(15) . ?
C5 C6 1.414(17) . ?
C5 C9 1.464(16) . ?
C6 C7 1.377(17) . ?
C7 C8 1.465(16) . ?
C9 C10 1.393(17) . ?
C9 C14 1.411(16) . ?
C10 C11 1.383(19) . ?
C11 C12 1.36(2) . ?
C12 C13 1.36(2) . ?
C12 C15 1.496(18) . ?
C13 C14 1.392(16) . ?
C16 C21 1.39(2) . ?
C16 C17 1.396(17) . ?
C17 C18 1.38(2) . ?
C18 C19 1.40(3) . ?
C19 C20 1.38(3) . ?
C19 C22 1.50(2) . ?
C20 C21 1.359(19) . ?
