#------------------------------------------------------------------------------
#$Date: 2022-11-26 01:34:03 +0200 (Sat, 26 Nov 2022) $
#$Revision: 279573 $
#$URL: file:///home/coder/svn-repositories/cod/cif/7/24/59/7245917.cif $
#------------------------------------------------------------------------------
#
# This file is available in the Crystallography Open Database (COD),
# http://www.crystallography.net/
#
# All data on this site have been placed in the public domain by the
# contributors.
#
data_7245917
loop_
_publ_author_name
'Cao, Shouying'
'Fan, Chenpeng'
'Lu, Mengwen'
'Li, Meng'
'Zhou, Yuhang'
'Wang, Hongxia'
'Lin, Qingfang'
'Liang, Li-Li'
_publ_section_title
;
 Two heptanuclear-based 3D metal-organic frameworks with good
 magnetocaloric effect
;
_journal_name_full               CrystEngComm
_journal_paper_doi               10.1039/D2CE01350A
_journal_year                    2022
_chemical_formula_moiety         '0.5(C30 H76 Gd14 N6 O64), 4(Cl)'
_chemical_formula_sum            'C15 H38 Cl4 Gd7 N3 O32'
_chemical_formula_weight         2015.03
_space_group_crystal_system      hexagonal
_space_group_IT_number           176
_space_group_name_Hall           '-P 6c'
_space_group_name_H-M_alt        'P 63/m'
_atom_sites_solution_hydrogens   mixed
_audit_creation_date             2022-07-13
_audit_creation_method
;
Olex2 1.2
(compiled 2018.05.29 svn.r3508 for OlexSys, GUI svn.r5506)
;
_audit_update_record
;
2022-11-03 deposited with the CCDC.	2022-11-25 downloaded from the CCDC.
;
_cell_angle_alpha                90
_cell_angle_beta                 90
_cell_angle_gamma                120
_cell_formula_units_Z            2
_cell_length_a                   12.1692(5)
_cell_length_b                   12.1692(5)
_cell_length_c                   18.0220(11)
_cell_measurement_reflns_used    6509
_cell_measurement_temperature    170(2)
_cell_measurement_theta_max      27.442
_cell_measurement_theta_min      2.239
_cell_volume                     2311.31(19)
_computing_cell_refinement       'SAINT V8.40A (?, 2016)'
_computing_data_reduction        'SAINT V8.40A (?, 2016)'
_computing_molecular_graphics    'Olex2 (Dolomanov et al., 2009)'
_computing_publication_material  'Olex2 (Dolomanov et al., 2009)'
_computing_structure_refinement  'ShelXL (Sheldrick, 2015)'
_computing_structure_solution    'ShelXT (Sheldrick, 2015)'
_diffrn_ambient_temperature      170.0
_diffrn_measured_fraction_theta_full 0.999
_diffrn_measured_fraction_theta_max 0.999
_diffrn_measurement_device_type  'Bruker APEX-II CCD'
_diffrn_measurement_method       '\f and \w scans'
_diffrn_radiation_type           MoK\a
_diffrn_radiation_wavelength     0.71073
_diffrn_reflns_av_R_equivalents  0.0561
_diffrn_reflns_av_unetI/netI     0.0288
_diffrn_reflns_Laue_measured_fraction_full 0.999
_diffrn_reflns_Laue_measured_fraction_max 0.999
_diffrn_reflns_limit_h_max       15
_diffrn_reflns_limit_h_min       -14
_diffrn_reflns_limit_k_max       14
_diffrn_reflns_limit_k_min       -15
_diffrn_reflns_limit_l_max       23
_diffrn_reflns_limit_l_min       -21
_diffrn_reflns_number            18930
_diffrn_reflns_point_group_measured_fraction_full 0.999
_diffrn_reflns_point_group_measured_fraction_max 0.999
_diffrn_reflns_theta_full        25.242
_diffrn_reflns_theta_max         27.502
_diffrn_reflns_theta_min         2.239
_diffrn_standards_number         0
_exptl_absorpt_coefficient_mu    10.220
_exptl_absorpt_correction_T_max  0.2616
_exptl_absorpt_correction_T_min  0.1916
_exptl_absorpt_correction_type   multi-scan
_exptl_absorpt_process_details
'SADABS-2016/2 (Bruker,2016/2) was used for absorption correction. wR2(int) was 0.0812 before and 0.0493 after correction. The Ratio of minimum to maximum transmission is 0.7324. The \l/2 correction factor is Not present.'
_exptl_crystal_colour            colourless
_exptl_crystal_colour_primary    colourless
_exptl_crystal_density_diffrn    2.895
_exptl_crystal_description       block
_exptl_crystal_F_000             1842
_exptl_crystal_size_max          0.12
_exptl_crystal_size_mid          0.09
_exptl_crystal_size_min          0.08
_refine_diff_density_max         1.668
_refine_diff_density_min         -1.958
_refine_diff_density_rms         0.250
_refine_ls_extinction_method     none
_refine_ls_goodness_of_fit_ref   1.073
_refine_ls_hydrogen_treatment    constr
_refine_ls_matrix_type           full
_refine_ls_number_parameters     129
_refine_ls_number_reflns         1829
_refine_ls_number_restraints     8
_refine_ls_restrained_S_all      1.074
_refine_ls_R_factor_all          0.0415
_refine_ls_R_factor_gt           0.0327
_refine_ls_shift/su_max          0.001
_refine_ls_shift/su_mean         0.000
_refine_ls_structure_factor_coef Fsqd
_refine_ls_weighting_details
'w=1/[\s^2^(Fo^2^)+(0.0259P)^2^+41.5045P] where P=(Fo^2^+2Fc^2^)/3'
_refine_ls_weighting_scheme      calc
_refine_ls_wR_factor_gt          0.0746
_refine_ls_wR_factor_ref         0.0798
_reflns_Friedel_coverage         0.000
_reflns_number_gt                1561
_reflns_number_total             1829
_reflns_threshold_expression     'I > 2\s(I)'
_cod_data_source_file            d2ce01350a2.cif
_cod_data_source_block           gd7_0m
_cod_original_cell_volume        2311.3(2)
_cod_database_code               7245917
_shelx_shelxl_version_number     2016/6
_shelx_space_group_comment
;
The symmetry employed for this shelxl refinement is uniquely defined
by the following loop, which should always be used as a source of
symmetry information in preference to the above space-group names.
They are only intended as comments.
;
_shelx_estimated_absorpt_t_max   0.495
_shelx_estimated_absorpt_t_min   0.374
_olex2_refinement_description
;
1. Fixed Uiso
 At 1.2 times of:
  All C(H) groups, All C(H,H) groups, All N(H) groups, All O(H) groups
 At 1.5 times of:
  All O(H,H) groups
2. Shared sites
{O1, O1A}
{O2, O2A}
{C1, C1A}
3. Restrained distances
 H6-O6
 0.85 with sigma of 0.02
 O5-H5
 0.85 with sigma of 0.02
4. Uiso/Uaniso restraints and constraints
Uanis(Cl3) \\sim Ueq: with sigma of 0.01 and sigma for terminal atoms of 0.02
Uanis(O1) = Uanis(O1A)
Uanis(O2) = Uanis(O2A)
Uanis(C1) = Uanis(C1A)
5. Others
 Fixed Sof: O1(0.5) O2(0.5) O3(0.5) O4(0.5) N1(0.5) H1(0.5) C1(0.5) C2(0.5)
 H2A(0.5) H2B(0.5) C3(0.5) H3A(0.5) H3B(0.5) Cl1(0.16667) Cl2(0.4) Cl3(0.1)
 O1A(0.5) O2A(0.5) C1A(0.5) H1A(0.5)
6.a Riding coordinates:
 O5(H5), O6(H6), O7(H7A,H7B), C3(H3A,H3B)
6.b Ternary CH refined with riding coordinates:
 N1(H1)
6.c Secondary CH2 refined with riding coordinates:
 C2(H2A,H2B)
6.d Aromatic/amide H refined with riding coordinates:
 C1A(H1A)
;
_shelx_res_file
;
TITL gd7_0m_a.res in P6(3)/m
    gd7_0m.res
    created by SHELXL-2016/6 at 10:21:26 on 13-Jul-2022
REM Old TITL gd7_0m in P6(3)/m
REM SHELXT solution in P6(3)/m
REM R1 0.074, Rweak 0.003, Alpha 0.072, Orientation as input
REM Formula found by SHELXT: C27 N3 O31 Gd7
CELL 0.71073 12.1692 12.1692 18.022 90 90 120
ZERR 2 0.0005 0.0005 0.0011 0 0 0
LATT 1
SYMM -Y,+X-Y,+Z
SYMM +Y-X,-X,+Z
SYMM -X,-Y,0.5+Z
SYMM +Y,-X+Y,0.5+Z
SYMM -Y+X,+X,0.5+Z
SFAC C H Cl Gd N O
UNIT 30 76 8 14 6 64
EQIV $1 +X,+Y,1.5-Z
DFIX 0.85 H6 O6
DFIX 0.85 O5 H5
ISOR 0.01 0.02 Cl3
EADP O1 O1A
EADP O2 O2A
EADP C1 C1A
EXYZ O1 O1A
EXYZ O2 O2A
EXYZ C1 C1A

L.S. 20 0 152
PLAN  20
SIZE 0.08 0.09 0.12
TEMP -103.15
FREE C3 C3_$1
FREE O3 C3_$1
FREE O3 N1_$1
FREE O4 O4_$1
FREE O4 O3_$1
list 4
fmap 2
acta
OMIT -1 2 0
OMIT 0 1 0
REM <olex2.extras>
REM <HklSrc "%.\\gd7_0m.hkl">
REM </olex2.extras>

WGHT    0.025900   41.504501
FVAR       0.17053
GD1   4    0.333333    0.666667    0.750000    10.16667    0.01209    0.01209 =
         0.01004    0.00000    0.00000    0.00604
GD2   4    0.126883    0.523037    0.583594    11.00000    0.01094    0.01458 =
         0.01740   -0.00205    0.00024    0.00555
PART 1
O1    6   -0.075611    0.373387    0.517781    10.50000    0.01370    0.01685 =
         0.02458    0.00119    0.00042    0.00664
O2    6   -0.216614    0.172135    0.490388    10.50000    0.02249    0.01692 =
         0.03822    0.00005   -0.01527    0.00438
O3    6    0.012925    0.368384    0.828312    10.50000    0.01639    0.02311 =
         0.00976   -0.00127   -0.00338    0.00300
O4    6    0.104284    0.494066    0.730146    10.50000    0.01542    0.01737 =
         0.02404    0.00615    0.00362    0.00736
PART 0
O5    6    0.333333    0.666667    0.532046    10.33333    0.01577    0.01577 =
         0.01493    0.00000    0.00000    0.00788
AFIX   3
H5    2    0.333333    0.666667    0.484876    10.33333   -1.20000
AFIX   0
O6    6    0.225021    0.708566    0.652384    11.00000    0.01744    0.01628 =
         0.01378   -0.00024    0.00109    0.01059
AFIX   3
H6    2    0.183121    0.739696    0.671294    11.00000   -1.20000
AFIX   0
O7    6   -0.048915    0.551499    0.630320    11.00000    0.01992    0.03558 =
         0.03551   -0.00181   -0.00054    0.01524
AFIX   3
H7A   2   -0.114275    0.475339    0.638220    11.00000   -1.50000
H7B   2   -0.075425    0.583359    0.595460    11.00000   -1.50000
AFIX   0
PART 1
N1    5    0.013082    0.293535    0.636880    10.50000    0.01858    0.01587 =
         0.01655   -0.00285   -0.00118    0.00994
AFIX  13
H1    2    0.091061    0.287699    0.646013    10.50000   -1.20000
AFIX   0
C1    1   -0.123926    0.254500    0.525799    10.50000    0.01851    0.02004 =
         0.02342   -0.00066   -0.00350    0.00623
C2    1   -0.069099    0.199363    0.582898    10.50000    0.01874    0.01970 =
         0.01260   -0.00646   -0.01034    0.01080
AFIX  23
H2A   2   -0.139936    0.127400    0.609219    10.50000   -1.20000
H2B   2   -0.020372    0.166427    0.556279    10.50000   -1.20000
AFIX   0
C3    1   -0.054685    0.283345    0.707871    10.50000    0.01481    0.01550 =
         0.02048   -0.00090   -0.00155    0.00036
AFIX   3
H3A   2   -0.134605    0.283595    0.698041    10.50000   -1.20000
H3B   2   -0.073926    0.204285    0.734181    10.50000   -1.20000
AFIX   0
C4    1    0.026554    0.387520    0.750000    10.50000    0.01472    0.01968 =
         0.04672    0.00000    0.00000    0.01367

PART 0
CL1   3   -0.333333    0.333333    0.650344    10.16667    0.04441    0.04441 =
         0.08334    0.00000    0.00000    0.02220

PART 1
CL2   3    0.225278    0.271079    0.750000    10.40000    0.06155    0.05375 =
         0.08539    0.00000    0.00000    0.03592

PART 0
PART 2
CL3   3    0.241149    0.265731    0.671425    10.10000    0.11127    0.05812 =
         0.06687    0.00359   -0.05089    0.04233

O1A   6   -0.075611    0.373387    0.517781    10.50000    0.01370    0.01685 =
         0.02458    0.00119    0.00042    0.00664
O2A   6   -0.216614    0.172135    0.490388    10.50000    0.02249    0.01692 =
         0.03822    0.00005   -0.01527    0.00438
C1A   1   -0.123926    0.254500    0.525799    10.50000    0.01851    0.02004 =
         0.02342   -0.00066   -0.00350    0.00623
AFIX  43
H1A   2   -0.086510    0.225987    0.561622    10.50000   -1.20000
AFIX   0
HKLF 4




REM  gd7_0m_a.res in P6(3)/m
REM R1 =  0.0327 for    1561 Fo > 4sig(Fo)  and  0.0415 for all    1829 data
REM    129 parameters refined using      8 restraints

END

WGHT      0.0259     41.4809

REM Highest difference peak  1.668,  deepest hole -1.958,  1-sigma level  0.250
Q1    1   0.1892  0.2421  0.6918  11.00000  0.05    1.67
Q2    1  -0.0169  0.0425  0.6392  11.00000  0.05    1.65
Q3    1  -0.0826  0.6225  0.6518  11.00000  0.05    1.63
Q4    1  -0.2987  0.2980  0.6321  11.00000  0.05    1.54
Q5    1   0.0000  0.0000  0.6618  10.33333  0.05    1.49
Q6    1  -0.2697  0.3727  0.7500  10.50000  0.05    1.33
Q7    1  -0.3333  0.3333  0.7032  10.33333  0.05    0.98
Q8    1   0.2365  0.2770  0.6407  11.00000  0.05    0.96
Q9    1   0.3192  0.3566  0.7500  10.50000  0.05    0.92
Q10   1  -0.1198  0.4911  0.7500  10.50000  0.05    0.84
Q11   1   0.1907  0.1882  0.6613  11.00000  0.05    0.82
Q12   1   0.1371  0.6056  0.7500  10.50000  0.05    0.78
Q13   1  -0.2810  0.4253  0.7500  10.50000  0.05    0.74
Q14   1   0.0279  0.0854  0.5072  11.00000  0.05    0.74
Q15   1   0.1439  0.3626  0.7500  10.50000  0.05    0.73
Q16   1   0.3223  0.2773  0.7500  10.50000  0.05    0.72
Q17   1   0.3954  0.3138  0.7500  10.50000  0.05    0.69
Q18   1  -0.1369  0.5201  0.6569  11.00000  0.05    0.68
Q19   1   0.3849  0.5995  0.7500  10.50000  0.05    0.67
Q20   1  -0.3987  0.3787  0.6743  11.00000  0.05    0.67
;
_shelx_res_checksum              73413
_shelx_hkl_file
;
  -1   0   0 3431.76   84.99
   1   0   0 3114.39   83.19
  -2   0   0 1207.48   40.70
  -2   0   0 1194.98   42.90
   2   0   0 1186.48   42.30
   2   0   0 1240.98   41.10
  -3   0   0   13.40    6.00
  -3   0   0   16.80    5.60
   3   0   0   15.00    5.20
   3   0   0    8.90    4.00
  -4   0   0 1710.33   63.89
   4   0   0 1619.24   66.49
   4   0   0 1799.42   65.19
  -5   0   0  303.37   25.60
   5   0   0  298.07   25.40
   5   0   0  346.07   28.70
  -6   0   0  132.59   21.40
   6   0   0  161.48   20.10
   6   0   0  148.19   25.00
  -7   0   0   46.00   13.10
   7   0   0   44.10   12.60
   7   0   0   17.40   10.10
   8   0   0 1888.51   88.99
   8   0   0 1851.91   91.49
  -9   0   0   -1.00    9.80
   9   0   0   24.20   14.80
   9   0   0   25.00   11.00
  10   0   0  177.88   32.00
  11   0   0  884.51   65.79
  12   0   0  266.17   44.50
  13   0   0  -24.10   12.30
  14  -1   0  247.38   45.80
  13  -1   0   88.69   25.70
  12  -1   0 1634.74   95.89
  11  -1   0   22.90   14.30
   9  -1   0 1489.15   82.79
   9  -1   0 1466.15   78.29
  -9   1   0 1360.36   75.79
   8  -1   0   14.50    9.60
   8  -1   0    6.50    8.40
  -8   1   0   22.30    9.70
   7  -1   0   39.30   13.40
   7  -1   0   68.79   15.80
  -7   1   0   90.99   18.00
   6  -1   0 1910.61   76.09
   6  -1   0 1798.42   80.09
  -6   1   0 1817.22   74.89
   5  -1   0 6666.33  183.98
   5  -1   0 6991.00  198.48
  -5   1   0 6693.03  188.78
   4  -1   0   56.19   10.20
   4  -1   0   68.89   13.10
  -4   1   0   68.89   11.80
  -4   1   0   50.59   11.60
   3  -1   0  179.88   14.20
   3  -1   0  204.88   17.10
  -3   1   0  218.58   17.70
  -3   1   0  238.18   16.20
   2  -1   0  289.87   16.50
   2  -1   0  289.07   14.90
  -2   1   0  254.37   14.10
  -2   1   0  285.87   16.70
  -1  -1   0  298.57   15.60
  -1  -1   0  261.07   13.90
   1   1   0  274.27   15.30
   1   1   0  292.07   14.30
  -2  -1   0 2498.35   74.19
  -2  -1   0 2527.85   74.29
   2   1   0 2361.96   73.39
   2   1   0 2312.37   72.29
  -3  -1   0 7648.03  198.58
   3   1   0 8123.49  200.78
   3   1   0 7245.18  198.18
  -4  -1   0   55.99   13.00
   4   1   0   41.40   10.80
   4   1   0   27.50    8.80
  -5  -1   0 4039.90  128.89
   5   1   0 3881.21  129.89
   5   1   0 3971.80  128.99
  -6  -1   0 2106.69   86.09
   6   1   0 1972.30   84.89
   6   1   0 1843.62   84.69
  -7  -1   0   24.60   11.00
   7   1   0   19.60   10.90
   7   1   0   21.30   10.30
  -8  -1   0  936.61   60.89
   8   1   0  962.30   62.09
   8   1   0  987.30   99.69
   9   1   0  390.36   41.40
  10   1   0  274.97   34.90
  11   1   0  483.65   49.50
  12   1   0  129.79   30.40
  13   1   0  992.10   79.49
  14  -2   0  283.47   45.60
  13  -2   0   -7.20   13.60
  12  -2   0  558.64   53.09
  11  -2   0  129.19   28.30
  10  -2   0    6.00    9.20
   9  -2   0 1245.98   68.99
   9  -2   0 1324.67   76.09
  -9   2   0 1148.89   66.99
   8  -2   0  987.90   62.39
   8  -2   0 1082.39   59.19
  -8   2   0  997.20   57.79
   7  -2   0 7177.98  211.98
   7  -2   0 6643.94  197.88
  -7   2   0 7054.79  201.18
   6  -2   0 4590.34  137.09
   6  -2   0 4389.76  144.39
  -6   2   0 4457.05  136.69
   5  -2   0  978.60   49.99
   5  -2   0  980.30   45.00
  -5   2   0  975.80   45.20
  -5   2   0  913.21   49.40
   4  -2   0    3.10    3.00
   4  -2   0    6.00    4.70
  -4   2   0    0.40    3.40
  -4   2   0   14.40    5.10
   3  -2   0 2483.45   75.89
   3  -2   0 2338.37   71.29
  -3   2   0 2477.65   72.79
  -3   2   0 2423.66   76.09
   2  -2   0 1264.17   41.30
   2  -2   0 1205.58   39.80
  -2   2   0 1230.18   40.50
  -2   2   0 1240.88   41.30
   1  -2   0  270.07    9.80
   0   2   0 1036.90   26.90
  -1  -2   0  196.38   14.80
   1   2   0  177.38   11.80
  -2  -2   0    4.20    4.00
   2   2   0    4.10    3.40
   2   2   0    5.80    3.80
  -3  -2   0  307.37   24.10
   3   2   0  330.57   24.00
   3   2   0  293.37   24.10
  -4  -2   0 2070.89   80.19
   4   2   0 2087.39   81.99
   4   2   0 2000.40   78.19
  -5  -2   0  675.23   43.60
   5   2   0  651.03   43.30
   5   2   0  731.13   46.30
  -6  -2   0 2436.76  100.09
   6   2   0 2533.25  101.39
   6   2   0 2397.96  100.99
  -7  -2   0  480.95   41.20
   7   2   0  528.15   43.20
   7   2   0  450.05   41.50
   8   2   0 5677.73  194.28
   8   2   0 5675.43  193.68
   9   2   0  595.74   52.59
  10   2   0   22.70   13.90
  11   2   0  -16.50   11.10
  12   2   0  386.76   48.80
  14  -3   0  307.27   60.19
  13  -3   0  391.96   43.80
  12  -3   0 3777.22  153.58
  11  -3   0  252.67   31.20
  10  -3   0   58.69   16.60
  10  -3   0   54.89   18.20
 -10   3   0   75.99   19.50
   9  -3   0    3.90    6.20
  -9   3   0   25.90   13.60
   8  -3   0 1137.29   65.89
   8  -3   0  967.60   55.29
  -8   3   0 1046.70   58.49
   7  -3   0  504.75   40.00
   7  -3   0  477.75   34.50
  -7   3   0  490.35   35.60
   6  -3   0 3666.73  124.29
  -6   3   0 3692.93  117.59
   5  -3   0  322.47   23.60
   5  -3   0  268.07   23.80
  -5   3   0  320.57   24.10
   4  -3   0 8037.00  206.28
   4  -3   0 7909.41  202.28
  -4   3   0 7952.80  207.78
  -4   3   0 7881.31  203.38
   3  -3   0   11.30    4.30
   3  -3   0   16.60    5.50
  -3   3   0   16.60    5.40
  -3   3   0   20.40    5.70
   2  -3   0  205.98   11.80
   2  -3   0  208.48   15.90
   0   3   0   13.50    2.50
  -1  -3   0   68.59   11.70
   1   3   0   61.59    7.10
  -2  -3   0  998.00   46.30
   2   3   0  900.31   38.90
  -3  -3   0 4032.30  123.29
   3   3   0 3557.74  113.29
  -4  -3   0  614.94   40.90
   4   3   0  587.64   46.80
   4   3   0  608.84   41.30
  -5  -3   0  422.36   35.20
   5   3   0  408.56   35.40
   5   3   0  412.86   33.70
  -6  -3   0  416.96   44.20
   6   3   0  388.56   37.00
   6   3   0  404.46   35.40
  -7  -3   0 1303.67   74.89
   7   3   0 1372.46   75.49
   7   3   0 1373.86   78.39
   8   3   0  980.20   67.79
   8   3   0  907.91   61.89
   9   3   0  469.15   48.90
  10   3   0  643.54   58.79
  15  -4   0   38.40   20.90
  14  -4   0  208.88   38.00
  13  -4   0 1061.19   73.59
  12  -4   0 1105.09   72.79
  11  -4   0  587.14   49.00
  10  -4   0  843.62   61.09
  10  -4   0  868.31   57.19
 -10   4   0  841.52   57.39
   9  -4   0 2988.10  121.89
   9  -4   0 2779.92  109.89
  -9   4   0 2772.52  112.49
   8  -4   0   55.39   16.40
   8  -4   0   54.99   14.20
  -8   4   0   61.79   14.80
   7  -4   0  617.54   43.70
   7  -4   0  613.74   39.30
  -7   4   0  623.54   40.60
   6  -4   0 2036.00   77.89
   6  -4   0 2102.79   83.69
  -6   4   0 2219.28   82.19
   5  -4   0   20.70    7.30
   5  -4   0   42.00   10.60
  -5   4   0   38.50   10.20
   4  -4   0 1730.63   63.79
   4  -4   0 1722.63   61.59
  -4   4   0 1702.03   64.39
   3  -4   0   70.99    8.20
   3  -4   0   62.19   11.30
   2  -4   0    8.40    2.60
   0   4   0 1710.33   43.70
  -1  -4   0 6654.83  183.18
   1   4   0 6387.16  159.68
  -2  -4   0 4477.45  136.99
   2   4   0 4414.16  122.59
  -3  -4   0  469.75   35.10
   3   4   0  498.55   31.30
  -4  -4   0   41.20   13.90
   4   4   0   60.69   13.70
  -5  -4   0 1532.55   77.49
   5   4   0 1469.45   70.49
  -6  -4   0  594.64   46.80
   6   4   0  578.54   43.80
   6   4   0  527.55   46.10
   7   4   0  961.70   62.09
   7   4   0  957.60   71.09
   8   4   0    9.10   13.00
   8   4   0   24.90   13.90
   9   4   0   54.59   20.80
  15  -5   0   39.70   22.10
  14  -5   0    9.90    9.20
  13  -5   0 1187.38   77.79
  12  -5   0   11.80   12.60
  10  -5   0  385.06   37.20
  10  -5   0  474.45   44.00
 -10   5   0  423.16   40.10
   9  -5   0 1347.17   70.19
   9  -5   0 1470.35   78.19
  -9   5   0 1500.35   76.49
   8  -5   0  410.16   33.80
   8  -5   0  404.16   36.50
  -8   5   0  429.06   35.30
   7  -5   0  637.64   43.20
   7  -5   0  623.14   40.30
  -7   5   0  674.73   43.70
   6  -5   0 3744.53  124.29
   6  -5   0 3961.70  124.09
  -6   5   0 3940.71  126.69
   5  -5   0  277.87   23.90
   5  -5   0  305.37   23.60
  -5   5   0  279.67   24.40
   4  -5   0 6881.11  189.48
   4  -5   0 7184.28  178.98
  -4   5   0 6831.32  192.28
   3  -5   0  975.70   34.20
   3  -5   0  974.40   47.50
   2  -5   0  290.27    9.80
   0   5   0  291.87   11.10
  -1  -5   0 1770.62   72.79
   1   5   0 1755.92   53.99
  -2  -5   0 7264.37  212.28
   2   5   0 7765.92  193.28
  -3  -5   0 1023.30   57.39
   3   5   0  975.90   46.70
  -4  -5   0 3222.08  122.99
   4   5   0 3239.28  110.59
  -5  -5   0  409.26   40.10
   5   5   0  431.56   34.60
   6   5   0   62.09   16.80
   7   5   0  821.72   58.19
  15  -6   0   84.39   24.80
  14  -6   0   -0.50   12.10
  13  -6   0  511.65   48.00
  12  -6   0   -5.10    4.30
  10  -6   0  542.55   44.40
  10  -6   0  573.84   49.20
 -10   6   0  640.84   50.09
   9  -6   0  383.86   35.00
   9  -6   0  416.76   39.60
   8  -6   0 2303.07   92.69
   8  -6   0 2314.57   96.09
  -8   6   0 2134.29   93.19
   7  -6   0 1938.11   81.39
   7  -6   0 2066.69   83.19
  -7   6   0 1868.41   82.79
   6  -6   0  134.19   21.30
  -6   6   0  160.88   20.30
   5  -6   0 1770.62   74.79
   5  -6   0 1950.70   68.29
  -5   6   0 1910.31   79.39
   4  -6   0 4567.54  143.09
   4  -6   0 4725.53  123.69
   3  -6   0 3908.81   96.69
   0   6   0  144.69    6.40
  -1  -6   0   41.40   11.20
   1   6   0   45.00    7.30
  -2  -6   0 1165.98   61.29
   2   6   0  937.61   40.90
   3   6   0   10.80    6.40
  -4  -6   0  944.41   61.19
   4   6   0  910.01   49.10
   5   6   0  336.87   31.50
   6   6   0   25.50   12.30
   7   6   0 2061.19   96.69
  15  -7   0  129.19   31.00
  14  -7   0   71.59   20.60
  13  -7   0 2046.30  105.29
  12  -7   0  828.92   61.09
  11  -7   0  924.51   62.79
  10  -7   0 1463.95   81.59
  10  -7   0 1427.26   76.99
 -10   7   0 1484.25   80.79
   9  -7   0  479.25   40.00
   9  -7   0  543.85   44.60
  -9   7   0  613.94   47.10
   8  -7   0   10.10    8.10
   8  -7   0   30.70   12.10
  -8   7   0   37.60   13.80
   7  -7   0   21.30    9.50
   7  -7   0   28.90   10.10
  -7   7   0   19.50    8.60
   6  -7   0   58.49   14.70
   6  -7   0   63.39   13.50
  -6   7   0   42.80   12.80
   5  -7   0 7508.85  192.58
   5  -7   0 7493.85  214.98
   4  -7   0  458.65   21.80
   4  -7   0  492.35   37.30
   3  -7   0  555.24   15.50
  -1  -7   0   -3.50    4.70
   1   7   0    6.10    3.30
  -2  -7   0 1173.18   66.29
   2   7   0 1126.69   44.20
  -3  -7   0   46.40   15.10
   3   7   0   71.99   13.50
   4   7   0  618.54   38.50
   5   7   0   32.00   11.00
   6   7   0  466.75   40.20
   7   7   0   89.69   22.10
  15  -8   0    9.90   10.10
  14  -8   0  489.55   49.50
  13  -8   0   54.79   18.20
  12  -8   0   14.40   13.10
  11  -8   0  854.51   60.79
  11  -8   0 1025.10   68.39
  10  -8   0 5755.82  188.88
  10  -8   0 5632.94  221.48
   9  -8   0  990.00   59.69
   9  -8   0  931.11   59.19
  -9   8   0  981.70   63.69
   8  -8   0 1864.31   80.49
   8  -8   0 1728.13   83.19
  -8   8   0 1756.22  106.49
   7  -8   0    8.60    6.10
   7  -8   0   15.70    6.80
   6  -8   0  942.91   44.30
   6  -8   0  985.30   57.19
   5  -8   0  986.10   40.00
   5  -8   0 1212.48   64.09
   4  -8   0   50.79   14.80
   4  -8   0   45.60    5.20
  -1  -8   0 1434.16   75.79
   1   8   0 1490.55   42.10
   2   8   0    4.00    3.70
   3   8   0  188.58   17.40
   4   8   0 1105.79   52.79
   5   8   0 1266.47   62.19
   6   8   0  -13.70   10.90
   7   8   0  174.58   32.00
  15  -9   0  402.16   46.10
  14  -9   0    4.20   14.30
  13  -9   0   63.99   21.10
  12  -9   0  456.45   45.50
  11  -9   0  658.43   52.89
  11  -9   0  660.03   53.89
  10  -9   0  423.76   40.40
   9  -9   0   16.10   10.50
   9  -9   0   21.50   11.10
  -9   9   0   17.80   11.30
   8  -9   0 1520.45   79.09
   8  -9   0 1446.46   67.29
   7  -9   0 1240.88   70.19
   7  -9   0 1262.87   55.69
   6  -9   0    7.60    8.50
   6  -9   0   25.10    6.50
   5  -9   0 2894.51  118.49
   5  -9   0 3019.40   81.09
   4  -9   0 1543.85   81.89
   2   9   0   89.69    9.30
   3   9   0 3696.73  106.49
   4   9   0  942.41   46.00
   5   9   0   -1.10    9.90
   6   9   0   89.69   23.40
  15 -10   0   -3.40   12.50
  14 -10   0   48.70   19.30
  13 -10   0  640.94   55.79
  12 -10   0   -6.80   10.80
  11 -10   0  224.98   36.60
  11 -10   0  205.08   34.30
  10 -10   0  184.38   30.30
  10 -10   0  162.08   30.20
   9 -10   0  267.67   27.60
   8 -10   0   -9.10    5.40
   8 -10   0   -3.50    7.70
   7 -10   0   56.69   11.80
   7 -10   0   70.19   19.70
   6 -10   0  929.81   62.19
   6 -10   0  851.51   35.10
   5 -10   0  404.26   12.60
   5 -10   0  496.35   44.70
   4 -10   0  514.95   47.20
   3  10   0  345.47   20.00
  15 -11   0  334.97   50.89
  14 -11   0 1338.37  109.69
  13 -11   0    6.50   12.10
  12 -11   0  434.56   45.50
  11 -11   0  856.71   57.29
  11 -11   0  792.42   62.89
  10 -11   0   12.60    9.90
  10 -11   0   11.90    8.10
   9 -11   0   94.89   18.00
   9 -11   0  115.59   25.20
   8 -11   0  196.98   34.80
   8 -11   0  225.38   21.40
   7 -11   0  637.94   31.40
   7 -11   0  630.94   55.59
   6 -11   0  332.27   14.80
   4 -11   0  776.92   65.19
  14 -12   0  389.76   47.20
  13 -12   0   78.69   26.60
  12 -12   0  243.38   39.70
  11 -12   0 1731.83   82.09
  11 -12   0 1638.54   95.29
  10 -12   0  588.34   41.30
  10 -12   0  597.04   53.99
   9 -12   0 3855.61  157.78
   9 -12   0 3890.81  122.69
   8 -12   0 1116.69   47.40
   8 -12   0 1122.79   75.19
   7 -12   0   20.00    5.40
   7 -12   0   35.10   14.70
   5 -12   0  823.62   65.89
   4 -12   0   30.80   14.10
  14 -13   0  853.71   71.69
  13 -13   0    4.10   13.40
  12 -13   0   51.69   18.70
  12 -13   0   56.19   20.60
  11 -13   0   20.90   17.30
  11 -13   0  -24.00   13.60
  10 -13   0  286.87   45.90
  10 -13   0  347.07   28.80
   9 -13   0  962.10   72.19
   9 -13   0  942.91   44.20
   8 -13   0 1161.68   79.99
   8 -13   0 1101.09   39.10
   7 -13   0  538.85   52.29
   6 -13   0 2257.37  118.39
   5 -13   0   64.89   21.50
   4 -13   0   57.59   23.00
  13 -14   0  279.07   46.50
  12 -14   0  272.27   29.90
  12 -14   0  172.28   35.30
  11 -14   0  370.96   67.99
  11 -14   0  487.65   36.90
  10 -14   0  269.57   23.10
  10 -14   0  248.28   40.90
   9 -14   0   21.60   15.90
   8 -14   0   30.90   15.80
   7 -14   0   29.40   18.50
   6 -14   0  638.74   61.69
   5 -14   0   38.30   15.40
   4 -14   0   54.09   21.30
  11 -15   0  115.09   27.70
  10 -15   0   84.99   22.70
   9 -15   0   97.29   34.30
   8 -15   0   98.89   27.00
   7 -15   0   31.90   19.50
   6 -15   0  420.16   53.39
   5 -15   0  -23.20   10.90
   4 -15   0  279.17   52.29
   4 -15   1   41.90   20.70
   5 -15   1   69.29   26.00
   7 -15   1   56.59   22.00
   8 -15   1    2.70   14.60
   9 -15   1  189.48   38.90
  10 -15   1   15.20   16.70
  10 -15   1   12.50    5.60
  11 -15   1   12.80   15.70
   4 -14   1  162.98   33.60
   5 -14   1   22.70   16.90
   6 -14   1   26.70   12.90
   7 -14   1  326.67   50.79
   8 -14   1    7.40   11.30
   9 -14   1  121.59   12.20
   9 -14   1  112.89   29.30
  10 -14   1   -0.60   13.00
  11 -14   1   32.70   12.60
  12 -14   1   45.90   19.80
  12 -14   1   37.70   15.70
  13 -14   1   22.80   15.90
   4 -13   1   18.50   12.30
   5 -13   1  139.99   32.60
   6 -13   1   60.59   20.20
   7 -13   1   25.70   11.90
   8 -13   1   -3.70    6.00
   8 -13   1    2.90    4.20
   9 -13   1  576.04   55.49
   9 -13   1  649.93   35.20
  10 -13   1  269.97   43.70
  10 -13   1  222.38   23.20
  11 -13   1  -25.00   12.20
  11 -13   1    8.60   12.30
  12 -13   1  -12.90   15.20
  13 -13   1  133.89   31.90
  14 -13   1   -6.40   16.50
   4 -12   1  109.09   27.20
   5 -12   1  140.29   33.10
   6 -12   1  204.48   37.60
   7 -12   1  262.27   15.00
   7 -12   1  199.28   36.70
   8 -12   1  746.83   38.70
   8 -12   1  763.42   60.69
   9 -12   1   -2.00    7.10
   9 -12   1   14.60   12.50
  10 -12   1   22.80   11.50
  10 -12   1   17.30   10.60
  11 -12   1   18.20   11.70
  11 -12   1   12.50   12.70
  12 -12   1  199.68   35.50
  13 -12   1  -19.50   10.80
  14 -12   1   -5.00   14.50
   4 -11   1   -9.50    5.90
   5 -11   1   23.60   14.00
   6 -11   1   47.40    5.50
   6 -11   1   58.59    6.10
   7 -11   1   10.60    6.00
   7 -11   1   -7.40    4.10
   8 -11   1  551.14   49.40
   8 -11   1  657.83   37.50
   9 -11   1  212.08   24.00
   9 -11   1  196.48   33.90
  10 -11   1  269.07   33.40
  10 -11   1  278.47   29.90
  11 -11   1  256.37   31.10
  11 -11   1  248.08   39.90
  12 -11   1    7.90    9.60
  13 -11   1   74.29   22.30
  14 -11   1   54.29   20.80
  15 -11   1   30.00   20.90
   3  10  -1  192.38   14.40
   4 -10   1  201.58   33.70
   5 -10   1  895.51   23.70
   5 -10   1  829.02   23.40
   5 -10   1  908.21   61.89
   6 -10   1  120.89   12.10
   6 -10   1   92.99   22.50
   7 -10   1   69.49   17.40
   7 -10   1   65.79   12.80
   8 -10   1  173.78   20.40
   8 -10   1  161.78   29.20
   9 -10   1   29.30   13.80
  10 -10   1  121.09   27.00
  10 -10   1   75.59   20.00
  11 -10   1  153.58   29.00
  11 -10   1  119.49   25.30
  12 -10   1  110.29   25.00
  13 -10   1    9.40   10.70
  14 -10   1  249.18   41.30
  15 -10   1  102.29   29.70
   6   9  -1  150.78   26.90
   5   9  -1  120.29   20.00
   4   9  -1  571.14   34.20
   3   9  -1   -2.90    5.70
   2   9  -1  192.18   13.50
   4  -9   1  122.59   24.50
   5  -9   1  195.58   31.40
   5  -9   1  200.98   13.90
   6  -9   1   79.99   19.40
   6  -9   1   84.69   13.40
   7  -9   1   93.19   21.00
   7  -9   1   51.09   12.00
   8  -9   1  553.44   39.10
   8  -9   1  553.34   45.10
  -9   9  -1  260.17   31.10
   9  -9   1  294.47   31.40
   9  -9   1  246.18   30.10
  10  -9   1  220.08   34.80
  11  -9   1  566.64   47.80
  11  -9   1  464.55   44.90
  12  -9   1   74.99   20.90
  13  -9   1    4.40    8.70
  14  -9   1   31.80   18.50
  15  -9   1   -6.50   11.80
   7   8  -1   19.10   18.70
   6   8  -1   16.90   13.50
   5   8  -1   18.00   10.70
   4   8  -1  804.32   43.20
   3   8  -1  628.14   33.30
   2   8  -1  168.58   13.60
  -2  -8   1  168.48   33.60
   1   8  -1  519.95   19.70
  -1  -8   1  505.15   42.40
   4  -8   1  163.78   10.40
   4  -8   1  184.38   28.80
   5  -8   1  138.99   13.30
   5  -8   1  151.08   25.10
   6  -8   1   26.70   10.80
   6  -8   1   34.90    9.00
   7  -8   1  597.14   44.20
   7  -8   1  614.14   39.10
  -8   8  -1  166.98   37.40
   8  -8   1  220.28   26.60
   8  -8   1  223.18   24.30
  -9   8  -1  147.89   27.10
   9  -8   1  138.39   24.70
   9  -8   1  171.98   28.40
  10  -8   1   -4.30    8.30
  10  -8   1    9.40    8.70
  11  -8   1 1228.08   76.79
  11  -8   1 1218.88   73.59
  12  -8   1  107.89   26.50
  13  -8   1  159.88   32.80
  14  -8   1   25.90   13.60
  15  -8   1   46.00   21.30
   7   7  -1  264.47   33.20
   6   7  -1    0.80   12.50
   5   7  -1  273.97   27.50
   4   7  -1    7.20    7.20
   3   7  -1   74.69   13.40
  -3  -7   1  113.69   21.80
   2   7  -1   77.69   10.00
  -2  -7   1   64.89   17.90
   1   7  -1  609.44   23.80
  -1  -7   1  550.04   41.80
   3  -7   1  336.27   11.60
   3  -7   1  318.87   11.20
   4  -7   1 1173.88   41.70
   4  -7   1 1224.28   61.89
   5  -7   1   12.00    6.00
   5  -7   1   12.40    6.60
  -6   7  -1  697.23   46.70
   6  -7   1  610.74   37.40
   6  -7   1  659.83   43.50
  -7   7  -1   14.00    7.40
   7  -7   1   21.20    9.00
   7  -7   1   16.60    8.40
  -8   7  -1    2.80    6.50
   8  -7   1   11.70    9.80
   8  -7   1   -2.80    5.80
  -9   7  -1  542.95   44.00
   9  -7   1  446.66   38.70
   9  -7   1  533.85   44.20
 -10   7  -1  963.30   63.09
  10  -7   1 1080.69   64.89
  10  -7   1  947.61   64.39
  11  -7   1   13.20    9.90
  12  -7   1   72.09   21.20
  13  -7   1   96.09   25.30
  14  -7   1  241.78   41.20
  15  -7   1   20.00   18.90
   7   6  -1   28.00   15.70
   6   6  -1  175.58   26.80
   5   6  -1   50.49   13.70
   4   6  -1  111.79   18.50
  -4  -6   1   98.09   21.40
   3   6  -1  100.69   15.40
  -3  -6   1   87.79   19.80
   2   6  -1   34.60    7.60
  -2  -6   1   46.40   14.60
   1   6  -1  629.44   25.50
  -1  -6   1  646.44   42.40
   0   6  -1  247.48    9.70
   3  -6   1   45.00    5.60
   4  -6   1 3714.13  104.39
   4  -6   1 3726.73  124.69
  -5   6  -1 2460.05   94.59
   5  -6   1 2614.44   93.59
   5  -6   1 2479.35   83.99
  -6   6  -1  250.27   25.40
   6  -6   1  206.98   42.40
   6  -6   1  246.98   24.10
  -7   6  -1  697.43   45.40
   7  -6   1  632.14   43.20
   7  -6   1  646.14   42.50
  -8   6  -1   53.39   14.90
   8  -6   1   48.90   16.50
   8  -6   1   22.50   10.00
   9  -6   1   37.90   15.20
   9  -6   1   21.00   11.90
 -10   6  -1  168.28   29.30
  10  -6   1  209.38   31.90
  10  -6   1  210.08   35.10
  12  -6   1  177.88   32.60
  13  -6   1   44.00   19.10
  14  -6   1    0.60   13.70
  15  -6   1  268.37   44.30
   7   5  -1   83.89   22.60
   6   5  -1   19.70   10.10
   5   5  -1  981.00   54.79
  -5  -5   1  900.91   59.39
   4   5  -1  216.98   22.30
  -4  -5   1  221.98   26.80
   3   5  -1  162.58   16.40
  -3  -5   1  161.18   25.00
   2   5  -1    7.50    4.50
  -2  -5   1    6.60    5.10
   1   5  -1 2508.75   70.79
  -1  -5   1 2586.94   92.59
   0   5  -1  144.69    7.60
   2  -5   1    5.60    2.00
   2  -5   1    4.60    1.40
   3  -5   1  734.13   29.80
   3  -5   1  798.42   41.60
  -4   5  -1   22.00    8.10
   4  -5   1   31.00    7.60
   4  -5   1   33.40    8.90
  -5   5  -1  156.98   18.40
   5  -5   1  122.19   15.00
   5  -5   1  140.09   16.60
  -6   5  -1   79.79   16.20
   6  -5   1   97.99   18.20
   6  -5   1  112.49   18.60
  -7   5  -1 2025.80   83.89
   7  -5   1 2126.69   82.89
   7  -5   1 1945.81   85.29
  -8   5  -1   55.09   14.70
   8  -5   1   40.70   14.30
   8  -5   1   42.60   12.50
  -9   5  -1  110.49   21.60
   9  -5   1  160.58   29.00
   9  -5   1   94.69   20.40
 -10   5  -1  945.21   61.09
  10  -5   1  784.82   54.69
  10  -5   1  870.21   63.09
  12  -5   1  259.37   39.90
  13  -5   1   -6.40    9.90
  14  -5   1  149.09   30.60
   9   4  -1   35.90   17.30
   8   4  -1  130.69   27.90
   8   4  -1  136.29   30.00
   7   4  -1   -3.50    7.90
   6   4  -1  209.78   34.10
   6   4  -1  189.78   29.00
  -6  -4   1  206.08   31.80
   5   4  -1  140.09   22.30
  -5  -4   1  123.49   23.20
   4   4  -1  184.98   20.60
  -4  -4   1  187.18   22.30
   3   4  -1 1101.59   49.50
  -3  -4   1 1137.79   57.29
   2   4  -1 3538.65  101.69
  -2  -4   1 3586.84  116.09
   1   4  -1   30.80    5.80
  -1  -4   1   28.80    6.30
   0   4  -1  114.89    6.70
   0  -4   1  110.79    7.40
   2  -4   1  259.07   13.20
  -3   4  -1   48.40   10.30
   3  -4   1   34.40    8.50
   3  -4   1   41.80    8.00
  -4   4  -1  135.49   15.10
   4  -4   1  101.89   12.30
   4  -4   1  122.59   14.00
  -5   4  -1   43.50   10.60
   5  -4   1   27.80    8.30
   5  -4   1   25.30    7.80
  -6   4  -1   99.49   17.50
   6  -4   1   91.19   16.10
   6  -4   1   82.49   17.80
  -7   4  -1  325.57   28.60
   7  -4   1  311.97   31.10
   7  -4   1  354.66   29.10
  -8   4  -1  193.08   23.10
   8  -4   1  178.58   22.30
   8  -4   1  209.68   31.60
  -9   4  -1  199.58   30.20
   9  -4   1  176.48   27.70
   9  -4   1  203.38   34.00
 -10   4  -1  147.69   26.90
  10  -4   1   53.89   19.50
  10  -4   1  106.69   22.80
  11  -4   1   -4.40    5.40
  12  -4   1  732.53   58.79
  13  -4   1  586.94   53.29
  14  -4   1   16.60   15.30
  15  -4   1   20.80   20.10
  10   3  -1   63.89   21.50
   9   3  -1   79.19   21.80
   8   3  -1 1208.08   75.49
   8   3  -1 1188.68   72.19
   7   3  -1  936.41   61.59
   7   3  -1 1012.10   65.19
  -7  -3   1 1120.09   66.89
   6   3  -1   49.90   15.80
   6   3  -1   40.20   12.70
  -6  -3   1   65.99   17.90
   5   3  -1   66.69   15.50
   5   3  -1   35.10   11.30
  -5  -3   1   46.80   12.80
   4   3  -1  348.87   30.00
   4   3  -1  354.66   30.50
  -4  -3   1  372.36   30.80
   3   3  -1   75.39   18.80
   3   3  -1   52.79   11.50
  -3  -3   1   37.40   10.20
  -3  -3   1   47.20   11.70
   2   3  -1  764.22   33.60
  -2  -3   1  742.83   38.80
  -2  -3   1  660.43   33.00
   1   3  -1   42.90    6.80
  -1  -3   1   35.40    8.70
  -1  -3   1   53.99    6.80
   0   3  -1 1285.27   33.90
   0  -3   1 1254.27   34.60
   1  -3   1  982.80   25.70
   2  -3   1    8.20    3.70
  -3   3  -1 1233.68   47.00
   3  -3   1 1252.27   46.70
   3  -3   1 1263.77   46.70
  -4   3  -1   31.90    8.10
   4  -3   1   24.90    7.00
   4  -3   1   24.50    7.80
  -5   3  -1    9.80    5.50
   5  -3   1    3.60    3.20
   5  -3   1    2.80    4.20
  -6   3  -1   53.89   12.60
   6  -3   1   50.49   14.80
   6  -3   1   61.99   14.90
  -7   3  -1 1246.48   60.59
   7  -3   1 1248.78   59.49
   7  -3   1 1160.98   64.49
  -8   3  -1  168.18   26.70
   8  -3   1  125.99   21.70
   8  -3   1  174.38   29.90
  -9   3  -1   95.79   33.50
   9  -3   1   76.79   18.30
 -10   3  -1   27.20   12.90
  10  -3   1   81.69   21.40
  10  -3   1   76.09   20.00
  11  -3   1  614.34   51.09
  12  -3   1   -6.60    3.90
  13  -3   1  188.38   36.90
  14  -3   1   38.60   19.00
  12   2  -1   31.70   21.10
  11   2  -1   69.19   21.30
  10   2  -1   76.99   23.00
   9   2  -1  555.44   50.29
   8   2  -1    1.40   10.30
   8   2  -1   21.00   11.70
  -8  -2   1   -5.30   12.70
   7   2  -1  466.75   41.00
   7   2  -1  498.25   42.60
  -7  -2   1  542.35   43.70
   6   2  -1   53.29   14.20
   6   2  -1   36.20   12.70
  -6  -2   1   41.20   13.10
   5   2  -1 2108.79   86.29
   5   2  -1 2115.79   84.89
  -5  -2   1 1930.21   82.79
   4   2  -1  102.19   22.10
   4   2  -1   88.69   16.20
  -4  -2   1   93.49   16.60
  -4  -2   1  104.19   18.20
   3   2  -1   13.40    5.40
   3   2  -1    5.70    4.80
  -3  -2   1    5.50    4.50
  -3  -2   1    1.70    3.50
   2   2  -1  225.38   16.50
   2   2  -1  254.27   19.60
  -2  -2   1  262.67   19.70
  -2  -2   1  271.97   18.40
   1   2  -1   11.70    3.30
  -1  -2   1    8.40    3.80
  -1  -2   1    8.10    3.10
   0   2  -1  347.57   12.00
   0  -2   1  343.97   12.20
  -2   2  -1  336.67   17.90
   2  -2   1  359.76   18.20
  -3   2  -1  981.30   37.50
   3  -2   1  961.40   40.40
   3  -2   1  899.01   36.00
  -4   2  -1  259.27   19.20
   4  -2   1  263.07   22.20
   4  -2   1  251.17   18.70
  -5   2  -1  648.94   36.30
   5  -2   1  756.72   43.10
   5  -2   1  697.13   36.90
  -6   2  -1 3666.93  117.69
   6  -2   1 3755.62  126.59
   6  -2   1 3485.95  115.29
  -7   2  -1   18.10    9.30
   7  -2   1   27.30   11.40
  -8   2  -1   21.70   10.00
   8  -2   1   31.10   10.80
   8  -2   1   24.70   11.60
  -9   2  -1   88.59   20.20
   9  -2   1   71.59   18.60
   9  -2   1   67.59   18.70
  10  -2   1  164.18   30.20
  11  -2   1  193.88   34.20
  12  -2   1   11.70   10.90
  13  -2   1    9.00   16.20
  14  -2   1   41.40   14.90
  13   1  -1    0.20   13.80
  12   1  -1   16.50   14.90
  11   1  -1   35.80   18.50
  10   1  -1  141.49   30.00
   9   1  -1  220.28   36.70
   9   1  -1  238.48   46.90
   8   1  -1  104.89   22.10
  -8  -1   1  118.19   23.00
   7   1  -1   23.40   10.90
   7   1  -1   18.30    7.00
  -7  -1   1   13.80    7.30
   6   1  -1  556.14   41.60
   6   1  -1  624.74   42.60
  -6  -1   1  586.84   40.90
   5   1  -1   89.89   17.20
   5   1  -1  100.49   19.20
  -5  -1   1   87.39   18.20
  -5  -1   1  119.49   19.60
   4   1  -1   33.80    9.10
   4   1  -1   39.70   10.50
  -4  -1   1   34.40   10.30
   3   1  -1   27.20    7.70
   3   1  -1   25.60    7.50
  -3  -1   1   35.70    8.60
  -3  -1   1   30.90    8.30
   2   1  -1  961.30   38.10
   2   1  -1 1000.10   39.40
  -2  -1   1 1012.90   39.50
  -2  -1   1 1058.49   39.70
   1   1  -1  388.36   18.20
   1   1  -1  353.06   16.10
  -1  -1   1  398.76   17.10
  -1  -1   1  369.46   17.70
   0   1  -1 2774.12   65.59
   0  -1   1 2771.52   65.59
  -1   1  -1 2697.53   67.19
   1  -1   1 2669.93   66.89
  -2   1  -1  356.16   17.10
   2  -1   1  361.66   17.20
  -3   1  -1    9.20    3.70
   3  -1   1   11.10    4.30
   3  -1   1    7.30    4.30
  -4   1  -1   51.09   10.00
   4  -1   1   51.79   10.40
   4  -1   1   42.20   10.90
  -5   1  -1   29.90    9.00
   5  -1   1   30.00    8.60
   5  -1   1   25.50    9.10
  -6   1  -1 2648.24   96.49
   6  -1   1 2750.92   97.39
   6  -1   1 2598.94  102.09
  -7   1  -1  705.73   45.80
   7  -1   1  622.04   46.90
   7  -1   1  692.33   44.90
  -8   1  -1  586.44   44.40
   8  -1   1  568.54   44.30
   8  -1   1  650.83   49.99
  -9   1  -1  480.15   42.30
   9  -1   1  509.75   47.10
   9  -1   1  528.15   45.50
  11  -1   1  216.88   37.80
  12  -1   1   22.50   12.00
  13  -1   1   12.90   15.30
  14  -1   1    6.00   11.80
  13   0  -1  149.09   33.60
  12   0  -1  223.08   40.70
  11   0  -1  256.37   40.20
  10   0  -1   80.09   21.90
   9   0  -1  336.57   36.20
   9   0  -1  334.47   38.60
  -9   0   1  313.17   34.50
   8   0  -1  166.38   28.40
   8   0  -1  236.78   35.70
   7   0  -1    4.00    6.40
   7   0  -1   24.40    9.30
  -7   0   1   17.60    8.00
   6   0  -1  273.17   26.20
   6   0  -1  228.48   25.40
  -6   0   1  208.58   22.60
  -6   0   1  234.38   26.80
   5   0  -1  145.39   17.70
   5   0  -1  156.98   18.80
  -5   0   1  144.39   22.60
  -5   0   1  124.69   19.30
   4   0  -1  116.39   13.70
   4   0  -1   88.69   15.30
  -4   0   1  110.29   13.60
  -4   0   1  143.69   16.90
   3   0  -1 1230.88   49.99
   3   0  -1 1496.35   51.09
  -3   0   1 1359.36   49.40
  -3   0   1 1307.57   51.69
   2   0  -1  355.96   19.40
   2   0  -1  342.57   18.00
  -2   0   1  352.36   18.10
  -2   0   1  325.57   18.80
   1   0  -1 2670.13   67.39
   1   0  -1 2737.03   69.19
  -1   0   1 2773.12   69.49
  -1   0   1 2686.33   67.39
  -1   0  -1 2744.43   69.19
   1   0   1 2738.63   69.09
  -2   0  -1  353.76   18.60
   2   0   1  349.96   18.60
  -3   0  -1 1268.87   48.10
   3   0   1 1272.37   48.20
   3   0   1 1299.47   51.69
  -4   0  -1  132.49   14.60
   4   0   1  106.69   16.20
   4   0   1  121.79   18.50
  -5   0  -1  173.38   19.10
   5   0   1  166.08   18.60
   5   0   1  148.89   18.40
  -6   0  -1  254.67   24.90
   6   0   1  204.98   25.40
   6   0   1  233.18   24.80
  -7   0  -1   23.60    9.80
   7   0   1   18.10   10.30
   7   0   1    5.40    8.10
  -8   0  -1  175.18   30.20
   8   0   1  205.98   31.50
   8   0   1  232.78   35.90
  -9   0  -1  315.87   34.60
   9   0   1  311.47   34.90
   9   0   1  390.76   40.60
  10   0   1  113.19   27.30
  11   0   1  265.57   43.10
  12   0   1  246.58   42.80
  13   0   1  188.68   35.70
  14  -1  -1   28.40   21.70
  13  -1  -1   -0.50   14.20
  12  -1  -1  -21.70    8.10
  11  -1  -1  219.78   37.20
  10  -1  -1   84.79   27.80
   9  -1  -1  495.85   45.90
   9  -1  -1  493.75   42.80
  -9   1   1  490.15   42.80
   8  -1  -1  575.14   43.70
   8  -1  -1  596.04   48.00
  -8   1   1  589.14   44.10
   7  -1  -1  631.54   42.90
   7  -1  -1  664.83   46.80
  -7   1   1  615.64   42.40
  -7   1   1  682.63   49.30
   6  -1  -1 2592.14   94.09
   6  -1  -1 2595.94   99.69
  -6   1   1 2812.32  104.69
  -6   1   1 2463.05   92.89
   5  -1  -1   24.80    8.80
   5  -1  -1   34.10    9.30
  -5   1   1   22.40    9.50
  -5   1   1   15.40    7.80
   4  -1  -1   43.30   10.40
   4  -1  -1   49.30    9.90
  -4   1   1   50.29   11.80
  -4   1   1   47.00    9.60
   3  -1  -1   12.10    4.40
   3  -1  -1   12.60    4.80
  -3   1   1   14.70    5.40
  -3   1   1    5.00    3.30
   2  -1  -1  362.06   18.80
   2  -1  -1  381.06   17.30
  -2   1   1  364.26   17.10
  -2   1   1  363.56   18.80
   1  -1  -1 2640.94   66.59
   1  -1  -1 2811.22   67.49
  -1   1   1 2644.34   67.19
  -1   1   1 2615.94   66.59
   0   1   1 2845.52   67.49
  -1  -1  -1  377.16   18.30
   1   1   1  361.56   18.10
  -2  -1  -1 1009.10   40.10
   2   1   1 1022.90   40.30
  -3  -1  -1   28.20    7.90
   3   1   1   20.30    6.70
   3   1   1   27.80    7.90
  -4  -1  -1   15.50    7.40
   4   1   1   41.90   10.30
   4   1   1   47.20   11.80
  -5  -1  -1  126.09   20.30
   5   1   1  116.19   20.80
   5   1   1  101.59   18.30
  -6  -1  -1  648.34   43.70
   6   1   1  636.74   44.20
   6   1   1  643.04   45.70
  -7  -1  -1   12.10    7.10
   7   1   1    9.50    5.90
   7   1   1    8.50    6.50
  -8  -1  -1  132.09   24.90
   8   1   1  137.49   26.50
   9   1   1  188.98   34.70
  10   1   1  160.48   31.10
  11   1   1   -2.90    9.10
  12   1   1   24.00   14.60
  13   1   1   -1.50   14.30
  14  -2  -1    9.00   14.90
  13  -2  -1   14.30   10.50
  12  -2  -1   15.00   15.10
  11  -2  -1  175.58   32.80
  10  -2  -1  209.38   33.30
   9  -2  -1   51.39   17.10
   9  -2  -1   53.69   15.50
  -9   2   1   86.09   20.10
   8  -2  -1   14.30    8.80
   8  -2  -1   46.10   14.00
  -8   2   1   25.00    9.10
   7  -2  -1   21.50    9.90
   7  -2  -1   17.00    7.10
  -7   2   1    8.10    6.90
  -7   2   1   13.40    8.00
   6  -2  -1 3222.68  111.19
   6  -2  -1 3400.26  119.09
  -6   2   1 3701.03  115.09
  -6   2   1 3575.14  123.59
   5  -2  -1  731.73   37.40
   5  -2  -1  687.13   40.50
  -5   2   1  716.83   42.20
  -5   2   1  667.83   36.40
   4  -2  -1  258.77   21.00
   4  -2  -1  289.87   20.10
  -4   2   1  254.67   21.10
  -4   2   1  268.47   19.60
   3  -2  -1  961.90   37.10
   3  -2  -1  938.31   38.70
  -3   2   1  992.80   37.70
  -3   2   1  952.50   39.50
   2  -2  -1  323.57   16.80
   2  -2  -1  381.66   18.70
  -2   2   1  343.87   17.30
  -2   2   1  326.37   17.80
   1  -2  -1  368.06   13.20
  -1   2   1  381.76   13.70
  -1  -2  -1   12.80    4.80
  -2  -2  -1  262.47   20.10
   2   2   1  279.17   19.30
   2   2   1  245.98   19.70
  -3  -2  -1    2.90    4.80
   3   2   1    9.10    5.90
   3   2   1   13.60    5.30
  -4  -2  -1   76.99   15.70
   4   2   1   80.99   15.90
   4   2   1  105.19   18.50
  -5  -2  -1 1869.61   81.49
   5   2   1 2014.80   84.09
   5   2   1 1990.10   84.39
  -6  -2  -1   25.70   11.90
   6   2   1   45.20   14.40
   6   2   1   36.70   12.60
  -7  -2  -1  561.64   44.50
   7   2   1  565.14   45.80
   7   2   1  494.75   43.30
   8   2   1    4.80    7.10
   8   2   1    3.00   10.10
   9   2   1  455.85   46.90
  10   2   1   65.19   20.60
  11   2   1  111.19   25.50
  12   2   1   21.80   20.70
  13  -3  -1  197.08   37.60
  12  -3  -1   -8.00    8.40
  11  -3  -1  600.84   50.79
  10  -3  -1   75.19   20.70
  10  -3  -1   92.69   21.70
 -10   3   1   64.79   18.20
   9  -3  -1   65.29   17.50
  -9   3   1   84.59   22.70
   8  -3  -1  102.79   22.10
   8  -3  -1  125.69   21.80
  -8   3   1  146.39   24.30
   7  -3  -1 1180.58   63.09
   7  -3  -1 1225.18   58.49
  -7   3   1 1185.18   65.49
  -7   3   1 1165.98   58.59
   6  -3  -1   56.09   13.40
  -6   3   1   57.79   18.10
  -6   3   1   59.29   13.40
   5  -3  -1   11.60    5.10
   5  -3  -1   -0.50    4.60
  -5   3   1    6.60    4.60
  -5   3   1    4.10    4.90
   4  -3  -1   31.50    8.00
   4  -3  -1   20.40    7.20
  -4   3   1   20.70    7.50
  -4   3   1   25.30    7.00
   3  -3  -1 1257.37   45.10
   3  -3  -1 1219.28   46.60
  -3   3   1 1329.17   47.10
  -3   3   1 1246.58   47.50
   2  -3  -1    8.80    4.10
   2  -3  -1    8.60    2.90
  -2   3   1   10.50    3.50
   1  -3  -1  991.80   26.40
  -1   3   1  984.90   26.90
  -1  -3  -1   52.39   10.40
   1   3   1   33.00    6.50
  -2  -3  -1  692.03   38.50
   2   3   1  724.63   34.40
  -3  -3  -1   76.69   15.60
   3   3   1   58.29   12.60
   3   3   1   43.80   12.30
  -4  -3  -1  362.96   30.90
   4   3   1  318.37   29.40
   4   3   1  320.67   29.50
  -5  -3  -1   36.90   11.80
   5   3   1   40.90   13.40
   5   3   1   75.29   16.50
  -6  -3  -1   15.90   14.90
   6   3   1   28.30   11.80
   6   3   1   30.60   11.40
  -7  -3  -1 1109.29   67.99
   7   3   1 1086.69   65.79
   7   3   1 1075.99   68.19
   8   3   1 1137.09   73.79
   8   3   1 1143.69   71.39
   9   3   1   53.39   18.70
  10   3   1   52.79   18.70
  11   3   1   64.89   25.30
  15  -4  -1   22.00   18.80
  14  -4  -1   -5.40    9.20
  13  -4  -1  634.64   56.09
  12  -4  -1  860.31   63.39
  11  -4  -1    1.90    6.10
  10  -4  -1  100.09   22.90
  10  -4  -1  116.29   23.70
 -10   4   1  117.79   25.30
   9  -4  -1  204.38   34.70
   9  -4  -1  175.38   27.30
  -9   4   1  179.48   28.80
   8  -4  -1  193.88   23.10
   8  -4  -1  197.88   31.00
  -8   4   1  214.08   23.90
   7  -4  -1  385.76   30.20
   7  -4  -1  297.57   29.20
  -7   4   1  299.97   27.40
  -7   4   1  385.56   34.50
   6  -4  -1   87.09   15.60
   6  -4  -1   95.99   17.70
  -6   4   1   93.29   18.30
  -6   4   1  106.59   17.80
   5  -4  -1   37.30    9.80
   5  -4  -1   45.70   10.60
  -5   4   1   40.60   10.70
  -5   4   1   32.20    9.40
   4  -4  -1  118.59   13.50
   4  -4  -1  110.39   12.40
  -4   4   1   92.59   12.00
  -4   4   1  119.09   14.20
   3  -4  -1   45.50    8.00
   3  -4  -1   35.10    8.60
  -3   4   1   58.39    9.50
   2  -4  -1  249.97   11.80
  -2   4   1  255.27   13.20
  -1   4   1   30.10    2.70
  -1  -4  -1   18.00    7.50
   1   4   1   28.10    6.20
  -2  -4  -1 3621.74  116.29
   2   4   1 3412.76  103.19
  -3  -4  -1 1226.38   61.39
   3   4   1 1298.27   56.39
  -4  -4  -1  180.58   27.50
   4   4   1  216.58   22.40
  -5  -4  -1  130.79   23.70
   5   4   1  164.68   25.90
  -6  -4  -1  173.78   30.40
   6   4   1  189.08   32.40
   6   4   1  198.38   30.30
   7   4   1   10.60   11.30
   7   4   1    6.70   11.00
   8   4   1  112.19   25.70
   8   4   1  120.69   24.30
   9   4   1   -2.70    9.50
  15  -5  -1    5.40   15.40
  14  -5  -1  160.28   33.00
  12  -5  -1  214.88   35.20
  10  -5  -1  980.70   60.29
  10  -5  -1  917.91   64.09
 -10   5   1  878.81   59.99
   9  -5  -1  117.09   24.50
   9  -5  -1  126.99   23.20
  -9   5   1  128.99   23.80
   8  -5  -1   42.20   14.40
   8  -5  -1   70.69   16.30
  -8   5   1   68.69   16.20
   7  -5  -1 2120.99   85.99
   7  -5  -1 2025.40   80.99
  -7   5   1 1898.61   85.99
  -7   5   1 1948.91   82.09
   6  -5  -1  111.59   18.20
   6  -5  -1   75.89   15.20
  -6   5   1  126.39   21.00
  -6   5   1   85.89   17.10
   5  -5  -1  117.79   17.90
   5  -5  -1  141.89   15.10
  -5   5   1  118.69   18.80
  -5   5   1  140.49   16.80
   4  -5  -1   33.60    9.50
   4  -5  -1   40.10    8.40
  -4   5   1   27.50    8.10
  -4   5   1   23.20    8.30
   3  -5  -1  707.93   39.50
   3  -5  -1  683.93   27.00
  -3   5   1  732.03   29.80
   2  -5  -1    3.00    1.70
  -2   5   1    4.70    2.00
   0   5   1  153.98    9.40
  -1  -5  -1 2576.84   95.49
   1   5   1 2796.22   78.59
  -2  -5  -1   11.90    6.90
   2   5   1    7.90    4.70
  -3  -5  -1  155.58   25.40
   3   5   1  164.28   17.90
  -4  -5  -1  243.38   28.50
   4   5   1  229.68   23.50
  -5  -5  -1  873.41   59.19
   5   5   1  918.51   52.99
   6   5   1   14.40    9.60
   7   5   1   90.59   22.20
  15  -6  -1  172.68   34.40
  14  -6  -1   14.00   10.70
  13  -6  -1   17.60   11.80
  12  -6  -1  162.68   30.90
  10  -6  -1  158.78   27.30
  10  -6  -1  196.28   33.30
 -10   6   1  173.58   29.70
   9  -6  -1   17.50   10.40
   9  -6  -1   44.80   15.20
   8  -6  -1   32.60   10.80
   8  -6  -1   28.60   11.70
  -8   6   1   20.10   11.00
   7  -6  -1  605.74   40.80
   7  -6  -1  609.54   40.50
  -7   6   1  648.84   43.40
   6  -6  -1  213.18   25.80
   6  -6  -1  184.08   21.20
  -6   6   1  209.78   23.10
  -6   6   1  229.88   23.20
   5  -6  -1 2656.03   84.89
   5  -6  -1 2619.44   94.89
  -5   6   1 2609.94   88.99
  -5   6   1 2495.95   96.49
   4  -6  -1 3557.54  100.49
   4  -6  -1 3730.63  121.29
  -4   6   1 3771.82  106.49
   3  -6  -1   56.29    5.80
   3  -6  -1   47.90   15.20
   0   6   1  236.58   10.80
   0   6   1  217.58    9.80
  -1  -6  -1  625.44   42.00
   1   6   1  596.14   26.70
  -2  -6  -1   39.00   12.70
   2   6   1   19.90    7.00
  -3  -6  -1   77.19   33.10
   3   6   1   95.69   16.00
  -4  -6  -1  116.69   24.20
   4   6   1   92.59   17.10
   5   6   1   54.79   15.60
   6   6   1  199.28   30.20
   7   6   1   68.09   20.70
  15  -7  -1   13.00   14.40
  14  -7  -1  261.27   43.10
  13  -7  -1   77.89   22.30
  12  -7  -1   93.59   24.60
  11  -7  -1   -6.70    4.70
  10  -7  -1 1069.69   67.59
  10  -7  -1  944.21   60.79
 -10   7   1 1042.70   66.09
   9  -7  -1  493.95   40.00
   9  -7  -1  424.06   39.10
  -9   7   1  521.05   43.00
   8  -7  -1   -0.60    5.80
   8  -7  -1    6.20    5.80
  -8   7   1    9.80    6.00
   7  -7  -1   17.30    8.10
   7  -7  -1    7.80    6.40
  -7   7   1   18.00    8.20
   6  -7  -1  573.54   40.90
   6  -7  -1  659.33   36.80
   5  -7  -1   17.90    6.40
   5  -7  -1   11.00    6.20
   4  -7  -1 1230.28   42.20
   4  -7  -1 1374.86   66.39
   3  -7  -1  327.07   12.10
  -1  -7  -1  552.34   42.00
   1   7   1  588.74   25.20
  -2  -7  -1   33.80   12.50
   2   7   1   82.59   12.60
  -3  -7  -1  101.59   23.30
   3   7   1   53.29   12.60
   4   7   1   -2.90    6.80
   5   7   1  252.47   27.60
   6   7   1  -14.90   12.20
   7   7   1  251.67   36.90
  15  -8  -1   35.00   19.30
  14  -8  -1   64.89   21.90
  13  -8  -1  114.49   26.60
  12  -8  -1  131.99   27.40
  11  -8  -1 1226.58   73.59
  11  -8  -1 1194.68   75.19
  10  -8  -1    6.80    7.90
  10  -8  -1   -0.60    4.60
   9  -8  -1  126.59   24.40
   9  -8  -1  159.28   27.50
  -9   8   1  124.49   25.00
   8  -8  -1  210.08   32.00
   8  -8  -1  262.77   26.80
  -8   8   1  159.98   34.70
   7  -8  -1  576.84   36.10
   7  -8  -1  554.54   42.50
   6  -8  -1   38.30   12.30
   5  -8  -1  116.29   22.40
   5  -8  -1  158.08   13.50
   4  -8  -1  170.78   10.30
   4  -8  -1  130.79   24.70
  -1  -8  -1  513.65   43.10
   1   8   1  483.05   20.00
   1   8   1  503.85   20.00
   2   8   1  188.88   15.40
   3   8   1  610.14   33.90
   4   8   1  748.33   42.70
   5   8   1   16.10   10.50
   6   8   1    5.00   11.90
   7   8   1    1.40   19.60
  15  -9  -1   22.20   15.30
  14  -9  -1  -14.00   11.70
  13  -9  -1   35.40   15.50
  12  -9  -1   75.59   20.70
  11  -9  -1  472.95   43.90
  11  -9  -1  470.45   43.60
  10  -9  -1  174.48   46.10
  10  -9  -1  174.88   29.50
   9  -9  -1  284.77   33.10
   9  -9  -1  285.27   29.10
  -9   9   1  320.07   37.30
   8  -9  -1  499.85   42.80
   8  -9  -1  560.54   37.50
   7  -9  -1   71.09   18.60
   7  -9  -1   87.79   14.50
   6  -9  -1   75.19   12.20
   6  -9  -1   72.49   18.50
   5  -9  -1  187.78   13.00
   5  -9  -1  175.18   29.40
   4  -9  -1  105.59   22.90
   2   9   1  170.58   12.90
   3   9   1    1.90    6.20
   4   9   1  581.24   35.70
   5   9   1  169.18   23.80
   6   9   1  214.98   31.90
  15 -10  -1  124.89   31.50
  14 -10  -1  208.68   37.80
  13 -10  -1   -0.40   15.10
  12 -10  -1  105.89   25.10
  11 -10  -1  162.68   30.90
  11 -10  -1  213.18   34.90
  10 -10  -1   95.49   23.10
  10 -10  -1   54.29   17.30
   9 -10  -1   40.40   13.00
   8 -10  -1  151.08   19.30
   8 -10  -1  204.88   32.70
   7 -10  -1   90.29   14.90
   7 -10  -1   65.59   19.70
   6 -10  -1  101.89   11.00
   6 -10  -1  102.09   23.40
   5 -10  -1  912.01   26.10
   5 -10  -1  844.12   61.39
   4 -10  -1  194.68   33.20
   3  10   1  173.08   14.40
   3  10   1  201.28   15.00
  15 -11  -1   40.20   16.50
  14 -11  -1   55.29   25.00
  13 -11  -1  107.29   26.10
  12 -11  -1   15.70   12.30
  11 -11  -1  222.68   37.90
  11 -11  -1  264.57   30.00
  10 -11  -1  229.68   27.80
  10 -11  -1  243.68   38.70
   9 -11  -1  181.78   21.50
   9 -11  -1  210.68   35.00
   8 -11  -1  722.73   56.99
   8 -11  -1  688.73   38.20
   7 -11  -1   -3.50    4.40
   7 -11  -1    6.30    9.60
   6 -11  -1   51.39    6.10
   4 -11  -1   24.10   11.40
  14 -12  -1    7.30   12.60
  13 -12  -1   25.80   12.00
  12 -12  -1  194.18   35.00
  11 -12  -1   25.10   14.10
  11 -12  -1   30.30   17.50
  10 -12  -1    6.30   10.80
  10 -12  -1   17.30    9.30
   9 -12  -1  -16.40    6.90
   9 -12  -1   -0.30    6.50
   8 -12  -1  728.43   59.39
   7 -12  -1  236.28   14.50
   7 -12  -1  207.98   36.40
   6 -12  -1  157.38   30.90
   5 -12  -1  119.59   28.70
   4 -12  -1  116.29   30.30
  14 -13  -1  -14.60    8.70
  13 -13  -1  160.18   35.20
  12 -13  -1   26.40   12.50
  11 -13  -1   21.50   13.80
  10 -13  -1  227.58   23.70
  10 -13  -1  197.38   37.30
   9 -13  -1  617.74   34.70
   9 -13  -1  721.53   61.69
   8 -13  -1   -5.60    3.50
   8 -13  -1    3.20    9.80
   7 -13  -1    5.00   12.60
   6 -13  -1   50.59   19.50
   5 -13  -1  172.38   37.30
   4 -13  -1   -1.40   10.20
  13 -14  -1   -8.00   15.80
  12 -14  -1   57.99   18.00
  12 -14  -1   29.80   16.80
  11 -14  -1   12.50   15.10
  11 -14  -1   38.80   11.50
  10 -14  -1   10.70    8.30
  10 -14  -1   26.30   14.10
   9 -14  -1  118.09   11.80
   9 -14  -1   92.79   27.10
   8 -14  -1   11.00   14.00
   7 -14  -1  240.68   46.00
   6 -14  -1   53.89   21.00
   5 -14  -1    8.50   16.50
   4 -14  -1  170.78   35.90
  11 -15  -1   30.10   15.70
  10 -15  -1   35.00   19.80
   9 -15  -1  164.28   35.10
   8 -15  -1    4.50   13.50
   7 -15  -1   80.69   25.30
   6 -15  -1   -1.80    9.90
   5 -15  -1   45.90   24.20
   4 -15  -1   36.30   22.30
   4 -15   2  -21.40   15.80
   5 -15   2   77.29   24.60
   6 -15   2    6.40    8.70
   7 -15   2   56.39   20.70
   8 -15   2  174.08   35.70
   9 -15   2  231.08   44.60
  10 -15   2   33.70   16.20
  11 -15   2   26.70   19.80
   4 -14   2  193.88   40.50
   5 -14   2  145.89   36.00
   6 -14   2   52.49   19.80
   7 -14   2  254.87   45.00
   8 -14   2   13.60   15.90
   9 -14   2   21.40   20.00
   9 -14   2   56.19    8.70
   9 -14   2   64.99   10.00
  10 -14   2   19.40    9.40
  10 -14   2   35.10   18.30
  11 -14   2  133.59   43.50
  11 -14   2  259.77   26.90
  12 -14   2  -12.90    7.20
  12 -14   2   10.20   12.10
  13 -14   2   -3.60   12.60
   4 -13   2  101.69   26.20
   5 -13   2  439.06   50.09
   6 -13   2  610.44   57.89
   7 -13   2    4.80   10.70
   8 -13   2   48.80    8.00
   8 -13   2   47.90   19.20
   9 -13   2   72.79   13.00
   9 -13   2   70.99   20.90
  10 -13   2   -1.60   13.50
  10 -13   2   17.60    9.60
  11 -13   2  179.28   36.20
  12 -13   2   24.30   14.40
  13 -13   2   63.89   24.10
  14 -13   2   25.40   16.80
   4 -12   2  217.68   39.10
   5 -12   2   88.79   26.00
   6 -12   2  268.87   43.20
   7 -12   2   14.00    5.00
   7 -12   2   18.40    4.60
   7 -12   2   21.40   14.80
   8 -12   2  110.79   27.20
   9 -12   2  356.56   29.70
   9 -12   2  444.06   45.30
  10 -12   2   26.00   17.30
  10 -12   2   50.79   15.90
  11 -12   2  555.04   51.09
  11 -12   2  478.35   44.00
  12 -12   2  254.17   41.60
  13 -12   2   -6.50    9.40
  14 -12   2   -3.30    9.40
   5 -11   2    5.50   11.50
   6 -11   2  392.76   17.70
   6 -11   2  420.46   18.70
   6 -11   2  407.26   51.09
   7 -11   2   19.20   13.70
   7 -11   2   18.90    7.20
   8 -11   2   -2.20    7.80
   8 -11   2   15.80    8.10
   9 -11   2    5.80    8.10
   9 -11   2   11.70   10.70
  10 -11   2  381.06   41.30
  10 -11   2  370.16   36.80
  11 -11   2   31.40   14.50
  11 -11   2    8.70   11.80
  12 -11   2  199.28   34.90
  13 -11   2  324.17   48.40
  14 -11   2  543.75   57.99
  15 -11   2   14.00   14.40
   3  10  -2   15.70    7.10
   4 -10   2  496.35   46.00
   5 -10   2  702.63   53.79
   5 -10   2  704.93   23.00
   5 -10   2  691.33   22.50
   6 -10   2    1.90    4.70
   6 -10   2    4.60    6.00
   7 -10   2   32.70   12.80
   7 -10   2   31.50   10.20
   8 -10   2  456.45   42.60
   8 -10   2  386.26   31.80
   9 -10   2  301.17   32.50
  10 -10   2  122.99   27.50
  10 -10   2  107.29   23.90
  11 -10   2   26.90   15.30
  11 -10   2    6.50    6.50
  12 -10   2   13.70   12.50
  13 -10   2   50.39   19.80
  14 -10   2  256.17   40.80
  15 -10   2  109.49   26.60
   6   9  -2  212.08   30.80
   5   9  -2   62.89   15.50
   4   9  -2   47.30   13.00
   3   9  -2  345.27   23.60
   2   9  -2   -7.10    3.30
   4  -9   2   27.10   12.30
   5  -9   2 1140.69   41.50
   5  -9   2 1135.89   65.99
   6  -9   2  420.96   37.70
   6  -9   2  423.96   27.40
   7  -9   2  940.81   59.29
   7  -9   2  952.10   48.90
   8  -9   2   16.70   11.00
   8  -9   2    7.40    9.60
  -9   9  -2  197.58   32.60
   9  -9   2  251.87   29.90
   9  -9   2  227.38   28.70
  10  -9   2  -14.40    9.50
  11  -9   2   30.30   13.60
  11  -9   2   33.90   13.50
  12  -9   2    8.20    8.50
  13  -9   2  139.19   30.30
  14  -9   2   60.09   22.00
   7   8  -2  171.38   29.90
   6   8  -2   20.70   12.90
   5   8  -2   58.99   15.50
   4   8  -2   91.99   15.90
   3   8  -2    4.60    5.20
   2   8  -2  436.16   23.60
  -2  -8   2  351.06   36.70
   1   8  -2   31.50    5.50
  -1  -8   2   23.60   12.10
   4  -8   2  268.87   14.20
   4  -8   2  296.37   16.10
   4  -8   2  274.57   29.40
   5  -8   2  223.78   17.90
   5  -8   2  210.68   25.10
   6  -8   2   24.10    8.60
   6  -8   2   17.10    8.00
   7  -8   2  472.85   39.10
   7  -8   2  501.85   35.70
  -8   8  -2  504.45   55.99
   8  -8   2  680.83   46.10
   8  -8   2  657.43   46.90
  -9   8  -2   86.39   20.70
   9  -8   2   71.19   19.50
   9  -8   2   85.89   19.90
  10  -8   2  308.47   34.40
  10  -8   2  241.58   28.90
  11  -8   2   99.39   23.30
  11  -8   2  111.69   25.10
  12  -8   2  243.48   38.60
  13  -8   2  319.67   37.70
  14  -8   2   55.89   18.70
  15  -8   2   64.19   20.80
   7   7  -2  233.38   36.40
   6   7  -2  -12.60   11.60
   5   7  -2    8.90   10.40
   4   7  -2   20.00    8.40
   3   7  -2   17.40    7.10
  -3  -7   2   19.80   10.70
   2   7  -2  958.10   39.00
  -2  -7   2  938.11   58.79
   1   7  -2  475.15   21.40
  -1  -7   2  423.06   35.80
   0   7  -2   98.69    5.90
   3  -7   2  940.31   29.30
   3  -7   2  825.32   26.60
   4  -7   2   20.80    8.50
   4  -7   2   16.50    5.30
   5  -7   2  186.88   23.00
   5  -7   2  249.78   20.50
  -6   7  -2  118.09   22.00
   6  -7   2  116.59   18.70
   6  -7   2  132.29   22.60
  -7   7  -2   92.79   19.60
   7  -7   2  148.49   23.70
   7  -7   2  110.99   21.00
  -8   7  -2  321.07   32.40
   8  -7   2  302.17   31.00
   8  -7   2  315.97   30.80
  -9   7  -2   52.29   16.10
   9  -7   2   54.49   14.40
   9  -7   2   61.99   19.70
 -10   7  -2    1.10    7.70
  10  -7   2   20.70   13.40
  10  -7   2   13.70    7.50
  11  -7   2   13.80    8.20
  12  -7   2   37.50   15.20
  13  -7   2  619.74   53.59
  14  -7   2  228.78   39.70
  15  -7   2  193.98   36.50
   7   6  -2  569.24   46.90
   6   6  -2  238.88   27.30
   5   6  -2  435.36   35.50
   4   6  -2    9.50    7.90
  -4  -6   2   -2.80    7.50
   3   6  -2  423.96   28.10
  -3  -6   2  453.15   38.30
   2   6  -2   35.90    8.30
  -2  -6   2   36.80   11.90
   1   6  -2  117.49   10.40
  -1  -6   2  134.69   21.30
   0   6  -2  302.47   13.20
   2  -6   2   12.50    2.20
   3  -6   2    3.80    3.00
   3  -6   2    2.80    4.80
   4  -6   2  198.58   22.90
   4  -6   2  170.78   15.80
  -5   6  -2   22.60    9.00
   5  -6   2   21.00    7.30
   5  -6   2   35.10   10.70
  -6   6  -2  267.77   26.50
   6  -6   2  308.27   26.50
   6  -6   2  313.77   27.60
  -7   6  -2  187.28   22.30
   7  -6   2  194.88   23.40
   7  -6   2  221.08   24.10
  -8   6  -2 1084.29   60.29
   8  -6   2  902.21   54.19
   8  -6   2 1024.00   61.19
   9  -6   2  106.69   20.90
   9  -6   2   87.19   22.50
 -10   6  -2  466.65   42.20
  10  -6   2  522.35   47.40
  10  -6   2  485.25   41.60
  11  -6   2   10.20    9.40
  12  -6   2  220.08   36.70
  13  -6   2    1.40    7.50
  14  -6   2    1.40   10.10
  15  -6   2  186.28   38.10
   7   5  -2   46.60   19.80
   6   5  -2    5.40    9.20
   5   5  -2  648.54   42.80
  -5  -5   2  673.03   49.99
   4   5  -2 1166.08   55.29
  -4  -5   2 1125.79   64.19
   3   5  -2  204.68   18.50
  -3  -5   2  193.48   22.80
   2   5  -2  226.68   17.20
  -2  -5   2  232.28   19.40
  -2  -5   2  187.48   21.80
   1   5  -2   29.40    5.80
  -1  -5   2   24.20    8.60
  -1  -5   2   23.70    6.50
   0   5  -2   46.50    5.10
   0  -5   2   46.50    5.50
   1  -5   2  392.86   13.80
   2  -5   2  495.85   18.00
   3  -5   2  126.79   15.40
  -4   5  -2  110.09   21.80
   4  -5   2  111.89   13.20
   4  -5   2   95.59   16.00
  -5   5  -2   45.60   11.70
   5  -5   2   36.00   10.50
   5  -5   2   44.50   11.60
  -6   5  -2 1519.85   66.69
   6  -5   2 1462.05   67.19
   6  -5   2 1505.55   64.99
  -7   5  -2  975.70   54.09
   7  -5   2 1035.10   57.79
   7  -5   2 1044.10   53.79
  -8   5  -2   -1.80    4.70
   8  -5   2   18.30    7.90
   8  -5   2    2.70    4.60
  -9   5  -2   23.70   11.40
   9  -5   2   39.80   14.40
   9  -5   2   38.40   12.40
 -10   5  -2  682.83   50.79
  10  -5   2  635.74   53.99
  10  -5   2  608.64   47.20
  11  -5   2  407.16   49.10
  12  -5   2   30.20   12.20
  13  -5   2   59.89   17.80
  14  -5   2   76.59   23.20
  15  -5   2   13.60   14.10
   9   4  -2  141.39   31.90
   8   4  -2  192.98   35.70
   8   4  -2  251.17   37.40
   7   4  -2   18.90   12.40
   6   4  -2  559.04   42.60
  -6  -4   2  480.35   42.20
   5   4  -2   37.90   11.30
  -5  -4   2   26.40   13.60
   4   4  -2  252.77   24.20
  -4  -4   2  271.07   27.10
  -4  -4   2  361.36   29.50
  -3  -4   2   24.50    8.80
  -3  -4   2   23.60    7.70
   2   4  -2  175.98   15.00
  -2  -4   2  157.88   18.70
  -2  -4   2  169.68   15.80
   1   4  -2  104.79    9.50
  -1  -4   2   98.19   18.90
  -1  -4   2  115.79   10.70
   0   4  -2  584.54   21.00
   0  -4   2  577.44   21.60
   1  -4   2 1805.12   47.10
   2  -4   2  182.78   17.10
  -3   4  -2  310.97   22.80
   3  -4   2  331.07   22.80
  -4   4  -2  554.94   32.10
   4  -4   2  568.44   31.90
  -5   4  -2  417.86   28.80
   5  -4   2  356.76   28.20
   5  -4   2  412.26   27.90
  -6   4  -2    6.40    5.30
   6  -4   2    6.30    5.10
   6  -4   2   18.70    8.20
  -7   4  -2  840.92   48.00
   7  -4   2  783.12   50.39
   7  -4   2  801.52   46.10
  -8   4  -2  271.07   27.70
   8  -4   2  280.57   31.20
   8  -4   2  283.97   28.00
  -9   4  -2 1252.57   71.09
   9  -4   2 1188.48   73.19
   9  -4   2 1210.48   65.89
 -10   4  -2   -0.30    9.00
  10  -4   2   10.20    9.70
  10  -4   2    2.20    3.80
  11  -4   2   10.70   10.00
  12  -4   2  138.29   29.50
  13  -4   2   77.69   23.20
  14  -4   2   22.60   16.30
  15  -4   2    3.90   15.40
  10   3  -2   45.60   19.30
   9   3  -2   17.40   13.70
   8   3  -2  152.28   30.20
   8   3  -2  133.89   26.90
   7   3  -2   11.10    7.40
   7   3  -2   -2.00    9.30
  -7  -3   2   11.80   10.60
   6   3  -2  140.39   26.80
   6   3  -2  136.89   24.00
  -6  -3   2   93.39   19.70
   5   3  -2   -0.20    2.60
   5   3  -2   -4.90    4.10
  -5  -3   2    9.60    6.40
  -5  -3   2    3.60    6.10
   4   3  -2  843.32   49.20
   4   3  -2  887.01   46.60
  -4  -3   2  762.72   46.90
  -4  -3   2  872.11   47.30
   3   3  -2   12.40    5.10
   3   3  -2    9.10    6.00
  -3  -3   2    8.60    5.40
  -3  -3   2   -0.50    3.50
   2   3  -2  123.19   12.10
  -2  -3   2  139.09   13.70
  -2  -3   2   91.79   14.90
   1   3  -2  327.47   17.00
  -1  -3   2  355.76   23.00
  -1  -3   2  306.77   17.50
   0   3  -2 2724.63   68.89
   0  -3   2 2666.33   68.89
   1  -3   2   13.80    2.80
   2  -3   2  581.44   27.80
  -3   3  -2 2655.83   81.59
   3  -3   2 2760.42   81.69
  -4   3  -2 1868.81   65.39
   4  -3   2 1855.71   64.19
  -5   3  -2  462.95   31.30
   5  -3   2  524.25   35.00
   5  -3   2  474.85   29.60
  -6   3  -2    9.90    5.60
   6  -3   2   10.10    6.60
   6  -3   2    8.80    5.40
  -7   3  -2   15.90    7.10
   7  -3   2   20.30   10.60
   7  -3   2    8.70    5.20
  -8   3  -2  220.08   24.50
   8  -3   2  191.98   31.50
   8  -3   2  208.88   24.00
  -9   3  -2  388.86   45.90
   9  -3   2  456.85   38.60
   9  -3   2  425.66   44.50
 -10   3  -2   46.70   15.70
  10  -3   2   16.90   11.40
  10  -3   2   34.50   16.60
  11  -3   2  -12.50    4.80
  12  -3   2  338.37   39.60
  13  -3   2   -0.80   10.90
  14  -3   2  260.27   44.80
  12   2  -2    5.40   18.70
  11   2  -2  400.06   46.50
  10   2  -2    3.60   13.10
   9   2  -2    3.70   11.90
   8   2  -2  243.48   30.90
   8   2  -2  248.28   31.50
  -8  -2   2  292.27   34.30
   7   2  -2   54.49   16.80
   7   2  -2   66.49   17.70
  -7  -2   2   50.69   15.20
   6   2  -2  970.20   57.69
   6   2  -2 1099.59   61.09
  -6  -2   2  953.80   58.69
  -6  -2   2 1068.19   59.49
   5   2  -2 1082.69   55.99
   5   2  -2  989.30   55.39
  -5  -2   2 1057.79   56.29
  -5  -2   2 1036.00   56.49
   4   2  -2   -4.30    5.80
  -4  -2   2    5.70    5.70
  -4  -2   2    7.40    4.90
   3   2  -2  558.44   31.20
   3   2  -2  502.25   31.70
  -3  -2   2  503.85   31.30
  -3  -2   2  498.45   30.70
   2   2  -2  198.98   17.00
   2   2  -2  192.68   15.10
  -2  -2   2  222.28   17.90
  -2  -2   2  226.48   16.80
   1   2  -2  563.84   23.40
  -1  -2   2  596.44   27.40
  -1  -2   2  603.24   24.40
   0   2  -2  884.31   27.40
   0  -2   2  859.51   27.10
   1  -2   2  235.08   11.50
  -2   2  -2  874.41   32.30
   2  -2   2  871.81   32.00
  -3   2  -2   13.50    4.90
   3  -2   2   20.30    5.70
  -4   2  -2  216.78   17.50
   4  -2   2  205.88   17.00
  -5   2  -2  113.89   17.40
   5  -2   2  136.29   15.10
  -6   2  -2  193.18   20.80
   6  -2   2  181.88   23.00
   6  -2   2  207.28   20.70
  -7   2  -2  172.38   21.60
   7  -2   2  201.58   25.10
   7  -2   2  246.18   24.80
  -8   2  -2   44.40   13.40
   8  -2   2   34.40   10.80
   8  -2   2   15.20    7.10
  -9   2  -2  982.10   60.19
   9  -2   2  827.42   55.39
   9  -2   2  800.62   59.89
  10  -2   2  446.26   41.20
  11  -2   2   15.40   10.70
  12  -2   2   69.19   21.20
  13  -2   2  128.99   31.90
  14  -2   2    4.00   18.70
  13   1  -2   29.60   20.60
  12   1  -2   26.60   17.70
  11   1  -2  197.18   36.80
  10   1  -2    5.60    8.80
   9   1  -2   25.60   15.50
   9   1  -2   -9.20    8.50
   8   1  -2   87.59   22.60
   8   1  -2   90.29   20.50
  -8  -1   2   54.89   16.80
   7   1  -2  359.76   34.10
   7   1  -2  344.77   34.20
  -7  -1   2  312.37   33.70
  -7  -1   2  372.66   33.50
   6   1  -2  172.88   22.30
   6   1  -2  198.88   24.00
  -6  -1   2  198.78   22.90
  -6  -1   2  200.58   24.50
   5   1  -2 1563.24   69.19
   5   1  -2 1627.24   68.89
  -5  -1   2 1389.56   64.59
   4   1  -2  410.66   28.70
   4   1  -2  439.76   30.10
  -4  -1   2  342.47   40.70
  -4  -1   2  421.46   30.20
   3   1  -2 1863.21   65.49
   3   1  -2 1829.52   64.89
  -3  -1   2 1848.32   65.79
  -3  -1   2 1768.02   63.89
   2   1  -2   17.50    5.50
   2   1  -2   14.70    5.00
  -2  -1   2   14.50    4.80
  -2  -1   2   20.20    6.00
   1   1  -2  253.77   13.90
   1   1  -2  226.18   12.90
  -1  -1   2  262.07   14.00
  -1  -1   2  233.28   13.30
   0   1  -2  219.38   10.80
   0  -1   2  233.78   11.10
  -1   1  -2  242.48   10.90
   1  -1   2  233.68   10.60
  -2   1  -2  239.48   13.70
   2  -1   2  245.28   13.80
  -3   1  -2  579.94   27.80
   3  -1   2  614.84   28.20
  -4   1  -2  312.17   22.00
   4  -1   2  316.97   22.00
  -5   1  -2  102.39   16.50
   5  -1   2   94.39   15.70
   5  -1   2  119.69   20.50
  -6   1  -2   30.40   10.00
   6  -1   2   21.60    8.30
   6  -1   2   22.00    9.80
  -7   1  -2  139.89   23.00
   7  -1   2  125.99   21.70
   7  -1   2  108.89   22.30
  -8   1  -2  449.16   38.50
   8  -1   2  499.65   41.00
   8  -1   2  513.25   44.70
  -9   1  -2   24.50   11.50
   9  -1   2    3.10    7.20
   9  -1   2   37.50   15.70
  10  -1   2  338.47   39.80
  11  -1   2  384.26   42.40
  12  -1   2  508.45   50.59
  13  -1   2  -10.60   10.50
  14  -1   2    5.60   13.00
  13   0  -2   37.30   18.30
  12   0  -2  236.88   41.20
  11   0  -2   31.90   13.50
  10   0  -2  118.59   26.40
   9   0  -2  174.48   30.60
   9   0  -2  200.28   35.00
  -9   0   2  189.48   31.40
   8   0  -2  604.04   48.50
   8   0  -2  707.53   50.19
  -8   0   2  729.93   55.59
   7   0  -2  129.19   24.20
   7   0  -2   86.89   18.90
  -7   0   2  129.19   22.70
  -7   0   2  112.69   23.70
   6   0  -2  332.37   28.90
   6   0  -2  298.47   29.10
  -6   0   2  281.77   29.40
  -6   0   2  300.67   27.20
   5   0  -2   56.59   13.00
   5   0  -2   63.99   14.90
  -5   0   2   60.39   13.70
  -5   0   2   93.29   16.10
   4   0  -2  583.24   32.50
   4   0  -2  546.75   34.00
  -4   0   2  585.04   32.60
  -4   0   2  603.64   35.70
   3   0  -2 2826.32   87.19
   3   0  -2 2927.41   84.49
  -3   0   2 2776.72   83.19
  -3   0   2 2703.93   86.29
   2   0  -2  866.81   34.00
   2   0  -2  837.52   31.60
  -2   0   2  868.51   31.70
  -2   0   2  946.61   35.40
   1   0  -2  239.38   12.50
   1   0  -2  230.78   10.20
  -1   0   2  213.08    9.90
  -1   0   2  223.38   12.20
   0   0  -2 1812.92   48.20
   0   0   2 1812.72   48.30
  -1   0  -2  236.48   11.60
   1   0   2  260.07   12.10
  -2   0  -2  914.01   33.80
   2   0   2  865.71   33.30
  -3   0  -2 2683.13   81.69
   3   0   2 2623.64   81.39
  -4   0  -2  542.35   32.20
   4   0   2  622.04   34.60
  -5   0  -2   73.49   14.80
   5   0   2   65.09   15.10
   5   0   2   43.60   12.00
  -6   0  -2  311.57   27.80
   6   0   2  276.97   28.60
   6   0   2  284.67   27.00
  -7   0  -2  134.39   23.50
   7   0   2  118.99   24.20
   7   0   2   92.39   20.40
  -8   0  -2  691.43   49.40
   8   0   2  627.24   48.20
   8   0   2  570.84   48.50
  -9   0  -2  220.78   34.60
   9   0   2  267.27   34.20
   9   0   2  135.29   28.20
  10   0   2  176.68   32.40
  11   0   2   29.20   17.10
  12   0   2  243.48   42.20
  13   0   2   75.99   25.00
  14  -1  -2  -15.90   17.70
  13  -1  -2   18.20   17.50
  12  -1  -2  404.36   44.30
  11  -1  -2  314.07   46.70
  10  -1  -2  285.47   50.59
   9  -1  -2   18.80   12.10
   9  -1  -2   36.90   14.40
  -9   1   2   34.90   13.00
   8  -1  -2  501.65   43.20
   8  -1  -2  389.96   35.20
  -8   1   2  410.56   36.50
  -8   1   2  509.85   45.00
   7  -1  -2  132.59   24.50
   7  -1  -2  121.99   21.40
  -7   1   2  119.09   20.20
  -7   1   2  114.19   23.00
   6  -1  -2   22.40    7.80
   6  -1  -2   25.80    9.00
  -6   1   2   35.20   10.10
  -6   1   2   30.60   10.30
   5  -1  -2   89.29   14.80
   5  -1  -2  103.49   18.30
  -5   1   2   98.79   17.80
  -5   1   2   84.69   23.70
   4  -1  -2  332.07   24.70
   4  -1  -2  338.57   22.30
  -4   1   2  336.47   25.30
  -4   1   2  328.97   22.30
   3  -1  -2  535.45   28.60
   3  -1  -2  590.74   26.80
  -3   1   2  560.14   26.30
  -3   1   2  594.74   30.00
   2  -1  -2  223.48   14.50
   2  -1  -2  247.08   13.20
  -2   1   2  225.18   12.90
  -2   1   2  214.48   14.30
   1  -1  -2  226.28   10.70
   1  -1  -2  205.18   11.30
  -1   1   2  227.48   10.80
  -1   1   2  222.38   11.70
   0  -1  -2  249.18   11.50
   0   1   2  222.38   11.00
  -1  -1  -2  276.67   15.50
   1   1   2  262.67   15.30
  -2  -1  -2   17.50    5.60
   2   1   2   18.20    5.70
  -3  -1  -2 1912.01   66.89
   3   1   2 1766.72   65.79
  -4  -1  -2  435.86   30.40
   4   1   2  360.46   29.10
   4   1   2  438.46   30.40
  -5  -1  -2 1454.25   66.19
   5   1   2 1496.45   67.59
   5   1   2 1516.55   70.19
  -6  -1  -2  235.68   25.60
   6   1   2  217.98   26.10
   6   1   2  194.08   24.00
  -7  -1  -2  335.97   32.10
   7   1   2  286.87   30.80
   7   1   2  311.67   33.60
  -8  -1  -2   50.89   17.20
   8   1   2   89.59   22.30
   8   1   2  111.79   24.80
   9   1   2  -17.00    9.20
   9   1   2   15.20   13.80
  10   1   2   18.30   12.00
  11   1   2  246.38   42.20
  12   1   2   -2.90   16.30
  13   1   2    0.20   15.70
  14  -2  -2   -2.10   11.70
  13  -2  -2   93.49   25.20
  12  -2  -2   26.10   15.60
  11  -2  -2   -2.40   10.30
  10  -2  -2  355.06   37.70
 -10   2   2  410.06   58.59
   9  -2  -2  936.61   58.09
   9  -2  -2  828.42   59.39
  -9   2   2  873.81   56.79
  -9   2   2 1006.20   67.89
   8  -2  -2   41.60   12.30
   8  -2  -2   31.80   13.60
  -8   2   2   41.50   13.30
  -8   2   2   35.30   12.00
   7  -2  -2  202.48   22.00
   7  -2  -2  238.08   26.60
  -7   2   2  195.28   22.10
  -7   2   2  218.38   26.80
   6  -2  -2  200.38   21.70
   6  -2  -2  189.08   21.90
  -6   2   2  159.68   20.50
  -6   2   2  187.98   19.60
   5  -2  -2  100.19   15.40
  -5   2   2  115.59   19.10
  -5   2   2  122.39   14.30
   4  -2  -2  246.88   20.30
   4  -2  -2  191.78   16.20
  -4   2   2  227.48   17.60
  -4   2   2  197.88   18.80
   3  -2  -2   19.70    5.30
   3  -2  -2   11.80    4.60
  -3   2   2   15.30    5.10
  -3   2   2   24.80    6.70
   2  -2  -2  858.71   32.20
   2  -2  -2  894.61   32.00
  -2   2   2  900.81   33.20
  -2   2   2  860.41   31.80
   1  -2  -2  234.28   11.60
  -1   2   2  226.98   11.50
   0   2   2  875.31   27.70
  -1  -2  -2  595.64   28.60
  -2  -2  -2  211.28   17.90
   2   2   2  196.58   17.40
   3   2   2  524.05   33.20
  -4  -2  -2    8.70    5.70
   4   2   2    9.90    5.90
  -5  -2  -2 1036.00   56.39
   5   2   2  928.11   54.79
   5   2   2 1117.59   58.09
  -6  -2  -2  924.31   56.39
   6   2   2 1027.70   60.39
   6   2   2 1035.80   60.09
  -7  -2  -2   76.69   18.20
   7   2   2   75.49   19.10
   7   2   2   58.49   17.30
   8   2   2  293.57   36.50
   8   2   2  278.47   33.00
   9   2   2   12.70   11.80
  10   2   2   51.49   18.60
  11   2   2  361.86   44.60
  12   2   2   15.10   18.80
  14  -3  -2  269.27   70.39
  13  -3  -2   25.00   12.60
  12  -3  -2  296.07   37.20
  11  -3  -2   -3.90    9.50
  10  -3  -2   21.20   10.40
  10  -3  -2   37.20   16.30
 -10   3   2   46.00   17.50
   9  -3  -2  443.66   44.70
   9  -3  -2  437.76   37.80
  -9   3   2  458.75   44.40
  -9   3   2  398.26   45.50
   8  -3  -2  199.48   31.00
   8  -3  -2  213.68   24.10
  -8   3   2  176.88   30.00
  -8   3   2  184.68   23.00
   7  -3  -2   15.60    7.90
   7  -3  -2    8.70    7.40
  -7   3   2   18.20    7.80
  -7   3   2   15.80    8.80
   6  -3  -2    4.80    6.00
  -6   3   2   14.10    6.90
  -6   3   2   15.20    8.40
   5  -3  -2  513.25   30.30
   5  -3  -2  465.25   31.70
  -5   3   2  535.05   34.90
  -5   3   2  506.15   30.70
   4  -3  -2 1922.91   67.19
   4  -3  -2 1951.70   65.39
  -4   3   2 1885.81   68.09
  -4   3   2 1814.92   65.19
   3  -3  -2 2628.04   78.99
   3  -3  -2 2656.03   81.49
  -3   3   2 2596.24   80.19
  -3   3   2 3011.00   84.89
   2  -3  -2  567.24   28.40
   2  -3  -2  611.94   23.60
  -2   3   2  565.64   23.50
   1  -3  -2   17.40    3.40
  -1   3   2   13.70    3.20
   0   3   2 2593.94   67.19
  -1  -3  -2  354.16   23.70
  -3  -3  -2    7.70    6.00
   3   3   2    4.60    4.20
   3   3   2   11.40    6.40
  -4  -3  -2  780.42   47.50
   4   3   2  822.92   49.30
   4   3   2  817.72   46.40
  -5  -3  -2    0.90    4.70
   5   3   2    1.20    4.70
   5   3   2    0.20    4.20
  -6  -3  -2   62.89   17.90
   6   3   2   94.09   21.70
   6   3   2   87.29   19.80
  -7  -3  -2    5.70    7.60
   7   3   2  -11.00   10.00
   7   3   2   -0.40    5.00
   8   3   2  107.89   24.30
   8   3   2   99.99   24.10
   9   3   2    2.30    9.00
  10   3   2   27.90   18.10
  11   3   2  632.34   61.89
  15  -4  -2  -25.10   15.80
  14  -4  -2    7.50   12.90
  13  -4  -2   64.89   22.00
  12  -4  -2   93.49   24.30
  11  -4  -2   45.40   15.40
  10  -4  -2   11.30    8.20
  10  -4  -2   -5.90    6.60
 -10   4   2   -1.80    8.20
   9  -4  -2 1265.07   65.69
   9  -4  -2 1120.09   68.69
  -9   4   2 1207.38   66.69
  -9   4   2 1088.79   70.69
   8  -4  -2  288.77   30.60
   8  -4  -2  273.67   27.70
  -8   4   2  292.97   32.50
  -8   4   2  290.37   28.70
   7  -4  -2  775.92   45.50
   7  -4  -2  763.52   49.20
  -7   4   2  896.11   49.40
  -7   4   2  910.31   54.69
   6  -4  -2   11.30    6.80
   6  -4  -2   10.40    5.50
  -6   4   2   11.70    6.00
  -6   4   2   -1.30    3.20
   5  -4  -2  358.06   25.80
   5  -4  -2  356.46   26.80
  -5   4   2  361.26   26.80
  -5   4   2  413.36   29.40
   4  -4  -2  575.24   32.20
   4  -4  -2  565.74   29.80
  -4   4   2  515.15   31.50
  -4   4   2  614.24   32.50
   3  -4  -2  337.97   19.00
   3  -4  -2  326.87   23.10
  -3   4   2  340.97   20.10
   2  -4  -2  197.28   11.40
  -2   4   2  206.48   12.30
  -1   4   2 1778.32   47.70
   0   4   2  581.04   21.60
  -1  -4  -2  110.29   17.20
  -2  -4  -2  188.68   20.50
   2   4   2  190.38   17.80
  -3  -4  -2    4.50    5.60
   3   4   2   29.10    8.40
  -4  -4  -2  310.27   30.20
   4   4   2  272.87   26.30
  -5  -4  -2   18.30   15.10
   5   4   2   52.89   15.20
  -6  -4  -2  435.06   41.50
   6   4   2  433.86   38.60
   6   4   2  421.76   41.40
   7   4   2   16.40   12.50
   8   4   2  158.78   33.80
   8   4   2  177.68   31.50
   9   4   2  140.69   31.30
  15  -5  -2  -35.20   13.60
  14  -5  -2   66.99   22.70
  13  -5  -2   57.89   17.20
  12  -5  -2   12.10    8.20
  10  -5  -2  727.23   55.39
  10  -5  -2  764.12   52.49
 -10   5   2  684.73   51.69
   9  -5  -2   52.29   15.10
   9  -5  -2   46.80   16.00
  -9   5   2   45.90   13.70
  -9   5   2   58.59   19.00
   8  -5  -2   -2.60    1.80
   8  -5  -2   -2.00    6.70
  -8   5   2   -2.50    4.30
  -8   5   2   -1.40    3.20
   7  -5  -2 1073.19   56.59
   7  -5  -2  918.41   50.79
  -7   5   2 1070.19   59.49
  -7   5   2 1029.00   54.89
   6  -5  -2 1505.85   65.89
   6  -5  -2 1689.33   68.19
  -6   5   2 1543.55   68.59
  -6   5   2 1487.25   66.89
   5  -5  -2   46.40   11.20
   5  -5  -2   45.20   10.60
  -5   5   2   62.59   12.70
  -5   5   2   59.89   13.50
   4  -5  -2  111.19   17.20
   4  -5  -2  113.39   11.90
  -4   5   2   99.69   12.10
   3  -5  -2  125.69   10.20
   3  -5  -2  130.39   16.00
  -3   5   2  130.19   11.50
   2  -5  -2  499.45   18.80
  -2   5   2  493.85   20.10
  -1   5   2  396.96   15.30
   0   5   2   53.59    5.60
  -1  -5  -2   15.60    7.30
   1   5   2   24.20    6.80
  -2  -5  -2  196.58   22.20
   2   5   2  213.28   18.70
  -3  -5  -2  228.48   25.30
   3   5   2  210.98   20.50
  -4  -5  -2 1151.68   79.09
   4   5   2 1267.57   60.99
  -5  -5  -2  664.23   50.39
   5   5   2  641.14   45.00
   6   5   2   15.10    9.10
   7   5   2   75.99   20.40
  15  -6  -2  224.18   40.70
  14  -6  -2   23.70   13.50
  13  -6  -2   14.70   10.60
  12  -6  -2  239.38   37.50
  10  -6  -2  430.36   41.40
  10  -6  -2  479.35   41.40
 -10   6   2  505.35   44.30
   9  -6  -2   98.49   20.80
   9  -6  -2   87.49   19.40
  -9   6   2  107.39   24.60
   8  -6  -2 1024.80   56.39
   8  -6  -2  919.21   56.09
  -8   6   2  956.30   57.19
  -8   6   2 1007.80   61.69
   7  -6  -2  194.18   22.70
   7  -6  -2  193.78   22.00
  -7   6   2  157.18   25.00
  -7   6   2  206.88   24.80
   6  -6  -2  266.57   23.80
   6  -6  -2  280.77   26.40
  -6   6   2  280.57   26.10
  -6   6   2  289.37   27.00
   5  -6  -2   28.50    7.80
   5  -6  -2   29.00   10.40
  -5   6   2   32.80    9.40
   4  -6  -2  179.08   20.10
   4  -6  -2  187.58   14.50
  -4   6   2  178.38   16.00
   3  -6  -2    2.60    2.30
   3  -6  -2    2.20    4.20
  -3   6   2    7.30    4.20
  -2   6   2    3.70    2.40
  -1   6   2 1549.94   40.60
   0   6   2  289.77   13.60
   0   6   2  276.17   15.40
  -1  -6  -2  103.49   19.70
   1   6   2  118.29   12.00
  -2  -6  -2   24.80    9.40
   2   6   2   37.50    9.80
  -3  -6  -2  443.76   40.60
   3   6   2  476.45   32.30
  -4  -6  -2   26.80   11.20
   4   6   2   -3.20    7.10
   5   6   2  415.16   35.50
   6   6   2  256.97   30.30
   7   6   2  602.64   49.70
  15  -7  -2  230.08   41.40
  14  -7  -2  243.48   42.40
  13  -7  -2  626.64   54.19
  12  -7  -2   39.10   15.80
  11  -7  -2   13.90    9.50
  10  -7  -2   11.90    7.90
  10  -7  -2   26.90   15.20
 -10   7   2  -11.40    9.80
   9  -7  -2   80.09   18.70
   9  -7  -2   29.70   14.30
  -9   7   2   56.69   16.70
   8  -7  -2  287.07   29.00
   8  -7  -2  348.57   31.60
  -8   7   2  328.17   32.50
  -8   7   2  321.47   32.80
   7  -7  -2  127.99   21.30
   7  -7  -2   80.89   18.10
  -7   7   2  105.89   21.70
  -7   7   2  124.89   22.10
   6  -7  -2  124.89   21.80
   6  -7  -2  132.69   23.00
  -6   7   2  122.59   20.20
   5  -7  -2  243.68   25.20
   5  -7  -2  219.68   17.70
  -5   7   2  198.78   19.20
   4  -7  -2    2.90    6.70
   4  -7  -2   25.40    5.40
  -4   7   2   20.20    5.80
   3  -7  -2  825.92   26.80
  -3   7   2  821.22   29.80
   0   7   2  120.29    7.60
   0   7   2   98.79    7.90
  -1  -7  -2  464.35   38.70
   1   7   2  476.95   24.30
  -2  -7  -2  880.21   56.89
   2   7   2  897.11   41.00
  -3  -7  -2   20.10   12.50
   3   7   2   20.30    8.40
   4   7   2   55.29   14.20
   5   7   2   15.40   12.00
   6   7   2    1.40   11.80
   7   7   2  197.18   31.30
  15  -8  -2   24.30   18.50
  14  -8  -2   38.10   17.70
  13  -8  -2  344.17   39.80
  12  -8  -2  263.17   32.90
  11  -8  -2  153.18   29.10
  11  -8  -2  114.49   24.80
  10  -8  -2  314.97   33.00
  10  -8  -2  255.57   30.20
   9  -8  -2   95.09   20.40
   9  -8  -2   99.59   22.10
  -9   8   2   75.79   19.10
   8  -8  -2  704.53   49.10
   8  -8  -2  679.23   43.90
  -8   8   2  639.14   51.69
   7  -8  -2  397.66   35.40
   7  -8  -2  443.26   31.20
   6  -8  -2   33.10   12.40
   6  -8  -2   32.50    9.40
  -6   8   2   39.10   12.30
   5  -8  -2  212.88   16.10
   5  -8  -2  231.48   26.90
   4  -8  -2  272.77   29.30
   4  -8  -2  275.47   15.00
  -1  -8  -2    4.50   10.10
   1   8   2   25.10    6.20
   1   8   2   28.20    5.50
   2   8   2  432.56   25.90
   3   8   2   -2.50    6.20
   4   8   2  109.59   18.40
   5   8   2   27.50   15.70
   6   8   2    0.70   13.70
   7   8   2  199.28   33.30
  15  -9  -2  -25.70   15.20
  14  -9  -2   73.29   20.50
  13  -9  -2  163.58   32.10
  12  -9  -2   -7.90    8.20
  11  -9  -2   37.70   15.90
  11  -9  -2   31.30   14.00
   9  -9  -2  186.98   30.80
   9  -9  -2  225.18   25.20
  -9   9   2  213.38   35.90
   8  -9  -2   29.80   11.60
   8  -9  -2   25.30   10.70
   7  -9  -2  944.51   60.19
   7  -9  -2  932.41   46.10
   6  -9  -2  447.96   39.90
   6  -9  -2  482.25   27.50
   5  -9  -2 1140.89   40.40
   5  -9  -2 1161.98   67.89
   4  -9  -2   29.50   12.70
   4  -9  -2   43.20    3.90
   1   9   2  286.57   12.30
   1   9   2  301.47   12.20
   2   9   2    9.80    4.30
   2   9   2    1.30    4.80
   3   9   2  334.77   24.60
   4   9   2   50.99   14.20
   5   9   2   84.59   19.00
   6   9   2  201.58   32.30
  15 -10  -2  115.19   27.20
  14 -10  -2  334.07   41.70
  13 -10  -2   66.49   21.30
  12 -10  -2   29.70   12.80
  11 -10  -2   -1.40   10.20
  11 -10  -2  -13.50   11.40
  10 -10  -2  116.19   26.40
  10 -10  -2  178.18   27.90
   9 -10  -2  269.17   48.80
   9 -10  -2  289.17   27.90
   8 -10  -2  453.25   42.10
   8 -10  -2  434.96   31.80
   7 -10  -2   30.50   12.50
   7 -10  -2   34.80   14.50
   6 -10  -2    7.40    8.60
   6 -10  -2    3.40    4.20
   5 -10  -2  720.83   55.29
   5 -10  -2  674.93   23.90
   4 -10  -2  445.76   44.40
   2  10   2   41.60    4.80
   2  10   2   49.80    5.40
   3  10   2   14.20    6.40
   3  10   2   14.90    6.00
   4  10   2    3.00   11.90
  15 -11  -2   -7.00   12.90
  14 -11  -2  550.64   57.19
  13 -11  -2  372.46   43.60
  12 -11  -2  261.97   41.70
  11 -11  -2   37.50   17.10
  11 -11  -2   29.40   14.90
  10 -11  -2  347.17   38.90
  10 -11  -2  358.16   32.00
   9 -11  -2   16.30    9.00
   9 -11  -2    7.90    6.80
   8 -11  -2   -2.70    5.30
   8 -11  -2   -6.80    5.40
   7 -11  -2   15.00   12.20
   7 -11  -2   31.20    7.80
   6 -11  -2  406.86   19.10
   6 -11  -2  352.36   42.50
   5 -11  -2   12.20   10.60
   4 -11  -2    1.40    9.40
   4  11   2   -0.70    8.80
  14 -12  -2   30.00   16.90
  13 -12  -2    2.30    8.80
  12 -12  -2  192.58   35.20
  11 -12  -2  391.36   44.30
  11 -12  -2  504.85   40.70
  10 -12  -2   38.50   17.40
  10 -12  -2   31.90   13.80
   9 -12  -2  320.47   38.50
   9 -12  -2  312.17   26.80
   8 -12  -2  108.39   25.30
   8 -12  -2   79.19   21.40
   7 -12  -2   18.70   12.20
   7 -12  -2   24.50    5.50
   6 -12  -2  251.07   41.50
   5 -12  -2   73.39   23.60
   4 -12  -2  228.18   40.70
  14 -13  -2    6.70   15.10
  13 -13  -2   47.20   17.70
  12 -13  -2   -5.80    6.30
  11 -13  -2  136.19   29.70
  11 -13  -2  166.48   37.80
  10 -13  -2  -16.40   11.70
  10 -13  -2   15.00   10.00
   9 -13  -2   73.29   12.90
   9 -13  -2   70.29   23.70
   8 -13  -2   41.40    7.30
   8 -13  -2   17.70   17.00
   7 -13  -2    3.90    7.80
   6 -13  -2  600.54   56.29
   5 -13  -2  380.96   45.00
   4 -13  -2  162.48   35.70
  13 -14  -2   25.90   18.80
  12 -14  -2    9.70   12.90
  12 -14  -2   -8.80   14.50
  11 -14  -2  280.07   27.20
  11 -14  -2  284.57   45.20
  10 -14  -2   16.90   10.70
  10 -14  -2   -4.00    8.60
   9 -14  -2   69.49    9.80
   9 -14  -2   77.49   22.40
   8 -14  -2   30.10   13.40
   7 -14  -2  192.08   38.60
   6 -14  -2   31.40   17.80
   5 -14  -2   92.39   26.60
   4 -14  -2  240.38   42.90
  11 -15  -2   -5.70   14.80
  10 -15  -2    5.10   11.30
   9 -15  -2  287.27   47.80
   8 -15  -2  166.18   39.10
   7 -15  -2   35.40   16.80
   6 -15  -2   16.40   10.00
   5 -15  -2   15.50   16.30
   4 -15  -2   -2.40   15.70
   4 -15   3  751.02   71.89
   5 -15   3   -6.00   18.30
   6 -15   3   18.90   18.80
   7 -15   3  -18.50    7.60
   8 -15   3  102.39   29.00
   9 -15   3  982.70   78.09
  10 -15   3  511.15   26.00
  10 -15   3  528.65   55.99
  11 -15   3  716.73   65.39
   4 -14   3  849.72   75.29
   5 -14   3  299.27   49.99
   6 -14   3 1199.28   87.49
   7 -14   3  430.46   48.50
   8 -14   3  100.69   25.50
   9 -14   3   50.59    8.90
   9 -14   3   74.89   10.90
   9 -14   3   39.80   16.80
  10 -14   3    1.10    9.50
  10 -14   3   12.50   12.50
  11 -14   3    5.10   12.70
  12 -14   3  901.91   57.09
  12 -14   3  974.90   75.49
  13 -14   3   50.59   24.80
   4 -13   3  176.18   35.70
   5 -13   3 1070.29   79.49
   6 -13   3   72.19   22.50
   7 -13   3  680.53   61.59
   8 -13   3   24.10   14.80
   8 -13   3   44.30    7.70
   8 -13   3   48.00    7.50
   9 -13   3  633.24   36.50
   9 -13   3  666.13   58.09
  10 -13   3   49.00   14.40
  10 -13   3   22.90   15.00
  11 -13   3   12.50   11.60
  11 -13   3  -19.80   14.50
  12 -13   3  605.84   56.79
  13 -13   3   34.30   17.20
  14 -13   3   58.09   19.90
   4 -12   3   88.19   25.70
   5 -12   3 1543.95   92.69
   6 -12   3  506.25   49.20
   7 -12   3  125.09   11.60
   7 -12   3  116.59   10.80
   7 -12   3  122.29   28.70
   8 -12   3 1333.97   73.29
   8 -12   3 1223.68   79.79
   9 -12   3   -4.50   10.20
   9 -12   3    7.20    8.50
  10 -12   3  110.89   22.30
  10 -12   3  116.49   28.40
  11 -12   3   41.10   17.90
  12 -12   3  959.20   71.19
  13 -12   3  196.58   40.10
  14 -12   3  268.97   44.60
   5 -11   3  996.60   73.99
   6 -11   3   75.49   10.00
   6 -11   3   74.39    8.10
   6 -11   3   85.29   27.30
   7 -11   3  304.37   52.49
   7 -11   3  316.87   23.00
   8 -11   3  501.95   35.00
   8 -11   3  525.95   47.30
   9 -11   3   22.30   11.10
   9 -11   3    1.70    8.90
  10 -11   3  830.12   62.29
  10 -11   3  763.32   52.49
  11 -11   3 2458.95  109.19
  11 -11   3 2208.08  110.49
  12 -11   3  172.48   33.90
  13 -11   3  365.06   43.40
  14 -11   3   27.60   17.20
  15 -11   3  714.13   64.89
   3  10  -3   40.40    9.50
   2  10  -3  121.89    8.30
   4 -10   3   28.20   12.30
   5 -10   3 2731.23   71.49
   5 -10   3 2735.63  117.89
   5 -10   3 2658.23   72.69
   6 -10   3 2579.44   81.99
   6 -10   3 2613.34  113.69
   7 -10   3  493.75   44.50
   7 -10   3  566.14   36.40
   8 -10   3 1309.57   63.79
   8 -10   3 1266.37   74.39
   9 -10   3  283.57   31.80
  10 -10   3  242.18   29.30
  10 -10   3  201.88   33.90
  11 -10   3  559.54   48.80
  11 -10   3  432.36   42.60
  12 -10   3   14.60    9.60
  13 -10   3 1180.38   78.79
  14 -10   3  993.90   74.29
  15 -10   3   20.60   13.60
   6   9  -3  746.13   51.89
   5   9  -3   57.59   16.80
   4   9  -3  687.03   38.60
   3   9  -3    7.90    6.00
   2   9  -3   -7.90    3.70
   1   9  -3  228.38   11.30
   4  -9   3 2584.64   67.49
   4  -9   3 2564.84  110.29
   4  -9   3 2603.94   66.09
   5  -9   3   28.00   12.10
   5  -9   3   40.30    9.00
   6  -9   3  221.68   20.70
   6  -9   3  200.68   31.30
   7  -9   3  224.48   27.10
   7  -9   3  224.88   23.40
   8  -9   3 3858.41  132.59
   8  -9   3 3761.22  140.49
  -9   9  -3  908.31   63.29
   9  -9   3  929.41   59.89
   9  -9   3  807.12   55.09
  10  -9   3  232.98   45.30
  11  -9   3  665.33   53.09
  11  -9   3  641.24   53.79
  12  -9   3   76.79   22.30
  13  -9   3  142.29   31.00
  14  -9   3  247.08   40.10
  15  -9   3   91.89   22.50
   7   8  -3   82.59   26.20
   6   8  -3   70.89   19.90
   5   8  -3   14.60   11.90
   4   8  -3 1210.18   54.99
   3   8  -3  480.65   44.20
   2   8  -3 1219.78   46.10
  -2  -8   3 1261.27   72.39
   1   8  -3 3752.82   98.89
  -1  -8   3 3862.91  139.69
   3  -8   3 2199.38   59.79
   3  -8   3 2532.65   59.29
   4  -8   3  458.35   20.90
   4  -8   3  527.05   41.20
   4  -8   3  447.26   23.30
   5  -8   3  132.79   24.10
   5  -8   3  159.18   15.80
   6  -8   3  382.16   29.00
   6  -8   3  423.36   36.30
   7  -8   3 2384.46   92.79
   7  -8   3 2335.07   98.19
  -8   8  -3  114.39   29.60
   8  -8   3  122.59   22.90
   8  -8   3  122.69   24.10
  -9   8  -3   25.50   11.60
   9  -8   3    7.80    7.30
   9  -8   3   14.60    8.40
  10  -8   3   18.20    9.50
  10  -8   3    5.00   10.00
  11  -8   3 1089.89   69.19
  12  -8   3   54.39   18.20
  13  -8   3  967.70   69.09
  14  -8   3  959.10   69.99
  15  -8   3   17.90   17.00
   7   7  -3  483.85   43.00
   6   7  -3  691.03   47.00
   5   7  -3  109.09   20.10
   4   7  -3  291.87   25.30
  -3  -7   3  534.65   44.40
   2   7  -3  244.98   18.40
  -2  -7   3  206.38   31.40
   1   7  -3 2338.67   68.49
  -1  -7   3 2357.36   96.59
   0   7  -3  916.61   30.10
   1  -7   3 3967.00   94.69
   2  -7   3 3562.94   85.29
   3  -7   3   23.00    9.70
   3  -7   3   25.20    4.70
   4  -7   3 1087.39   57.49
   4  -7   3 1101.79   44.80
   5  -7   3   -2.20    4.00
   5  -7   3    3.10    5.50
  -6   7  -3  223.78   25.00
   6  -7   3  193.98   22.80
   6  -7   3  245.68   25.50
  -7   7  -3  919.31   55.49
   7  -7   3  898.51   52.39
   7  -7   3  916.91   53.19
  -8   7  -3  193.58   30.10
   8  -7   3  147.89   26.00
   8  -7   3  209.48   24.20
  -9   7  -3   76.39   18.20
   9  -7   3   37.80   13.70
   9  -7   3   53.59   15.20
 -10   7  -3  749.13   54.09
  10  -7   3  759.22   57.79
  10  -7   3  663.93   50.19
  11  -7   3    9.50    6.50
  12  -7   3 1473.45   83.99
  13  -7   3  106.99   25.70
  14  -7   3  426.26   45.00
  15  -7   3  156.78   32.80
   7   6  -3  103.59   23.80
   6   6  -3  529.75   41.60
   5   6  -3   69.79   15.60
   4   6  -3 2322.17   86.89
  -4  -6   3 2387.16  104.39
   3   6  -3  242.48   24.00
  -3  -6   3  210.68   26.10
   2   6  -3  438.36   24.80
  -2  -6   3  456.45   36.40
  -2  -6   3  407.06   27.20
   1   6  -3  226.98   15.10
  -1  -6   3  232.88   24.40
  -1  -6   3  200.28   15.90
   0   6  -3 1771.92   49.10
   0  -6   3 1516.75   49.40
   1  -6   3   95.79    7.30
   2  -6   3 2567.44   67.09
   3  -6   3   85.69   17.20
   3  -6   3  104.99    9.20
   4  -6   3 3413.46  135.79
  -5   6  -3 2094.69   83.79
   5  -6   3 2057.49   80.79
  -6   6  -3 1778.62   76.19
   6  -6   3 1691.63   72.79
   6  -6   3 1731.13   74.49
  -7   6  -3 4510.45  147.89
   7  -6   3 4530.75  150.08
   7  -6   3 4461.65  144.19
  -8   6  -3  175.68   27.30
   8  -6   3  196.58   22.50
   8  -6   3  195.18   25.10
  -9   6  -3   -2.20   11.30
   9  -6   3    7.00    5.80
   9  -6   3   15.00   10.10
 -10   6  -3   42.90   15.60
  10  -6   3   40.80   16.60
  10  -6   3   48.30   17.00
  11  -6   3  992.80   67.89
  12  -6   3  543.85   48.60
  13  -6   3  716.13   59.09
  14  -6   3  109.19   31.20
  15  -6   3  826.32   69.19
   7   5  -3 1324.17   74.19
   6   5  -3  852.11   53.79
   5   5  -3 2660.83  100.69
  -5  -5   3 2549.04  109.89
   4   5  -3   35.50   11.50
  -4  -5   3   39.40   13.20
  -4  -5   3   53.09   15.40
   3   5  -3  171.88   16.70
  -3  -5   3  181.48   19.20
  -3  -5   3  153.38   24.70
   2   5  -3    3.00    3.80
  -2  -5   3   20.80    6.70
  -2  -5   3    3.50    5.30
   1   5  -3 2148.19   63.19
  -1  -5   3 1919.41   63.99
  -1  -5   3 2090.29   79.59
   0   5  -3   75.39    7.30
   0  -5   3   77.49    7.80
   1  -5   3  163.58   10.10
   2  -5   3 1438.56   43.30
   3  -5   3 1019.30   48.00
  -4   5  -3  301.57   31.00
   4  -5   3  280.67   23.40
  -5   5  -3   68.79   14.40
   5  -5   3   70.09   14.10
  -6   5  -3   98.79   17.90
   6  -5   3   99.19   18.30
   6  -5   3  111.79   20.40
  -7   5  -3 3567.84  123.49
   7  -5   3 3627.24  130.09
   7  -5   3 3635.54  120.99
  -8   5  -3 2361.86   98.39
   8  -5   3 2610.54   98.79
   8  -5   3 2462.95  105.39
  -9   5  -3 2325.27  116.89
   9  -5   3 2409.76   99.69
   9  -5   3 2445.66  109.59
 -10   5  -3 2642.34  114.49
  10  -5   3 2786.72  124.69
  10  -5   3 2748.23  112.89
  11  -5   3   89.69   22.90
  12  -5   3   82.69   21.70
  13  -5   3   34.60   14.60
  14  -5   3   80.69   19.90
  15  -5   3  540.05   56.29
   8   4  -3  134.49   26.70
   8   4  -3   83.79   23.40
   6   4  -3   33.80   12.30
  -6  -4   3   44.40   14.80
   5   4  -3 2454.85   95.19
  -5  -4   3 2318.37  100.19
  -5  -4   3 2453.95   98.49
   4   4  -3  479.25   32.60
  -4  -4   3  453.75   34.20
  -4  -4   3  396.36   34.90
   3   4  -3 1054.09   47.40
  -3  -4   3  983.70   48.00
  -3  -4   3 1049.49   54.19
   2   4  -3 4037.00  115.69
  -2  -4   3 4069.69  118.79
  -2  -4   3 4441.26  131.29
   1   4  -3  296.87   17.70
  -1  -4   3  311.77   24.10
  -1  -4   3  302.87   18.70
   0   4  -3 3567.14   89.99
   0  -4   3 3334.77   89.39
   1  -4   3  202.88   11.80
   2  -4   3 3110.19   95.69
   2  -4   3 3102.69   82.39
  -3   4  -3  450.05   28.00
   3  -4   3  462.45   27.30
  -4   4  -3 3458.65  106.49
   4  -4   3 3496.75  105.19
  -5   4  -3  197.18   19.20
   5  -4   3  186.78   18.20
  -6   4  -3 2417.56   89.19
   6  -4   3 2417.76   95.29
   6  -4   3 2462.15   87.49
  -7   4  -3   11.60    8.20
   7  -4   3   13.30    7.00
   7  -4   3   26.70   11.60
  -8   4  -3  499.95   38.40
   8  -4   3  504.15   37.70
   8  -4   3  518.35   43.60
  -9   4  -3   40.10   16.00
 -10   4  -3 2182.38  102.49
  10  -4   3 2497.35  117.29
  10  -4   3 2420.06  104.49
  11  -4   3  308.07   34.80
  12  -4   3 1220.38   77.69
  13  -4   3  704.53   60.09
  15  -4   3  776.22   70.79
  10   3  -3 1327.27   86.29
   9   3  -3   86.79   24.30
   8   3  -3 1045.50   67.39
   8   3  -3 1030.20   68.69
   7   3  -3  712.93   50.69
   7   3  -3  742.23   54.49
  -7  -3   3  615.24   49.50
   6   3  -3   13.40   11.40
   6   3  -3   14.00    8.80
  -6  -3   3    6.60    6.90
  -6  -3   3    3.90    6.20
   5   3  -3 2399.16   97.09
   5   3  -3 2383.46   92.29
  -5  -3   3 2172.08   92.19
  -5  -3   3 2361.76   95.29
   4   3  -3   21.00    8.90
   4   3  -3   42.10   11.40
  -4  -3   3   36.70   11.20
  -4  -3   3   35.00   11.10
   3   3  -3   89.09   14.50
  -3  -3   3   77.99   14.50
  -3  -3   3  103.49   17.50
   2   3  -3  977.50   40.20
  -2  -3   3  998.80   45.70
  -2  -3   3  944.71   40.90
   1   3  -3  441.86   21.70
  -1  -3   3  436.76   26.00
  -1  -3   3  474.95   23.00
   0   3  -3 3639.04   92.79
   0  -3   3 3573.84   92.39
   1  -3   3 5877.61  142.09
   2  -3   3 2727.33   79.99
  -3   3  -3 3597.84  101.39
   3  -3   3 3496.05   99.99
  -4   3  -3  196.18   17.10
   4  -3   3  207.68   17.10
  -5   3  -3 1321.17   58.39
   5  -3   3 1336.97   54.99
  -6   3  -3  108.69   17.90
   6  -3   3   55.09   15.10
   6  -3   3   90.29   16.10
  -7   3  -3  963.50   52.89
   7  -3   3 1005.90   59.99
   7  -3   3 1056.99   54.49
  -8   3  -3  125.29   22.00
   8  -3   3  151.68   24.30
   8  -3   3  152.28   27.40
  -9   3  -3  195.18   31.70
   9  -3   3  143.39   29.50
   9  -3   3  240.58   27.00
 -10   3  -3  601.24   48.00
  10  -3   3  579.44   46.70
  10  -3   3  445.56   49.10
  11  -3   3  548.05   48.60
  12  -3   3    4.10    7.30
  13  -3   3   46.80   16.10
  14  -3   3    2.20   10.00
  12   2  -3  303.97   50.29
  11   2  -3  368.66   45.10
  10   2  -3   13.90   12.30
   9   2  -3  655.13   54.99
   8   2  -3   36.00   12.80
   8   2  -3   19.00   12.20
  -8  -2   3   20.70   10.30
   7   2  -3   55.49   16.70
   7   2  -3   43.00   15.50
  -7  -2   3   47.90   16.20
  -7  -2   3   55.89   16.00
   6   2  -3  222.48   25.90
   6   2  -3  191.58   29.20
  -6  -2   3  196.08   30.50
  -6  -2   3  161.48   25.80
   5   2  -3 3478.45  122.79
   5   2  -3 3407.06  120.39
  -5  -2   3 3917.31  126.69
  -5  -2   3 3638.54  123.59
   4   2  -3 2366.66   85.39
   4   2  -3 2260.67  103.39
  -4  -2   3 2354.76   86.49
  -4  -2   3 2392.36   87.49
   3   2  -3 1416.96   56.29
   3   2  -3 1417.76   58.49
  -3  -2   3 1431.66   58.39
  -3  -2   3 1456.45   57.49
   2   2  -3 3050.79   90.19
   2   2  -3 3166.18   94.19
  -2  -2   3 3004.90   92.79
  -2  -2   3 3268.27   92.59
   1   2  -3 2780.72   75.59
  -1  -2   3 2609.64   77.39
  -1  -2   3 2697.13   75.69
   0   2  -3    1.10    1.70
   0  -2   3    5.40    2.50
   1  -2   3  686.13   26.00
   1  -2   3  753.82   27.60
  -2   2  -3   13.40    4.30
   2  -2   3    4.90    2.90
  -3   2  -3 5722.93  146.89
   3  -2   3 5717.23  145.99
  -4   2  -3 3154.58   94.39
   4  -2   3 3124.19   93.89
   5  -2   3  976.30   45.50
  -6   2  -3 4142.79  129.39
   6  -2   3 4079.39  128.19
   6  -2   3 4116.89  139.59
  -7   2  -3    6.80    5.90
   7  -2   3    6.70    5.60
   7  -2   3   -1.30    4.70
  -8   2  -3  482.15   38.30
   8  -2   3  355.56   33.10
   8  -2   3  401.76   38.40
  -9   2  -3  211.28   32.20
   9  -2   3  212.48   34.30
   9  -2   3  272.27   30.40
  10  -2   3 1188.18   71.39
  11  -2   3  -10.80    7.80
  12  -2   3  154.98   30.30
  13  -2   3    4.20   11.50
  14  -2   3  941.21   76.49
  13   1  -3   32.70   20.90
  12   1  -3  190.68   39.40
  11   1  -3  140.09   31.30
  10   1  -3  470.05   46.60
   9   1  -3  263.87   32.60
   8   1  -3   -3.70    5.10
   8   1  -3    6.60    7.40
  -8  -1   3    9.30    8.20
  -8  -1   3   13.80    9.90
   7   1  -3  158.78   26.30
   7   1  -3  192.88   29.40
  -7  -1   3  111.59   21.50
  -7  -1   3  167.98   29.30
   6   1  -3 4478.45  150.48
   6   1  -3 4513.75  148.19
  -6  -1   3 4599.94  148.19
  -6  -1   3 4779.42  154.68
   5   1  -3  103.69   18.00
   5   1  -3  127.59   20.90
  -5  -1   3  104.59   19.40
  -5  -1   3  117.99   19.00
   4   1  -3  177.38   19.50
   4   1  -3  182.08   18.80
  -4  -1   3  144.09   17.50
  -4  -1   3  153.68   18.40
   3   1  -3  189.28   16.90
   3   1  -3  188.58   17.00
  -3  -1   3  238.58   19.40
  -3  -1   3  192.98   17.10
   2   1  -3 5938.11  150.98
   2   1  -3 5870.41  149.79
  -2  -1   3 5717.43  150.58
  -2  -1   3 5896.11  149.79
   1   1  -3  692.73   27.50
   1   1  -3  695.13   25.60
  -1  -1   3  695.33   25.70
  -1  -1   3  693.53   27.50
   0   1  -3 1355.76   41.20
   0  -1   3 1324.47   41.00
  -1   1  -3 1342.47   36.70
   1  -1   3 1321.17   41.70
   1  -1   3 1291.67   36.10
  -2   1  -3  708.93   26.90
   2  -1   3  732.53   27.30
  -3   1  -3 2759.92   80.69
   3  -1   3 2716.83   80.09
  -4   1  -3  488.95   28.40
   4  -1   3  436.86   26.90
  -5   1  -3  321.87   25.50
   5  -1   3  346.37   26.00
  -6   1  -3 2154.18   83.49
   6  -1   3 2013.80   88.49
   6  -1   3 2101.69   82.59
  -7   1  -3  213.88   24.40
   7  -1   3  240.18   25.80
   7  -1   3  238.08   27.50
  -8   1  -3 2284.97   98.49
   8  -1   3 2328.87   99.09
   8  -1   3 2304.27  104.79
  -9   1  -3 3790.12  143.59
   9  -1   3 3842.52  152.28
   9  -1   3 3815.52  143.79
  10  -1   3  251.77   31.60
  11  -1   3  796.82   61.79
  12  -1   3   30.10   14.00
  13  -1   3  594.24   71.49
  14  -1   3   55.59   27.30
  13   0  -3   10.10   17.50
  12   0  -3 1125.99   79.69
  11   0  -3 2466.25  118.79
  10   0  -3  226.38   37.90
   9   0  -3  895.71   60.99
   9   0  -3  894.41   63.69
  -9   0   3  818.32   58.39
  -9   0   3  911.51   66.19
   8   0  -3  138.69   25.80
   8   0  -3  137.99   30.40
  -8   0   3  126.79   26.50
  -8   0   3  127.09   28.10
   7   0  -3  882.71   56.19
   7   0  -3  803.92   50.69
  -7   0   3  919.61   58.59
  -7   0   3  848.62   51.89
   6   0  -3 1694.03   73.69
   6   0  -3 1550.94   74.59
  -6   0   3 1830.72   80.29
  -6   0   3 1755.92   74.19
   5   0  -3   67.09   15.00
   5   0  -3   63.39   13.70
  -5   0   3   86.39   18.40
  -5   0   3   56.09   13.00
   4   0  -3 3441.56  109.59
   4   0  -3 3504.15  105.79
  -4   0   3 3519.35  105.69
  -4   0   3 3515.75  110.69
   3   0  -3 3639.94  105.19
   3   0  -3 3388.06   99.19
  -3   0   3 3774.82  101.09
  -3   0   3 3390.56  103.89
   2   0  -3   10.50    3.40
   2   0  -3    8.00    3.80
  -2   0   3    3.50    3.10
  -2   0   3    7.60    3.30
   1   0  -3 1327.47   41.90
   1   0  -3 1290.97   35.10
  -1   0   3 1211.68   34.50
  -1   0   3 1372.66   42.20
   0   0  -3    1.20    1.40
   0   0   3    0.50    1.10
  -1   0  -3 1297.67   38.40
   1   0   3 1399.46   39.40
  -2   0  -3    9.40    3.50
   2   0   3    6.70    3.50
  -3   0  -3 3810.82  106.39
   3   0   3 3575.54  105.79
  -4   0  -3 3569.24  110.49
   4   0   3 3706.13  112.59
  -5   0  -3   65.69   14.20
  -6   0  -3 1738.43   75.39
   6   0   3 1697.63   80.19
   6   0   3 1749.82   76.49
  -7   0  -3  911.51   54.99
   7   0   3  896.71   55.29
   7   0   3  921.11   58.79
  -8   0  -3   96.89   20.60
   8   0   3  111.49   22.90
   9   0   3  844.22   59.59
   9   0   3  892.51   64.49
  10   0   3  208.28   34.90
  11   0   3 2433.36  119.39
  12   0   3 1060.89   77.49
  13   0   3   13.80   14.40
  14  -1  -3   46.80   22.20
  13  -1  -3  470.85   53.99
  12  -1  -3   32.30   14.60
  11  -1  -3  765.12   59.99
  10  -1  -3  208.38   35.90
   9  -1  -3 4156.48  147.99
   9  -1  -3 3791.42  151.48
  -9   1   3 3781.62  144.29
  -9   1   3 4141.79  159.08
   8  -1  -3 2462.25   99.09
   8  -1  -3 2368.86  104.49
  -8   1   3 2160.78  103.19
  -8   1   3 2273.07   97.39
   7  -1  -3  222.98   26.60
   7  -1  -3  218.78   24.10
  -7   1   3  245.58   28.80
  -7   1   3  217.38   24.50
   6  -1  -3 2072.29   86.39
   6  -1  -3 2148.69   81.49
  -6   1   3 2051.59   87.49
  -6   1   3 2074.19   80.59
   5  -1  -3  310.67   23.90
   5  -1  -3  293.37   26.00
  -5   1   3  316.27   27.00
   4  -1  -3  463.35   29.40
   4  -1  -3  466.15   26.50
  -4   1   3  413.06   25.40
  -4   1   3  437.56   29.10
   3  -1  -3 2561.74   76.19
   3  -1  -3 2800.52   83.59
  -3   1   3 2581.94   82.49
  -3   1   3 2718.43   76.99
   2  -1  -3  712.13   26.00
   2  -1  -3  723.03   30.30
  -2   1   3  689.03   26.10
  -2   1   3  774.22   31.20
   1  -1  -3 1314.67   41.80
   1  -1  -3 1295.57   37.20
  -1   1   3 1332.17   42.10
  -1   1   3 1399.06   38.50
   0  -1  -3 1347.57   40.60
   0   1   3 1248.98   40.00
  -1  -1  -3  714.23   28.30
   1   1   3  748.03   28.80
  -2  -1  -3 5874.11  153.28
   2   1   3 5902.61  153.58
  -3  -1  -3  194.48   17.60
   3   1   3  185.98   17.40
  -4  -1  -3  205.48   20.60
   4   1   3  166.08   18.20
  -5  -1  -3  114.39   19.20
   5   1   3  100.89   20.60
   5   1   3  104.29   19.30
  -6  -1  -3 4822.82  152.68
   6   1   3 4198.98  151.58
   6   1   3 4764.22  152.88
  -7  -1  -3  149.39   26.20
   7   1   3  149.29   27.20
   7   1   3  162.98   27.50
  -8  -1  -3   15.60   10.50
   8   1   3    9.90   11.90
   8   1   3   -0.30    5.20
   9   1   3  279.77   34.10
  10   1   3  508.95   49.50
  11   1   3  174.28   35.90
  12   1   3  223.78   50.39
  13   1   3   -9.40   15.00
  14  -2  -3 1007.50   77.49
  13  -2  -3   19.70   14.20
  12  -2  -3  113.99   29.00
  11  -2  -3   19.70   11.10
  10  -2  -3 1388.06   76.29
 -10   2   3 1200.78   80.49
 -10   2   3 1253.27   88.49
   9  -2  -3  253.77   38.40
   9  -2  -3  266.97   29.90
  -9   2   3  243.58   38.60
  -9   2   3  257.47   29.70
   8  -2  -3  437.36   39.50
   8  -2  -3  400.76   34.60
  -8   2   3  474.35   37.20
  -8   2   3  396.06   39.40
   7  -2  -3    2.50    3.70
   7  -2  -3    4.50    7.10
  -7   2   3    8.30    5.70
  -7   2   3    6.20    6.30
   6  -2  -3 4074.69  133.09
   6  -2  -3 3557.94  138.59
  -6   2   3 4132.19  125.69
  -6   2   3 4120.49  135.49
   5  -2  -3  996.80   45.70
   5  -2  -3 1115.89   52.39
  -5   2   3 1017.10   46.20
  -5   2   3 1021.90   51.59
   4  -2  -3 3173.68   96.19
   4  -2  -3 2875.81   88.39
  -4   2   3 2991.10   95.59
  -4   2   3 2826.12   88.29
   3  -2  -3 5707.93  151.98
   3  -2  -3 5355.76  146.49
  -3   2   3 6262.17  154.58
  -3   2   3 5956.10  149.19
   2  -2  -3    5.00    3.00
   2  -2  -3   13.00    4.20
  -2   2   3    1.70    2.30
  -2   2   3    5.40    2.90
   1  -2  -3  696.53   26.30
  -1   2   3  706.33   26.70
   0   2   3    9.10    3.30
  -1  -2  -3 2741.13   81.59
  -2  -2  -3 3296.17   97.69
   2   2   3 3008.80   96.09
   3   2   3 1394.06   59.69
  -4  -2  -3 2472.45   91.59
   4   2   3 2463.65   92.59
  -5  -2  -3 3678.73  125.59
   5   2   3 3598.74  125.99
   5   2   3 3468.05  124.49
  -6  -2  -3  190.08   24.20
   6   2   3  201.88   30.00
   6   2   3  213.28   25.80
  -7  -2  -3   61.99   15.50
   7   2   3   54.69   16.80
   7   2   3   32.10   13.80
   8   2   3   12.50    8.70
   8   2   3    8.10    9.00
   9   2   3  634.64   54.09
  10   2   3    9.50   10.10
  11   2   3  366.36   46.00
  12   2   3  290.57   48.80
  13  -3  -3   15.90   10.70
  12  -3  -3   10.60   12.10
  11  -3  -3  517.65   46.70
  10  -3  -3  467.55   49.50
  10  -3  -3  550.54   45.40
 -10   3   3  537.55   51.09
 -10   3   3  640.64   49.10
   9  -3  -3  227.68   26.60
   9  -3  -3  256.57   32.00
  -9   3   3  225.48   36.40
  -9   3   3  173.78   33.10
   8  -3  -3  163.58   25.10
   8  -3  -3  182.98   29.30
  -8   3   3  100.09   23.10
  -8   3   3  163.08   25.20
   7  -3  -3 1137.89   55.29
   7  -3  -3 1033.50   58.69
  -7   3   3 1032.60   54.09
  -7   3   3 1061.09   60.49
   6  -3  -3   90.79   17.90
  -6   3   3  103.59   16.90
  -6   3   3   71.89   17.20
   5  -3  -3 1290.77   84.89
   5  -3  -3 1496.95   57.59
  -5   3   3 1532.45   59.49
  -5   3   3 1376.96   61.29
   4  -3  -3  222.78   18.80
   4  -3  -3  174.78   15.70
  -4   3   3  195.48   17.10
  -4   3   3  172.78   17.20
   3  -3  -3 3619.24  101.49
   3  -3  -3 3614.64  102.89
  -3   3   3 3703.13  104.59
  -3   3   3 3618.34  102.59
   2  -3  -3 2776.12   82.69
   2  -3  -3 2769.72   76.29
  -2   3   3 2717.03   76.69
   1  -3  -3 6018.60  142.89
  -1   3   3 5715.53  142.49
   0   3   3 3617.14   93.59
  -1  -3  -3  466.15   27.90
  -2  -3  -3  965.70   55.09
  -3  -3  -3   97.59   17.30
  -4  -3  -3   31.20   11.30
   4   3   3   24.50    8.80
   4   3   3   13.90    8.70
  -5  -3  -3 2341.77   96.49
   5   3   3 2195.88   95.89
   5   3   3 2374.16   95.99
  -6  -3  -3   -9.90    4.20
   6   3   3   11.00    7.60
   6   3   3   -4.10    7.00
  -7  -3  -3  756.82   54.99
   7   3   3  789.12   56.29
   7   3   3  734.93   55.99
   8   3   3 1043.10   71.19
   8   3   3 1101.39   70.59
   9   3   3   54.29   21.20
  10   3   3 1262.47   85.09
  11   3   3   71.49   23.70
  15  -4  -3  840.82   72.99
  14  -4  -3   31.60   16.40
  13  -4  -3  620.74   55.89
  12  -4  -3 1336.37   80.69
  11  -4  -3  242.58   44.40
  10  -4  -3 2606.64  117.79
  10  -4  -3 2506.85  107.29
 -10   4   3 2536.35  120.89
 -10   4   3 2642.24  112.09
   9  -4  -3   28.70   10.60
  -9   4   3   43.30   17.00
  -9   4   3   51.59   14.70
   8  -4  -3  436.46   38.70
   8  -4  -3  490.05   37.10
  -8   4   3  478.25   37.30
  -8   4   3  437.96   39.80
   7  -4  -3   35.80   12.70
   7  -4  -3   15.00    6.40
  -7   4   3   43.40   13.10
  -7   4   3   23.40    9.10
   6  -4  -3 2493.75   86.29
   6  -4  -3 2251.27   87.29
  -6   4   3 2418.56   86.99
  -6   4   3 2173.58  108.09
   5  -4  -3  184.88   18.00
   5  -4  -3  187.28   18.80
  -5   4   3  161.68   17.80
  -5   4   3  194.68   20.20
   4  -4  -3 3538.05  101.19
   4  -4  -3 3273.87  102.09
  -4   4   3 3333.87  104.29
  -4   4   3 3235.28  101.29
   3  -4  -3  445.16   22.90
   3  -4  -3  418.96   26.70
  -3   4   3  446.16   24.10
   2  -4  -3 3137.79   82.69
  -2   4   3 3014.50   83.19
   1  -4  -3  200.38   12.00
  -1   4   3  199.18   12.20
   0   4   3 3353.66   88.19
  -1  -4  -3  319.57   25.10
  -2  -4  -3 3986.00  127.29
  -3  -4  -3 1108.69   57.49
   3   4   3 1025.60   51.09
  -4  -4  -3  479.05   38.30
   4   4   3  467.05   34.90
  -5  -4  -3 2172.78  149.49
   5   4   3 2375.36   95.89
  -6  -4  -3   38.40   14.90
   6   4   3   58.29   14.70
   7   4   3   18.60   11.20
   7   4   3   -3.20    6.30
   8   4   3  152.88   33.70
   8   4   3   99.49   27.20
  15  -5  -3  453.25   51.79
  14  -5  -3   69.59   21.10
  13  -5  -3   72.69   21.90
  12  -5  -3   96.79   22.70
  11  -5  -3   90.99   33.10
  10  -5  -3 2805.22  121.49
  10  -5  -3 2597.34  109.89
 -10   5   3 2657.73  114.69
 -10   5   3 2829.22  126.29
   9  -5  -3 2443.36  101.49
   9  -5  -3 2610.04  110.59
  -9   5   3 2683.53  116.19
  -9   5   3 2512.05  105.49
   8  -5  -3 2633.74   98.09
   8  -5  -3 2232.98   97.49
  -8   5   3 2331.37  102.19
  -8   5   3 2423.06   97.59
   7  -5  -3 3519.05  122.69
   7  -5  -3 3483.05  118.59
  -7   5   3 3638.04  127.49
  -7   5   3 3639.04  123.09
   6  -5  -3   97.49   17.80
   6  -5  -3  124.29   19.40
  -6   5   3   88.19   17.50
  -6   5   3  132.29   20.90
   5  -5  -3   83.29   15.30
   5  -5  -3   91.59   15.00
  -5   5   3   71.29   14.50
  -5   5   3   58.29   13.00
   4  -5  -3  308.37   20.70
   4  -5  -3  324.77   25.50
  -4   5   3  292.37   21.60
   3  -5  -3 1032.90   49.60
   3  -5  -3 1061.29   38.00
  -3   5   3  974.40   39.00
   2  -5  -3 1429.66   43.80
  -2   5   3 1404.46   44.80
  -1   5   3  157.58   10.70
   0   5   3   65.49    7.30
  -1  -5  -3 2202.48   84.79
  -2  -5  -3   -3.80    3.80
  -3  -5  -3  165.78   25.90
   3   5   3  173.78   20.00
  -4  -5  -3   40.40   20.00
   4   5   3   49.50   11.70
  -5  -5  -3 2797.32  117.19
   5   5   3 2601.84  105.29
   6   5   3 1066.69   64.09
   7   5   3 1464.25   80.39
  15  -6  -3  933.81   72.69
  14  -6  -3   88.39   23.70
  13  -6  -3  776.02   60.89
  12  -6  -3  420.36   43.30
  10  -6  -3   26.40   12.60
  10  -6  -3   76.39   19.80
 -10   6   3   41.60   16.00
 -10   6   3   64.69   17.90
   9  -6  -3  -10.50    6.70
   9  -6  -3   13.30   11.00
  -9   6   3    6.80    6.70
   8  -6  -3  182.08   28.50
   8  -6  -3  194.18   23.20
  -8   6   3  174.48   27.50
  -8   6   3  175.48   29.40
   7  -6  -3 4839.62  151.38
   7  -6  -3 5224.98  155.38
  -7   6   3 4650.73  154.68
  -7   6   3 4755.32  155.78
   6  -6  -3 1770.62   74.99
   6  -6  -3 1747.13   69.99
  -6   6   3 1727.23   73.89
  -6   6   3 1802.42   77.99
   5  -6  -3 2041.10   81.59
   5  -6  -3 2127.09   73.09
  -5   6   3 2159.18   77.79
   4  -6  -3 4141.49  112.89
   4  -6  -3 4013.60  130.39
  -4   6   3 4154.18  117.29
   3  -6  -3   97.39    9.30
   3  -6  -3   85.89   16.80
  -3   6   3   82.29    9.60
   2  -6  -3 2430.16   65.19
  -2   6   3 2410.66   66.89
  -1   6   3   87.49    7.70
   0   6   3 1642.84   49.60
  -1  -6  -3  192.58   22.70
  -2  -6  -3  416.06   36.70
   2   6   3  479.25   30.10
  -3  -6  -3  223.18   27.70
   3   6   3  205.78   26.60
  -4  -6  -3 2318.47  106.89
   4   6   3 2668.03   98.99
   5   6   3   98.89   19.10
   6   6   3  568.74   44.80
   7   6   3   27.30   17.70
  15  -7  -3  131.89   32.20
  14  -7  -3  485.85   49.40
  13  -7  -3  120.99   27.90
  12  -7  -3 1483.05   83.99
  11  -7  -3   -3.90    3.50
  10  -7  -3  704.53   51.19
  10  -7  -3  736.53   54.09
 -10   7   3  743.43   58.19
 -10   7   3  709.53   53.89
   9  -7  -3   59.69   16.60
   9  -7  -3   50.09   14.50
  -9   7   3   51.39   16.70
  -9   7   3   67.09   17.80
   8  -7  -3  144.79   24.40
   8  -7  -3  187.08   22.70
  -8   7   3  182.18   28.90
  -8   7   3  179.38   28.80
   7  -7  -3  931.11   50.09
   7  -7  -3  845.92   51.49
  -7   7   3  943.81   53.59
  -7   7   3  919.41   56.19
   6  -7  -3  242.18   21.60
   6  -7  -3  203.38   23.10
  -6   7   3  218.98   22.20
   5  -7  -3   11.70    5.30
   5  -7  -3    0.10    4.50
  -5   7   3    9.60    5.00
   4  -7  -3 1050.39   57.89
   4  -7  -3 1017.90   39.30
  -4   7   3 1120.09   44.60
   3  -7  -3   26.10    5.20
  -3   7   3   31.00    6.10
  -2   7   3 3575.84   90.79
  -1   7   3 4478.55  109.09
   0   7   3  923.41   31.80
   0   7   3  911.01   35.10
  -1  -7  -3 2223.08   95.79
   1   7   3 2287.37   68.69
   1   7   3 2307.67   73.19
  -2  -7  -3  199.98   30.70
   2   7   3  241.98   21.20
  -3  -7  -3  590.34   47.90
   3   7   3  513.85   34.80
   4   7   3  312.67   29.20
   5   7   3   64.29   18.40
   6   7   3  634.84   48.80
   7   7   3  373.26   39.50
  15  -8  -3    2.00   11.00
  13  -8  -3  891.21   65.69
  12  -8  -3   71.39   20.80
  11  -8  -3 1018.60   65.79
  10  -8  -3    2.00    7.70
  10  -8  -3   25.40   11.80
 -10   8   3   23.70   11.70
   9  -8  -3   10.00    8.50
   9  -8  -3  -11.20    6.80
  -9   8   3  -15.00    7.50
  -9   8   3   17.20   10.60
   8  -8  -3  124.09   24.10
   8  -8  -3  151.58   24.00
  -8   8   3  144.59   24.80
  -8   8   3  129.69   26.80
   7  -8  -3 2461.55   87.79
   7  -8  -3 2262.97   97.09
  -7   8   3 2310.47   92.89
   6  -8  -3  464.05   38.00
   6  -8  -3  390.46   34.00
  -6   8   3  423.26   31.10
   5  -8  -3  153.38   26.00
   5  -8  -3  168.48   14.50
  -5   8   3  154.88   15.90
   4  -8  -3  430.16   21.30
   4  -8  -3  454.65   38.60
  -4   8   3  509.35   26.20
  -3   8   3 2407.76   66.79
  -2   8   3  180.08    8.00
  -1   8   3  166.88    7.60
  -1   8   3  163.98    7.10
   0   8   3  108.29    9.50
   0   8   3  126.69    8.50
  -1  -8  -3 3889.01  142.79
   1   8   3 3676.43  105.29
   1   8   3 3950.60  102.29
   2   8   3 1232.58   50.99
   3   8   3  515.85   35.10
   4   8   3 1278.67   61.69
   5   8   3   49.99   15.40
   7   8   3  116.19   28.90
  15  -9  -3   46.10   22.80
  14  -9  -3  309.47   46.10
  13  -9  -3  172.88   32.50
  12  -9  -3   78.09   22.60
  11  -9  -3  681.73   53.39
  11  -9  -3  632.04   51.49
  10  -9  -3  223.78   28.10
  10  -9  -3  203.58   42.90
   9  -9  -3  946.31   60.69
   9  -9  -3  807.82   51.29
  -9   9   3  887.91   65.69
   8  -9  -3 3960.80  130.29
   8  -9  -3 4003.60  146.59
  -8   9   3 4061.79  141.09
   7  -9  -3  229.48   28.80
   7  -9  -3  238.08   22.00
  -7   9   3  249.38   36.70
   6  -9  -3  203.28   17.80
   6  -9  -3  230.08   28.60
  -6   9   3  218.08   21.10
   5  -9  -3   45.70    8.20
   5  -9  -3   28.20   11.10
  -5   9   3   52.19   10.10
   4  -9  -3 2550.04   67.19
   4  -9  -3 2485.75  109.99
   1   9   3  224.18   14.10
   1   9   3  245.88   13.70
   2   9   3    4.90    4.50
   2   9   3   -8.10    4.80
   3   9   3   -1.40   11.50
   4   9   3  717.33   43.30
   5   9   3   61.19   17.00
  15 -10  -3   61.19   22.70
  14 -10  -3  758.82   63.29
  13 -10  -3 1320.27   84.39
  12 -10  -3   -1.40    6.50
  11 -10  -3  469.35   45.40
  11 -10  -3  474.45   44.10
  10 -10  -3  265.37   43.40
  10 -10  -3  204.68   34.30
   9 -10  -3  152.98   29.80
   9 -10  -3  238.28   25.00
   8 -10  -3 1253.47   58.19
   8 -10  -3 1207.58   72.79
   7 -10  -3  524.55   46.70
   7 -10  -3  595.54   33.80
   6 -10  -3 2255.97  106.29
   6 -10  -3 2453.75   74.79
   5 -10  -3 2637.74   72.99
   5 -10  -3 2758.02  119.79
   4 -10  -3   31.10   14.90
   2  10   3  120.39   10.40
   2  10   3  144.19   10.70
   3  10   3   25.80    8.90
   3  10   3   25.90    7.70
   4  10   3   10.80   11.10
  15 -11  -3  674.53   61.99
  14 -11  -3   28.00   18.00
  13 -11  -3  387.06   44.30
  12 -11  -3  118.29   29.80
  11 -11  -3 2371.46  115.39
  11 -11  -3 2389.26  104.19
  10 -11  -3  722.63   48.70
  10 -11  -3  723.63   57.99
   9 -11  -3   10.10    6.40
   9 -11  -3   -7.60    4.50
   8 -11  -3  484.65   31.70
   8 -11  -3  509.95   47.70
   7 -11  -3  284.47   20.90
   7 -11  -3  337.87   37.80
   6 -11  -3   74.29    8.50
   6 -11  -3   88.69   23.30
   5 -11  -3  862.71   64.69
   4 -11  -3   -2.50    9.60
   3  11   3   -2.30    3.70
   4  11   3   -1.30   11.20
  14 -12  -3  351.56   43.40
  13 -12  -3  231.58   40.00
  12 -12  -3  943.11   70.79
  11 -12  -3   43.30   13.90
  11 -12  -3   18.90   13.50
  10 -12  -3  127.19   21.80
  10 -12  -3  126.59   28.40
   9 -12  -3   -0.40   10.40
   9 -12  -3    7.80    7.70
   8 -12  -3 1296.67   53.49
   8 -12  -3 1363.06   83.69
   7 -12  -3  121.39   11.70
   7 -12  -3  110.19   25.20
   6 -12  -3  516.05   50.29
   5 -12  -3 1372.16   87.79
   4 -12  -3   58.29   21.90
  14 -13  -3   12.30   11.80
  13 -13  -3   13.70   13.00
  12 -13  -3  537.35   56.59
  11 -13  -3    2.80   11.00
  11 -13  -3   17.10   13.30
  10 -13  -3   56.19   13.10
  10 -13  -3   62.79   23.00
   9 -13  -3  707.93   38.10
   9 -13  -3  722.73   61.39
   8 -13  -3   35.40   16.50
   8 -13  -3   34.90    8.10
   7 -13  -3  671.93   59.89
   6 -13  -3   59.49   19.20
   5 -13  -3  879.41   71.59
   4 -13  -3  163.28   35.30
  13 -14  -3   72.99   26.80
  12 -14  -3  927.41   74.39
  11 -14  -3    3.70   12.20
  11 -14  -3    3.90   14.90
  10 -14  -3   20.80   13.70
  10 -14  -3   14.10    8.60
   9 -14  -3   53.89    9.70
   9 -14  -3   44.60   19.30
   8 -14  -3  124.79   29.30
   7 -14  -3  448.56   51.19
   6 -14  -3 1299.37   90.59
   5 -14  -3  282.67   48.70
   4 -14  -3  921.81   83.39
  11 -15  -3  768.22   71.39
  10 -15  -3  569.24   59.79
   9 -15  -3  852.61   73.79
   8 -15  -3  119.29   30.40
   7 -15  -3    2.70   15.00
   6 -15  -3   41.90   22.20
   5 -15  -3   -2.70   14.50
   4 -15  -3  707.03   69.89
   4 -15   4    4.50   17.50
   5 -15   4   39.80   22.80
   6 -15   4   16.00   16.90
   7 -15   4    9.20   18.60
   8 -15   4  125.49   30.30
   9 -15   4  293.07   48.20
  10 -15   4    8.20    6.00
  10 -15   4   21.30   16.40
  11 -15   4   -6.00   14.60
  11 -15   4    6.40    7.90
   4 -14   4  131.69   32.80
   5 -14   4   99.89   27.00
   6 -14   4   25.30   14.10
   7 -14   4  369.16   44.50
   8 -14   4   37.70   16.90
   9 -14   4   21.50   17.60
   9 -14   4   30.30    8.20
   9 -14   4   18.00    6.30
  10 -14   4   -2.70   10.50
  11 -14   4  156.08   25.20
  11 -14   4  217.18   50.39
  12 -14   4   47.70   21.40
  12 -14   4   33.80   15.00
   4 -13   4   80.49   25.00
   5 -13   4  467.95   50.59
   6 -13   4  982.10   72.89
   7 -13   4  131.69   30.40
   8 -13   4   -4.80   13.60
   8 -13   4   28.70    6.40
   8 -13   4   26.30    6.50
   9 -13   4    3.40    8.60
   9 -13   4   -2.20   11.00
  10 -13   4   -8.50    9.60
  10 -13   4  -15.10   10.50
  11 -13   4  129.69   30.60
  11 -13   4  129.29   26.40
  12 -13   4  -20.20   10.70
  13 -13   4   45.10   17.10
   4 -12   4   22.60   14.20
   5 -12   4   59.39   20.90
   6 -12   4  388.36   43.30
   7 -12   4   25.80    7.30
   7 -12   4   15.10    4.60
   7 -12   4   -9.00    8.70
   8 -12   4   26.90   12.50
   8 -12   4   30.00    8.70
   9 -12   4   49.30   13.70
   9 -12   4   54.49   19.30
  10 -12   4   54.79   16.30
  10 -12   4   33.20   13.50
  11 -12   4  987.50   69.49
  11 -12   4  909.01   62.59
  12 -12   4  280.27   43.50
  13 -12   4   57.99   17.40
  14 -12   4   42.90   19.10
   5 -11   4   11.00   13.00
   6 -11   4  336.07   20.60
   6 -11   4  351.16   19.50
   6 -11   4  333.47   54.19
   7 -11   4    4.10    5.60
   7 -11   4  -19.00    7.70
   8 -11   4  -10.30    6.40
   8 -11   4    9.00    9.50
   9 -11   4    6.40    9.60
   9 -11   4   22.50   14.00
  10 -11   4  348.07   39.00
  10 -11   4  271.17   32.90
  11 -11   4  131.39   24.70
  11 -11   4   57.99   20.60
  12 -11   4  384.96   42.40
  13 -11   4  599.14   54.79
  14 -11   4  536.05   55.29
  15 -11   4   -0.20    8.50
   4  10  -4   18.10    9.10
   3  10  -4   11.10    6.30
   2  10  -4   46.20    7.50
   4 -10   4  363.96   38.40
   5 -10   4  778.82   30.30
   5 -10   4  818.82   33.30
   5 -10   4  798.82   56.89
   6 -10   4   95.09   23.10
   6 -10   4   83.99   12.50
   6 -10   4   81.29   13.80
   7 -10   4  164.38   29.60
   7 -10   4  137.89   21.10
   8 -10   4  294.07   33.60
   8 -10   4  242.18   26.10
   9 -10   4  497.55   80.19
   9 -10   4  632.74   46.50
  10 -10   4  258.37   32.30
  11 -10   4   48.90   19.80
  11 -10   4   89.49   23.80
  12 -10   4   32.80   15.70
  13 -10   4   28.70   15.00
  14 -10   4  162.98   36.30
  15 -10   4   37.10   17.50
   5   9  -4   32.80   14.40
   4   9  -4  -11.80    7.20
   2   9  -4    5.70    4.80
   1   9  -4  544.95   23.00
   4  -9   4   16.60    4.00
   4  -9   4   14.10    4.90
   4  -9   4   -3.30    7.10
   5  -9   4  976.20   43.10
   5  -9   4 1035.20   39.60
   5  -9   4  971.40   60.39
   6  -9   4  456.85   30.90
   6  -9   4  425.96   39.00
   7  -9   4  838.22   55.09
   7  -9   4  806.92   47.10
   8  -9   4  249.58   30.00
   8  -9   4  244.88   27.90
  -9   9  -4  267.67   32.40
   9  -9   4  216.18   32.30
   9  -9   4  229.08   28.90
  10  -9   4   26.00   12.00
  10  -9   4   11.60   10.00
  11  -9   4   49.20   15.90
  12  -9   4   -2.30    6.30
  13  -9   4   32.80   15.80
  14  -9   4   77.59   24.00
  15  -9   4    1.30   12.30
   7   8  -4  171.48   34.50
   5   8  -4   49.20   15.10
   4   8  -4   12.60    9.20
   3   8  -4   -0.10    4.90
   2   8  -4  202.88   17.00
  -2  -8   4  211.98   33.30
   1   8  -4  260.67   16.60
  -1  -8   4  225.18   27.60
   2  -8   4  500.95   18.00
   3  -8   4   69.39    6.90
   4  -8   4  291.47   17.50
   4  -8   4  333.07   31.90
   5  -8   4   56.99   12.10
   5  -8   4   38.10   13.40
   6  -8   4   22.40    9.40
   6  -8   4   24.00   10.20
   7  -8   4  457.35   36.60
   7  -8   4  469.85   38.80
  -8   8  -4  637.04   60.79
   8  -8   4  678.93   48.30
   8  -8   4  713.33   48.40
  -9   8  -4   12.00    8.70
   9  -8   4    0.60    5.50
   9  -8   4   19.20   11.50
  10  -8   4  220.28   35.30
  10  -8   4  210.18   33.70
  11  -8   4    6.20    9.80
  12  -8   4   54.39   18.50
  13  -8   4  432.36   45.10
  14  -8   4   10.70   10.50
  15  -8   4   19.30   14.40
   7   7  -4  281.97   35.70
   6   7  -4   81.49   21.80
   5   7  -4   -5.60    9.70
   4   7  -4    4.20    7.00
   3   7  -4  118.59   15.10
  -3  -7   4  112.09   23.40
   2   7  -4  797.62   36.90
  -2  -7   4  731.33   39.10
   1   7  -4  452.55   24.20
  -1  -7   4  523.35   40.20
  -1  -7   4  475.45   26.50
   0   7  -4  345.57   17.70
   0  -7   4  294.97   18.10
   1  -7   4   64.99    7.10
   2  -7   4  699.33   25.90
   3  -7   4  349.17   18.40
   3  -7   4  313.47   29.70
   4  -7   4   44.20   12.60
   5  -7   4  288.77   27.30
  -6   7  -4   53.99   14.20
   6  -7   4   80.79   17.50
   6  -7   4   68.39   16.50
  -7   7  -4  338.47   32.70
   7  -7   4  378.56   32.70
   7  -7   4  347.27   32.40
  -8   7  -4  644.54   47.20
   8  -7   4  660.63   46.00
   8  -7   4  690.93   49.20
  -9   7  -4    7.50    7.00
   9  -7   4   17.70   10.50
   9  -7   4    0.40    8.40
 -10   7  -4   84.29   19.80
  10  -7   4   77.29   19.80
  10  -7   4   61.59   17.10
  12  -7   4   -2.20   10.70
  13  -7   4  961.70   68.69
  14  -7   4  249.88   40.80
  15  -7   4  139.49   31.50
   7   6  -4 1034.50   64.69
   6   6  -4  376.96   34.90
   5   6  -4  300.87   29.70
   4   6  -4  101.69   18.40
  -4  -6   4   69.59   19.20
  -4  -6   4   74.59   17.20
   3   6  -4  464.15   30.40
  -3  -6   4  495.05   40.50
  -3  -6   4  468.05   32.70
   2   6  -4   14.90    6.80
  -2  -6   4   12.90    6.30
  -2  -6   4   10.60    9.40
   1   6  -4   69.69   10.40
  -1  -6   4   73.69   16.60
  -1  -6   4   76.89   12.10
   0   6  -4   98.69    9.60
   0  -6   4  109.79   10.60
   1  -6   4 1307.17   41.90
   2  -6   4   -0.30    2.70
   3  -6   4   34.60   11.00
   3  -6   4   40.10    7.10
  -5   6  -4   62.09   14.40
   5  -6   4   39.50   11.30
  -6   6  -4  149.19   23.20
   6  -6   4  112.19   19.20
  -7   6  -4   64.39   15.20
   7  -6   4   47.20   13.90
   7  -6   4   47.30   13.80
  -8   6  -4  503.55   39.70
   8  -6   4  533.15   39.80
   8  -6   4  532.45   44.10
  -9   6  -4  199.68   31.60
   9  -6   4  215.48   35.00
   9  -6   4  217.58   25.20
 -10   6  -4  285.87   33.30
  10  -6   4  372.06   36.30
  10  -6   4  347.17   38.50
  11  -6   4   27.70   12.80
  12  -6   4  365.36   39.00
  13  -6   4   82.59   23.70
  14  -6   4   67.79   20.80
  15  -6   4  176.88   34.80
   7   5  -4   20.10   12.00
   6   5  -4   13.10   11.20
   5   5  -4  815.42   48.60
  -5  -5   4  808.52   52.29
  -5  -5   4  746.93   54.29
   4   5  -4  877.41   48.40
  -4  -5   4 1031.80   60.09
  -4  -5   4 1010.60   54.09
   3   5  -4   47.90   12.40
  -3  -5   4   59.79   15.90
  -3  -5   4   44.80   12.00
   2   5  -4  258.77   19.50
  -2  -5   4  231.38   24.10
  -2  -5   4  262.57   21.10
   1   5  -4   67.09   10.10
  -1  -5   4   52.29    9.70
  -1  -5   4   28.70    9.50
   0   5  -4   41.30    7.00
   0  -5   4   34.90    6.80
   1  -5   4 2373.86   67.09
   2  -5   4  357.86   18.80
   3  -5   4    3.80    3.80
   4  -5   4  230.88   21.00
  -5   5  -4   28.00    8.90
   5  -5   4   26.40    8.60
  -6   5  -4 1354.76   62.19
   6  -5   4 1287.67   59.09
  -7   5  -4  738.73   45.50
   7  -5   4  654.83   47.10
   7  -5   4  698.03   43.00
  -8   5  -4   74.09   17.80
   8  -5   4   53.19   16.40
   8  -5   4   52.69   14.50
  -9   5  -4    9.10   10.90
   9  -5   4    6.90   12.10
   9  -5   4   25.30   10.30
 -10   5  -4  727.23   52.99
  10  -5   4  721.93   51.89
  10  -5   4  763.32   58.79
  11  -5   4  292.67   33.50
  12  -5   4   16.00   11.20
  13  -5   4    3.70   11.70
  14  -5   4   33.90   17.40
  15  -5   4  -12.90    7.70
   8   4  -4   43.50   24.20
   7   4  -4    4.00    8.90
   6   4  -4  301.77   31.00
  -6  -4   4  343.77   35.40
  -6  -4   4  396.46   37.00
  -5  -4   4   12.30    8.10
  -5  -4   4   11.90    9.60
   4   4  -4  248.08   23.50
  -4  -4   4  280.37   26.80
  -4  -4   4  248.18   26.30
   3   4  -4   43.40   10.80
  -3  -4   4   60.49   12.70
  -3  -4   4   40.80   11.90
   2   4  -4  232.18   18.20
  -2  -4   4  254.07   23.10
  -2  -4   4  230.48   19.30
   1   4  -4  268.17   17.70
  -1  -4   4  236.48   17.20
  -1  -4   4  269.67   22.00
   0   4  -4   32.20    6.30
   0  -4   4   27.90    6.10
  -1   4  -4 2396.86   68.29
   1  -4   4 2353.36   67.59
   2  -4   4 1449.15   47.50
   2  -4   4 1432.36   54.99
  -3   4  -4  364.56   24.70
   3  -4   4  391.66   24.50
  -4   4  -4   34.90    9.10
   4  -4   4   30.80    8.20
  -5   4  -4 2321.07   82.99
   5  -4   4 2403.36   82.09
  -6   4  -4    6.10    4.20
   6  -4   4    0.40    4.30
  -7   4  -4  354.26   29.40
   7  -4   4  356.96   29.70
   7  -4   4  321.57   32.10
  -8   4  -4  347.07   31.20
   8  -4   4  260.87   30.50
   8  -4   4  253.27   26.20
   9  -4   4  939.31   64.69
   9  -4   4  913.71   56.19
 -10   4  -4   47.20   17.10
  10  -4   4   77.39   19.10
  10  -4   4   59.79   18.00
  11  -4   4    9.20    9.10
  12  -4   4   23.40   10.80
  13  -4   4    8.20   16.90
  14  -4   4  -11.10   11.00
  15  -4   4   61.29   22.00
  10   3  -4    2.40   13.60
   9   3  -4   14.20   12.60
   8   3  -4    6.10    9.20
   8   3  -4    0.20    8.70
   7   3  -4   89.79   22.30
   7   3  -4   99.99   22.10
  -7  -3   4  105.29   23.60
  -7  -3   4   76.79   21.20
   6   3  -4  183.18   23.00
   6   3  -4  233.38   28.30
  -6  -3   4  196.48   30.50
  -6  -3   4  217.68   26.70
   5   3  -4   52.69   13.90
   5   3  -4   40.50   14.10
  -5  -3   4   65.49   15.80
  -5  -3   4   84.89   17.90
   4   3  -4  340.47   30.30
   4   3  -4  330.27   27.20
  -4  -3   4  372.86   32.00
  -4  -3   4  377.66   31.10
   3   3  -4   27.80    9.20
  -3  -3   4   48.60   11.70
  -3  -3   4   37.70    9.70
   2   3  -4    1.40    2.50
  -2  -3   4    2.30    3.20
  -2  -3   4   -3.00    2.00
   1   3  -4  354.26   20.70
  -1  -3   4  376.96   21.30
  -1  -3   4  342.67   22.40
   0   3  -4 1267.27   42.60
   0  -3   4 1205.38   41.80
  -1   3  -4  769.62   30.50
   1  -3   4  782.82   30.30
   2  -3   4  609.54   28.10
  -3   3  -4 1163.58   45.20
   3  -3   4 1221.08   45.20
  -4   3  -4 2244.18   75.19
   4  -3   4 2317.67   74.59
  -5   3  -4  321.37   30.50
   5  -3   4  380.76   26.10
  -6   3  -4   27.50    9.00
   6  -3   4   44.50   11.20
  -7   3  -4   57.99   14.10
   7  -3   4   59.29   14.00
   7  -3   4   60.19   15.20
  -8   3  -4   46.40   12.60
   8  -3   4   33.40   11.70
   8  -3   4   40.70   16.00
  -9   3  -4  461.55   39.60
   9  -3   4  425.66   42.80
   9  -3   4  479.05   39.70
 -10   3  -4  118.09   25.80
  10  -3   4  140.99   27.20
  11  -3   4  -11.50    8.00
  12  -3   4   59.19   18.30
  13  -3   4    7.80   11.90
  14  -3   4  317.77   47.90
  12   2  -4   13.50   15.00
  11   2  -4  422.26   49.30
  10   2  -4   22.60   16.20
   9   2  -4   27.80   13.30
   8   2  -4  236.18   30.10
   8   2  -4  284.97   33.90
  -8  -2   4  165.78   30.30
  -8  -2   4  269.27   40.80
   7   2  -4    7.30    8.00
   7   2  -4   -7.50    6.20
  -7  -2   4   16.60    8.30
  -7  -2   4    9.00    8.90
   6   2  -4  488.35   38.60
   6   2  -4  542.75   41.30
  -6  -2   4  483.85   39.30
  -6  -2   4  485.75   39.30
   5   2  -4  723.53   45.10
   5   2  -4  669.03   43.30
  -5  -2   4  799.12   46.70
  -5  -2   4  718.73   45.80
   4   2  -4   18.20    7.40
   4   2  -4    4.00    4.40
  -4  -2   4    3.50    5.60
  -4  -2   4    2.70    4.80
   3   2  -4  327.77   24.50
   3   2  -4  378.36   25.60
  -3  -2   4  310.57   24.10
  -3  -2   4  334.07   25.00
   2   2  -4 1324.87   50.69
   2   2  -4 1403.36   52.59
  -2  -2   4 1429.16   52.69
  -2  -2   4 1444.16   52.49
   1   2  -4  626.34   28.00
  -1  -2   4  587.84   26.90
  -1  -2   4  585.44   27.20
   0   2  -4 1385.16   45.80
   0  -2   4 1424.66   46.10
   1  -2   4   19.30    4.30
   1  -2   4   23.00    5.40
  -2   2  -4 1336.17   43.80
   2  -2   4 1388.56   43.70
  -3   2  -4  736.63   32.10
   3  -2   4  775.82   32.20
  -4   2  -4 1380.66   51.99
   4  -2   4 1301.87   50.79
   5  -2   4    8.10    4.80
  -6   2  -4  254.37   23.80
   6  -2   4  209.38   21.20
  -7   2  -4  257.07   26.10
   7  -2   4  240.58   28.70
   7  -2   4  245.38   25.30
   8  -2   4   19.70    8.90
   8  -2   4   24.30    9.60
  -9   2  -4  737.93   52.89
   9  -2   4  826.52   54.99
   9  -2   4  748.23   57.59
  10  -2   4  165.58   29.70
  11  -2   4   38.60   16.00
  12  -2   4   49.99   17.60
  13  -2   4   83.09   27.70
  14  -2   4   26.70   18.30
  12   1  -4   14.00   12.40
  11   1  -4  392.06   45.60
  10   1  -4   82.09   22.40
   9   1  -4   -0.70    5.90
  -9  -1   4   39.20   16.70
   8   1  -4    5.40    6.90
   8   1  -4   14.30    8.70
  -8  -1   4    7.00    7.90
  -8  -1   4   -2.50    8.20
   7   1  -4  647.34   47.90
   7   1  -4  538.05   42.20
  -7  -1   4  663.53   49.50
  -7  -1   4  640.34   45.70
   6   1  -4   56.89   14.90
   6   1  -4   45.30   13.20
  -6  -1   4   47.40   16.30
  -6  -1   4   70.29   15.90
   5   1  -4 1430.46   63.09
   5   1  -4 1362.36   63.69
  -5  -1   4 1206.18   58.29
  -5  -1   4 1318.27   64.09
   4   1  -4 2286.07   81.69
   4   1  -4 2246.88   83.39
  -4  -1   4 2363.36   82.49
  -4  -1   4 2441.06   86.09
   3   1  -4 2249.07   75.49
   3   1  -4 2374.66   78.79
  -3  -1   4 2270.67   78.59
  -3  -1   4 2408.86   76.59
   2   1  -4  733.33   31.70
   2   1  -4  788.42   34.70
  -2  -1   4  765.32   31.70
  -2  -1   4  766.62   34.50
   1   1  -4   18.80    5.00
   1   1  -4   23.70    4.70
  -1  -1   4   24.60    5.80
  -1  -1   4   24.50    4.80
   0   1  -4  180.78   12.80
   0  -1   4  172.68   12.60
  -1   1  -4  164.98    8.80
   1  -1   4  174.38    8.70
   1  -1   4  165.98   12.60
  -2   1  -4   20.80    4.50
   2  -1   4   24.40    5.00
  -3   1  -4  603.34   28.50
   3  -1   4  571.64   27.80
  -4   1  -4  367.86   24.40
   4  -1   4  360.06   24.30
  -5   1  -4  253.67   22.20
   5  -1   4  254.17   22.60
  -6   1  -4   71.79   15.50
   6  -1   4   56.19   13.90
  -7   1  -4   89.99   19.10
   7  -1   4   61.29   17.40
   7  -1   4   59.29   15.30
  -8   1  -4  436.46   37.80
   8  -1   4  457.75   41.80
   8  -1   4  425.46   38.70
  -9   1  -4  228.58   29.00
   9  -1   4  204.28   34.20
   9  -1   4  266.67   31.70
  10  -1   4  615.84   50.89
  11  -1   4  308.97   37.50
  12  -1   4  913.11   71.19
  13   0  -4   42.10   19.20
  12   0  -4  324.47   41.10
  11   0  -4  124.59   27.80
  10   0  -4  272.57   34.30
 -10   0   4  317.77   48.40
   9   0  -4  198.98   33.40
   9   0  -4  246.78   36.80
  -9   0   4  204.28   36.50
  -9   0   4  274.17   31.60
   8   0  -4  666.43   48.40
   8   0  -4  596.64   50.79
  -8   0   4  727.43   54.89
  -8   0   4  607.04   49.10
   7   0  -4  330.27   30.90
   7   0  -4  350.46   33.10
  -7   0   4  293.27   29.40
  -7   0   4  347.37   34.20
   6   0  -4  109.29   19.80
   6   0  -4  117.09   21.80
  -6   0   4  109.29   21.30
  -6   0   4  121.59   20.50
   5   0  -4   54.39   12.70
   5   0  -4   48.40   11.60
  -5   0   4   33.00   10.50
  -5   0   4   27.10    9.00
   4   0  -4   35.80    8.90
  -4   0   4   37.00    9.10
  -4   0   4   24.50    8.20
   3   0  -4 1259.37   50.69
   3   0  -4 1178.08   45.40
  -3   0   4 1394.46   52.79
  -3   0   4 1243.98   45.90
   2   0  -4 1385.36   49.99
   2   0  -4 1392.06   44.00
  -2   0   4 1438.46   44.00
  -2   0   4 1459.85   50.99
   1   0  -4  168.38    8.10
   1   0  -4  180.88   13.30
  -1   0   4  170.88   13.00
  -1   0   4  157.68    7.60
   0   0  -4  760.02   29.90
   0   0   4  742.83   29.80
  -1   0  -4  185.88   10.20
   1   0   4  159.78    9.80
   1   0   4  159.18   12.70
  -2   0  -4 1371.56   45.70
   2   0   4 1344.67   46.10
  -3   0  -4 1204.28   47.70
   3   0   4 1292.57   49.60
  -4   0  -4   35.40    9.40
   4   0   4   30.80    8.70
  -5   0  -4   61.09   12.90
   5   0   4   27.50   10.70
  -6   0  -4  134.89   21.50
   6   0   4  106.79   20.20
  -7   0  -4  333.57   31.80
   7   0   4  353.06   35.30
   7   0   4  334.97   32.20
  -8   0  -4  689.43   49.40
   8   0   4  631.64   48.40
   8   0   4  613.84   50.59
   9   0   4  266.87   33.50
   9   0   4  248.58   39.70
  10   0   4  298.97   35.90
  11   0   4   90.79   25.60
  12   0   4  253.17   39.90
  13   0   4   19.50   14.40
  13  -1  -4   -0.80   12.10
  12  -1  -4  900.51   67.89
  11  -1  -4  307.37   37.80
  10  -1  -4  485.35   48.80
 -10   1   4  564.24   53.99
   9  -1  -4  274.67   33.10
   9  -1  -4  292.27   33.00
  -9   1   4  225.48   37.70
  -9   1   4  248.18   30.30
   8  -1  -4  519.35   40.50
   8  -1  -4  482.95   41.50
  -8   1   4  556.74   42.10
  -8   1   4  417.56   40.70
   7  -1  -4  101.89   20.20
   7  -1  -4   66.69   15.20
  -7   1   4   83.99   20.00
  -7   1   4   70.29   16.30
   6  -1  -4   59.89   13.50
   6  -1  -4   72.99   16.30
  -6   1   4   64.49   14.20
  -6   1   4   62.29   15.90
   5  -1  -4  259.97   24.60
   5  -1  -4  293.17   22.70
  -5   1   4  255.47   25.90
  -5   1   4  213.38   32.60
   4  -1  -4  354.96   26.10
   4  -1  -4  357.26   22.80
  -4   1   4  316.97   21.60
  -4   1   4  387.16   27.20
   3  -1  -4  590.44   30.80
   3  -1  -4  558.44   25.80
  -3   1   4  557.24   30.20
  -3   1   4  537.85   25.40
   2  -1  -4   23.60    4.60
   2  -1  -4   27.00    6.60
  -2   1   4   26.90    5.20
  -2   1   4   25.20    6.50
   1  -1  -4  157.88   12.30
   1  -1  -4  156.68    8.80
  -1   1   4  172.68   12.90
   0  -1  -4  144.09   11.50
   0   1   4  171.48   12.50
  -1  -1  -4   20.40    5.00
   1   1   4   19.90    5.10
  -2  -1  -4  719.43   33.50
   2   1   4  808.02   35.20
  -3  -1  -4 2295.87   77.89
   3   1   4 2286.17   78.39
  -4  -1  -4 2341.37   85.79
   4   1   4 2473.45   87.79
  -5  -1  -4 1339.27   62.89
   5   1   4 1322.97   63.59
  -6  -1  -4   40.50   12.50
   6   1   4   72.89   17.70
   6   1   4   54.49   15.50
  -7  -1  -4  573.24   43.70
   7   1   4  583.44   47.30
   7   1   4  596.74   45.70
   8   1   4  -11.00    4.80
   8   1   4   -2.70    6.30
   9   1   4   19.30   10.40
  10   1   4   58.19   21.50
  11   1   4  366.16   53.09
  14  -2  -4   22.70   15.90
  13  -2  -4  152.98   34.20
  12  -2  -4   58.69   21.30
  11  -2  -4    8.00    9.90
 -11   2   4  -21.20    8.70
  10  -2  -4  194.18   32.80
 -10   2   4  235.68   42.80
 -10   2   4  193.28   36.10
   9  -2  -4  710.43   54.49
   9  -2  -4  691.43   49.50
  -9   2   4  681.33   55.79
  -9   2   4  798.12   53.29
   8  -2  -4   31.90   12.40
   8  -2  -4    9.40    7.10
  -8   2   4   51.89   17.10
  -8   2   4   38.00   11.70
   7  -2  -4  298.57   26.70
   7  -2  -4  282.47   29.00
  -7   2   4  261.07   29.60
  -7   2   4  247.48   24.60
   6  -2  -4  207.68   23.70
  -6   2   4  196.58   20.10
  -6   2   4  217.28   24.30
   5  -2  -4    5.80    4.10
   5  -2  -4    2.50    4.40
  -5   2   4    7.60    3.60
  -5   2   4    6.30    4.30
   4  -2  -4 1422.06   57.89
   4  -2  -4 1481.45   53.09
  -4   2   4 1369.56   57.59
  -4   2   4 1450.85   53.19
   3  -2  -4  764.12   35.60
   3  -2  -4  761.32   32.00
  -3   2   4  773.72   32.60
  -3   2   4  798.12   36.40
   2  -2  -4 1381.46   44.70
   2  -2  -4 1397.96   48.00
  -2   2   4 1352.16   45.60
  -2   2   4 1370.16   48.10
   1  -2  -4   23.40    5.50
  -1   2   4   11.90    4.20
   0  -2  -4 1320.37   44.70
   0   2   4 1373.46   45.30
  -1  -2  -4  574.24   28.40
  -2  -2  -4 1391.06   55.29
   2   2   4 1499.05   57.19
  -3  -2  -4  361.96   27.30
   3   2   4  355.86   27.20
  -4  -2  -4    0.30    4.00
   4   2   4    5.50    4.40
  -5  -2  -4  712.53   46.20
   5   2   4  770.12   48.80
  -6  -2  -4  521.25   41.60
   6   2   4  529.35   42.70
   6   2   4  555.74   43.00
  -7  -2  -4  -21.00    8.30
   7   2   4    1.10    9.50
   7   2   4   15.40   10.40
   8   2   4  204.08   34.20
   8   2   4  262.47   38.70
   9   2   4   38.20   15.80
  10   2   4   19.00   13.40
  11   2   4  459.35   52.19
  12   2   4   40.70   17.50
  13  -3  -4   17.60    9.50
  12  -3  -4   33.10   15.40
  11  -3  -4    6.70    9.30
 -11   3   4   27.60   14.00
  10  -3  -4  119.39   24.60
 -10   3   4  108.99   26.20
 -10   3   4   96.59   21.30
   9  -3  -4  525.35   44.90
   9  -3  -4  505.85   40.70
  -9   3   4  489.55   43.00
  -9   3   4  458.65   44.00
   8  -3  -4   70.69   17.00
   8  -3  -4   51.09   13.60
  -8   3   4   52.99   13.60
  -8   3   4   43.50   14.90
   7  -3  -4   60.29   15.80
   7  -3  -4   39.60   11.60
  -7   3   4   68.89   15.40
  -7   3   4   40.90   13.20
   6  -3  -4   41.00   12.40
  -6   3   4   56.29   14.50
  -6   3   4   26.40    9.10
   5  -3  -4  286.17   24.40
   5  -3  -4  352.96   24.20
  -5   3   4  310.27   23.80
  -5   3   4  334.87   27.00
   4  -3  -4 2364.16   74.89
   4  -3  -4 2318.27   78.09
  -4   3   4 2188.28   78.09
  -4   3   4 2269.87   75.39
   3  -3  -4 1227.88   46.40
   3  -3  -4 1223.98   45.80
  -3   3   4 1166.18   46.50
  -3   3   4 1130.19   45.90
   2  -3  -4  559.24   26.20
   2  -3  -4  565.04   28.50
  -2   3   4  598.14   27.40
   1  -3  -4  758.42   29.90
  -1   3   4  726.03   29.90
   0   3   4 1171.48   41.10
  -1  -3  -4  322.97   23.10
  -2  -3  -4   -2.20    3.70
  -3  -3  -4   27.70    9.60
  -4  -3  -4  350.86   30.70
   4   3   4  365.96   32.50
  -5  -3  -4   50.29   13.60
   5   3   4   81.29   17.90
   5   3   4   38.50   13.50
  -6  -3  -4  210.68   32.70
   6   3   4  222.48   27.90
   6   3   4  195.78   24.90
  -7  -3  -4   53.49   20.20
   7   3   4   80.99   21.80
   7   3   4   61.39   30.70
   8   3   4   -7.80    9.10
   8   3   4    0.50   10.00
   9   3   4   -2.40   11.10
  10   3   4   17.60   13.70
  11   3   4  601.44   61.39
  15  -4  -4   29.30   19.90
  14  -4  -4   -5.60   15.10
  13  -4  -4   11.40   10.20
  12  -4  -4   30.50   14.40
  11  -4  -4   -8.60    7.50
 -11   4   4   28.90   12.70
  10  -4  -4   80.89   18.60
  10  -4  -4   88.49   20.70
 -10   4   4  100.69   22.70
 -10   4   4   37.60   17.80
   9  -4  -4  994.00   62.59
   9  -4  -4  910.31   56.09
  -9   4   4  977.90   58.59
  -9   4   4  938.81   63.59
   8  -4  -4  254.17   26.70
   8  -4  -4  302.57   30.70
  -8   4   4  247.98   29.50
  -8   4   4  256.97   26.60
   7  -4  -4  325.07   30.40
   7  -4  -4  313.87   27.50
  -7   4   4  268.57   29.20
  -7   4   4  383.06   30.90
   6  -4  -4    5.50    3.90
   6  -4  -4    1.90    6.30
  -6   4   4    3.80    5.10
  -6   4   4    5.80    5.20
   5  -4  -4 2323.27   79.79
   5  -4  -4 2227.68   81.09
  -5   4   4 2279.57   83.49
  -5   4   4 2225.78   80.79
   4  -4  -4   31.30    8.50
   4  -4  -4   43.80    9.30
  -4   4   4   40.70    9.60
  -4   4   4   27.30    8.30
   3  -4  -4  346.97   23.90
   3  -4  -4  307.87   20.00
  -3   4   4  358.76   22.20
   2  -4  -4 1483.85   48.00
  -2   4   4 1341.87   47.50
   1  -4  -4 2458.65   68.69
  -1   4   4 2272.77   68.19
   0   4   4   37.10    7.20
  -1  -4  -4  264.37   23.00
  -2  -4  -4  218.88   22.40
  -3  -4  -4   46.70   12.50
  -4  -4  -4  305.97   30.40
   4   4   4  287.07   27.80
  -5  -4  -4  -13.20    8.40
   5   4   4   24.40    9.40
  -6  -4  -4  296.07   33.20
   6   4   4  338.57   33.50
   7   4   4   21.10   12.90
  15  -5  -4   -6.30    9.20
  14  -5  -4   24.50   17.60
  13  -5  -4   16.80   11.30
  12  -5  -4   11.60   12.60
  11  -5  -4  296.47   59.89
 -11   5   4  368.26   43.90
  10  -5  -4  733.33   51.89
  10  -5  -4  694.53   54.09
 -10   5   4  731.73   58.59
 -10   5   4  638.54   49.90
   9  -5  -4    8.70    8.60
  -9   5   4   11.10    5.30
  -9   5   4    2.40    9.10
   8  -5  -4   80.99   18.50
   8  -5  -4   51.59   13.60
  -8   5   4   57.59   16.10
  -8   5   4   39.40   12.90
   7  -5  -4  664.53   41.60
   7  -5  -4  723.43   45.60
  -7   5   4  676.23   46.20
  -7   5   4  664.93   43.20
   6  -5  -4 1337.77   60.89
   6  -5  -4 1367.26   60.49
  -6   5   4 1261.97   62.59
  -6   5   4 1351.46   62.59
   5  -5  -4   22.50    8.70
  -5   5   4   26.00    8.30
  -5   5   4   28.20    9.90
   4  -5  -4  230.18   18.50
   4  -5  -4  250.27   22.20
  -4   5   4  264.97   20.80
   3  -5  -4    4.10    2.90
   3  -5  -4    2.70    3.10
  -3   5   4   13.50    4.40
   2  -5  -4  345.07   18.70
  -2   5   4  338.77   19.40
  -1   5   4 2312.07   67.29
   0   5   4   42.00    7.50
  -1  -5  -4   51.39   12.70
   1   5   4   48.80    9.20
  -2  -5  -4  259.67   26.50
  -3  -5  -4   70.39   16.80
  -4  -5  -4  998.10   64.19
   4   5   4 1015.00   55.89
  -5  -5  -4  594.14   48.60
   5   5   4  724.93   48.00
   6   5   4   18.00   11.90
   7   5   4   25.70   15.60
  15  -6  -4  294.67   45.90
  14  -6  -4   45.30   21.40
  13  -6  -4  108.39   28.90
  12  -6  -4  345.07   39.30
 -12   6   4  333.67   42.80
 -11   6   4   15.30   13.90
  10  -6  -4  344.87   34.20
  10  -6  -4  313.37   36.70
 -10   6   4  352.76   39.70
 -10   6   4  319.07   34.70
   9  -6  -4  229.08   27.10
   9  -6  -4  211.58   32.50
  -9   6   4  196.18   31.50
   8  -6  -4  566.54   42.00
   8  -6  -4  564.54   40.80
  -8   6   4  537.05   41.60
  -8   6   4  591.84   45.30
   7  -6  -4   85.29   17.40
   7  -6  -4   46.50   12.60
  -7   6   4   72.09   16.00
  -7   6   4   65.49   16.00
   6  -6  -4  127.79   19.50
   6  -6  -4   82.49   17.00
  -6   6   4  125.49   25.40
  -6   6   4  122.79   21.70
   5  -6  -4   45.90   10.60
   5  -6  -4   43.10   12.40
  -5   6   4   51.69   11.40
   4  -6  -4  254.57   18.50
   4  -6  -4  247.38   23.90
  -4   6   4  222.08   18.90
   3  -6  -4   30.50    9.80
   3  -6  -4   38.70    7.20
  -3   6   4   30.70    7.50
   2  -6  -4    4.20    2.70
  -2   6   4    3.80    2.80
  -1   6   4 1302.67   43.40
   0   6   4  118.69   10.80
  -1  -6  -4   68.59   16.20
   1   6   4   61.19   10.20
  -2  -6  -4   22.20    8.90
  -3  -6  -4  497.05   41.20
   3   6   4  432.06   33.10
  -4  -6  -4   87.99   20.70
   4   6   4  103.09   20.80
   5   6   4  338.37   33.10
   6   6   4  335.87   36.40
   7   6   4  968.90   65.69
  15  -7  -4  228.68   42.10
  14  -7  -4  290.87   43.80
  13  -7  -4  963.50   68.89
  12  -7  -4   33.20   16.00
  11  -7  -4   -2.60    8.10
 -11   7   4    6.80   11.60
  10  -7  -4   58.69   16.90
  10  -7  -4   61.79   17.70
 -10   7   4   52.99   17.80
 -10   7   4   44.00   14.20
   9  -7  -4    6.60    8.50
  -9   7   4   19.40   10.40
  -9   7   4   11.80    8.40
   8  -7  -4  645.04   44.10
   8  -7  -4  588.14   43.20
  -8   7   4  521.85   42.90
  -8   7   4  624.34   46.10
   7  -7  -4  385.56   30.30
   7  -7  -4  308.47   29.90
  -7   7   4  312.67   32.10
  -7   7   4  348.37   31.60
   6  -7  -4   62.69   15.00
   6  -7  -4   55.99   12.80
  -6   7   4   64.99   14.50
   5  -7  -4  286.47   21.40
   5  -7  -4  282.77   27.50
  -5   7   4  296.87   24.20
   4  -7  -4   41.90   12.20
   4  -7  -4   42.60    8.70
  -4   7   4   43.30    9.50
   3  -7  -4  321.77   18.20
  -3   7   4  322.97   19.80
  -2   7   4  685.33   28.20
  -1   7   4   60.19    8.70
   0   7   4  354.86   19.50
  -1  -7  -4  464.45   38.50
   1   7   4  424.96   24.10
  -2  -7  -4  835.02   55.19
   2   7   4  745.33   41.20
  -3  -7  -4  117.89   28.00
   3   7   4  113.19   20.00
   4   7   4    7.90    8.90
   5   7   4   49.90   15.10
   6   7   4   79.49   30.80
   7   7   4  350.86   40.50
  15  -8  -4   34.80   21.80
  14  -8  -4   -1.70   11.90
  13  -8  -4  446.46   45.50
  12  -8  -4   23.20   14.20
  11  -8  -4    3.60    9.10
 -11   8   4   23.70   16.80
  10  -8  -4  219.08   33.50
  10  -8  -4  241.28   29.30
 -10   8   4  213.78   36.10
   9  -8  -4   19.20    9.60
   9  -8  -4   -0.80    5.70
  -9   8   4   11.60   11.90
   8  -8  -4  621.44   42.20
   8  -8  -4  687.23   48.40
  -8   8   4  725.23   48.80
  -8   8   4  593.44   47.90
   7  -8  -4  437.16   31.90
   7  -8  -4  470.55   38.90
  -7   8   4  543.05   38.50
   6  -8  -4   17.10    9.80
   6  -8  -4   18.40    7.80
  -6   8   4   32.60   10.30
   5  -8  -4   50.79    9.80
   5  -8  -4   55.69   15.60
  -5   8   4   48.50   11.30
   4  -8  -4  271.67   17.50
   4  -8  -4  332.97   33.00
  -4   8   4  264.87   19.40
  -3   8   4   53.69    8.70
  -2   8   4  555.54   23.20
  -1   8   4  591.84   23.60
   0   8   4  648.64   26.50
   0   8   4  598.24   28.80
  -1  -8  -4  213.38   33.40
   1   8   4  238.38   16.70
   1   8   4  285.57   20.40
   2   8   4  233.98   19.10
   2   8   4  218.48   21.40
   3   8   4    1.00    7.50
   4   8   4   38.40   12.50
   5   8   4   11.40   13.40
   6   8   4   70.09   20.90
  15  -9  -4    1.00   11.60
  14  -9  -4   88.79   24.90
  13  -9  -4   -4.10   11.50
  12  -9  -4    9.60    8.80
  11  -9  -4   60.69   19.00
  10  -9  -4    4.20    6.90
  10  -9  -4    0.10    8.10
 -10   9   4    1.70    7.50
   9  -9  -4  173.68   30.50
   9  -9  -4  271.47   27.90
  -9   9   4  148.59   34.30
  -9   9   4  269.77   30.50
   8  -9  -4  272.07   26.00
   8  -9  -4  265.97   30.60
  -8   9   4  239.58   27.10
   7  -9  -4  781.32   42.10
   7  -9  -4  742.43   53.09
  -7   9   4  806.32   48.00
   6  -9  -4  463.05   40.70
   6  -9  -4  370.36   32.00
  -6   9   4  460.45   31.60
   5  -9  -4  964.80   39.80
   5  -9  -4 1024.00   63.29
  -5   9   4 1049.49   46.00
   4  -9  -4    9.30    6.50
   4  -9  -4   14.30    4.40
  -4   9   4   18.80    5.40
  -3   9   4  194.18   12.70
  -2   9   4   12.40    2.70
  -1   9   4    2.60    2.20
  -1   9   4    4.70    1.80
   0   9   4  229.18   12.60
   0   9   4  216.98   13.40
   1   9   4  531.45   25.30
   1   9   4  609.94   28.90
   2   9   4  -13.20    6.50
   2   9   4    1.40    4.10
   3   9   4   39.80   10.10
   3   9   4   33.60   10.90
   4   9   4   14.60   10.80
   5   9   4   12.40   14.60
   6   9   4  173.78   34.30
  15 -10  -4   40.00   18.90
  14 -10  -4  160.88   33.80
  13 -10  -4    7.00    9.80
  12 -10  -4   17.90    9.10
  11 -10  -4   67.59   19.70
  11 -10  -4   89.19   20.30
  10 -10  -4  298.27   30.80
  10 -10  -4  250.17   38.90
   9 -10  -4  575.94   41.90
   9 -10  -4  579.24   48.30
  -9  10   4  567.64   45.80
   8 -10  -4  214.68   23.10
   8 -10  -4  258.87   31.20
  -8  10   4  230.18   26.50
   7 -10  -4  101.39   24.00
   7 -10  -4  130.89   15.50
  -7  10   4  158.98   27.50
   6 -10  -4   91.59   22.00
   6 -10  -4   86.49   13.40
  -6  10   4   94.29   15.70
   5 -10  -4  789.32   31.60
   5 -10  -4  791.42   58.49
  -5  10   4  745.23   35.70
   4 -10  -4  302.27   36.30
   1  10   4  287.17   13.10
   1  10   4  316.17   14.30
   2  10   4   52.69    8.80
   2  10   4   41.80    9.30
   3  10   4    1.20    5.30
   3  10   4    9.40    7.70
   4  10   4   -3.60    7.10
   4  10   4   12.40   12.60
   5  10   4   -8.50   10.40
  15 -11  -4   -7.20   10.10
  14 -11  -4  617.44   56.09
  13 -11  -4  442.36   48.10
  12 -11  -4  409.66   44.30
  11 -11  -4   92.99   23.70
  11 -11  -4  101.89   21.70
  10 -11  -4  357.86   42.40
  10 -11  -4  322.67   38.00
   9 -11  -4    8.50    8.50
   9 -11  -4   14.60   11.00
   8 -11  -4    3.70    5.90
   8 -11  -4   -1.40    7.80
   7 -11  -4   -5.60    5.50
   7 -11  -4   -7.90    4.50
   6 -11  -4  334.37   38.30
   6 -11  -4  359.86   20.90
   5 -11  -4    1.90    8.40
   4 -11  -4  -16.20    6.40
   3  11   4   -1.00    4.60
   3  11   4    0.80    6.00
  14 -12  -4   12.80   15.10
  13 -12  -4   -2.30    8.70
  12 -12  -4  192.68   35.40
  11 -12  -4  799.92   52.39
  11 -12  -4  836.32   64.79
  10 -12  -4   64.39   17.10
  10 -12  -4  104.89   27.20
   9 -12  -4   51.89   16.50
   8 -12  -4   32.40    8.80
   8 -12  -4   13.60   11.30
   7 -12  -4    7.90   12.00
   7 -12  -4   17.70    6.30
   6 -12  -4  320.47   39.60
   5 -12  -4   20.30   14.10
   4 -12  -4   18.00   12.90
  13 -13  -4    1.70    8.50
  12 -13  -4   11.20   14.30
  11 -13  -4  171.28   34.20
  11 -13  -4  100.89   22.90
  10 -13  -4   -3.30    8.20
  10 -13  -4   -8.10   10.60
   9 -13  -4   24.20    7.90
   9 -13  -4   -2.90   11.50
   8 -13  -4   -9.90   10.40
   8 -13  -4   16.60    6.50
   7 -13  -4  101.69   27.90
   6 -13  -4  961.10   73.99
   5 -13  -4  465.55   52.29
   4 -13  -4    6.50   14.80
  12 -14  -4   25.40   18.90
  11 -14  -4  251.57   43.20
  10 -14  -4   -4.70    9.60
  10 -14  -4    7.20    8.80
   9 -14  -4   16.10   11.40
   8 -14  -4   47.50   18.50
   7 -14  -4  349.57   52.59
   6 -14  -4   -4.50   11.20
   5 -14  -4   83.59   27.20
  11 -15  -4  -17.20   15.20
  10 -15  -4   29.20   19.60
   9 -15  -4  232.28   43.50
   8 -15  -4  275.97   45.40
   7 -15  -4   38.70   16.80
   6 -15  -4   18.60   13.70
   5 -15  -4   39.30   21.50
   4 -15  -4  -13.40   18.80
   5 -15   5   57.69   21.50
   6 -15   5  -12.50   14.10
   7 -15   5  100.39   24.00
   8 -15   5   73.19   22.20
   9 -15   5  238.18   42.30
  10 -15   5   10.40   10.60
  10 -15   5   15.50    7.40
   4 -14   5  154.88   35.90
   5 -14   5    2.50   10.30
   7 -14   5   98.19   25.50
   8 -14   5   63.09   22.90
   9 -14   5  231.98   18.50
   9 -14   5  208.38   38.60
  10 -14   5   37.20   19.90
  10 -14   5   -5.40   10.50
  10 -14   5   15.30    8.40
  11 -14   5   16.70   20.10
  12 -14   5   30.50   18.60
   3 -13   5   89.99   24.40
   4 -13   5  -13.60    9.00
   5 -13   5  205.28   39.50
   6 -13   5   90.69   25.10
   7 -13   5   11.90    9.30
   7 -13   5   11.30    3.10
   7 -13   5    8.20    3.30
   8 -13   5   12.40    5.50
   8 -13   5   -4.20    5.80
   8 -13   5  -26.10   14.40
   9 -13   5  747.73   43.70
   9 -13   5  740.13   61.99
   9 -13   5  722.73   40.20
  10 -13   5  188.08   29.30
  10 -13   5  289.77   44.20
  11 -13   5   29.30   15.60
  11 -13   5   -6.50   10.20
  12 -13   5   21.20   16.40
  13 -13   5  204.48   40.20
   4 -12   5  189.18   35.00
   5 -12   5   36.10   18.50
   6 -12   5   72.89    7.20
   6 -12   5   37.60   19.40
   6 -12   5   71.19    6.70
   7 -12   5  293.87   37.30
   7 -12   5  286.97   21.50
   7 -12   5  305.37   20.00
   8 -12   5 1000.20   50.89
   8 -12   5 1064.99   72.49
   9 -12   5   -7.00   10.90
   9 -12   5  -13.20    8.90
  10 -12   5   81.29   21.30
  10 -12   5  108.59   25.80
  11 -12   5   65.29   20.80
  11 -12   5   38.40   19.40
  12 -12   5  235.38   39.10
  13 -12   5   22.60   20.20
  14 -12   5  -16.00    8.80
   3  11  -5    7.60    5.50
   5 -11   5   26.60    5.00
   5 -11   5    2.60   10.60
   5 -11   5   20.80    4.90
   6 -11   5  211.98   42.50
   6 -11   5  183.48   17.20
   6 -11   5  204.38   15.70
   7 -11   5   79.09   13.70
   7 -11   5  102.09   17.30
   7 -11   5  120.99   32.40
   8 -11   5  666.13   43.30
   8 -11   5  608.54   52.19
   9 -11   5  132.09   26.80
   9 -11   5  168.58   26.50
  10 -11   5  105.19   26.90
  10 -11   5  120.69   40.60
  11 -11   5   89.79   25.00
  11 -11   5  112.59   25.90
  12 -11   5   49.40   16.70
  13 -11   5  137.59   30.40
  14 -11   5   74.69   24.50
   4  10  -5   14.90   10.60
   3  10  -5  272.57   22.20
   2  10  -5  103.99   11.30
   4 -10   5  304.67   16.10
   4 -10   5  238.18   37.60
   4 -10   5  273.67   13.80
   5 -10   5  477.35   24.20
   5 -10   5  490.65   44.20
   5 -10   5  452.95   26.50
   6 -10   5  148.59   27.90
   6 -10   5  159.98   15.90
   6 -10   5  169.48   18.50
   7 -10   5   58.89   15.20
   7 -10   5   67.79   18.00
   8 -10   5  352.86   37.30
   8 -10   5  364.06   33.40
   9 -10   5  112.19   22.70
  10 -10   5  168.48   29.10
  10 -10   5  100.99   23.90
  11 -10   5  111.69   26.40
  12 -10   5   66.59   21.90
  13 -10   5   19.10   17.00
  14 -10   5  164.78   38.00
  15 -10   5  102.19   25.70
   5   9  -5  214.18   26.20
   4   9  -5  729.33   41.70
   3   9  -5    0.10    6.40
   2   9  -5  156.68   15.00
   1   9  -5   47.40    8.40
   0  -9   5   74.39   19.50
   1  -9   5  316.47   14.70
   2  -9   5  370.46   15.20
   3  -9   5    6.80    3.10
   4  -9   5   13.40   10.30
   4  -9   5   14.40    4.70
   5  -9   5   44.70   15.00
   5  -9   5   49.99    9.10
   6  -9   5   24.00   10.10
   6  -9   5   56.59   15.50
   7  -9   5  114.39   21.30
   7  -9   5  106.79   22.50
   8  -9   5  338.97   34.20
   8  -9   5  291.27   31.70
  -9   9  -5  119.79   25.90
   9  -9   5  126.19   26.50
   9  -9   5  173.88   29.60
  10  -9   5  505.15   47.50
  10  -9   5  405.86   41.20
  11  -9   5 1077.59   69.79
  12  -9   5   -1.30    7.50
  13  -9   5   19.10   13.30
  14  -9   5   34.40   17.20
  15  -9   5  -10.40   15.60
   6   8  -5  103.99   20.60
   5   8  -5   -4.30   10.30
   4   8  -5  964.30   50.79
   3   8  -5  652.53   36.80
   2   8  -5  379.96   24.60
  -2  -8   5  344.17   26.40
  -2  -8   5  341.57   36.20
   1   8  -5  302.37   19.70
  -1  -8   5  314.17   22.20
  -1  -8   5  328.97   33.50
   0   8  -5   75.89    8.90
   0  -8   5   78.19    9.90
   1  -8   5  166.08   12.20
   2  -8   5  424.06   19.90
   3  -8   5    5.00    4.40
   3  -8   5    9.10    3.40
   4  -8   5  110.59   11.10
   4  -8   5   89.89   19.50
   5  -8   5   10.10    9.50
   6  -8   5   11.30    7.80
   7  -8   5  551.44   41.30
   7  -8   5  534.85   41.40
  -8   8  -5   80.19   21.20
   8  -8   5   86.79   20.00
   8  -8   5   85.49   20.00
  -9   8  -5  309.77   35.50
   9  -8   5  409.16   37.40
   9  -8   5  367.06   38.00
  10  -8   5   11.30    6.40
  10  -8   5  -14.90   11.20
  11  -8   5 1240.58   73.89
  12  -8   5  226.98   36.80
  13  -8   5  211.28   36.70
  14  -8   5    5.90   11.80
  15  -8   5   -8.60   13.30
   7   7  -5   87.69   39.60
   6   7  -5   16.80   15.20
   5   7  -5  269.87   28.20
   4   7  -5   87.49   17.60
  -4  -7   5   88.39   19.50
   3   7  -5   69.99   13.50
  -3  -7   5   61.49   16.40
  -3  -7   5   74.39   19.00
   2   7  -5   99.69   14.80
  -2  -7   5   80.39   14.40
   1   7  -5  583.84   29.20
  -1  -7   5  539.45   30.10
  -1  -7   5  544.25   40.90
   0   7  -5   39.50    7.20
   0  -7   5   37.20    7.70
   1  -7   5  204.28   14.30
   2  -7   5 1181.98   41.20
   3  -7   5  366.76   32.00
   3  -7   5  377.66   21.20
   4  -7   5 1440.26   52.39
   4  -7   5 1396.26   66.49
   5  -7   5   12.10    7.70
  -6   7  -5  572.84   42.10
   6  -7   5  551.14   39.50
  -7   7  -5   39.10   12.30
   7  -7   5   20.20    9.00
  -8   7  -5  211.98   31.10
   8  -7   5  170.78   27.10
   8  -7   5  166.38   28.60
  -9   7  -5  408.36   38.20
   9  -7   5  420.06   40.20
   9  -7   5  372.86   35.00
 -10   7  -5  898.11   60.89
  10  -7   5  924.11   59.79
  10  -7   5  829.92   61.99
  11  -7   5   11.10   10.00
  12  -7   5   27.90   13.30
  13  -7   5   21.40   12.70
  14  -7   5   96.19   25.10
  15  -7   5   51.49   18.20
   7   6  -5   69.19   21.60
   6   6  -5  118.99   22.80
   5   6  -5  182.68   27.00
  -5  -6   5  192.78   24.30
   4   6  -5  176.78   20.50
  -4  -6   5  181.98   23.50
  -4  -6   5  194.58   30.30
   3   6  -5   45.30   11.00
  -3  -6   5   28.70   13.40
   2   6  -5    9.90    4.50
  -2  -6   5    8.20    4.40
  -2  -6   5    0.50    6.30
   1   6  -5  551.24   28.90
  -1  -6   5  594.54   31.10
  -1  -6   5  536.65   37.90
   0   6  -5   63.39    8.10
   0  -6   5   65.99   10.30
   1  -6   5  175.68   13.50
   2  -6   5    6.60    3.10
   3  -6   5    9.50    5.70
   4  -6   5 2270.77  124.49
  -5   6  -5 1853.51   78.69
   5  -6   5 1985.10   77.79
  -6   6  -5   79.89   16.90
   6  -6   5   86.39   17.40
  -7   6  -5  214.38   24.10
   7  -6   5  205.68   23.00
  -8   6  -5  423.96   36.30
   8  -6   5  422.16   39.60
   8  -6   5  378.96   33.60
  -9   6  -5    9.30   10.60
   9  -6   5    8.70    7.20
 -10   6  -5  274.27   32.50
  10  -6   5  282.87   35.30
  10  -6   5  279.67   32.00
  11  -6   5   29.10   12.20
  12  -6   5   91.49   24.80
  13  -6   5    2.40    5.60
  14  -6   5   15.10   14.60
  15  -6   5  228.88   41.00
   7   5  -5  -10.60   10.60
   6   5  -5   45.10   13.50
  -6  -5   5    6.80   10.10
   5   5  -5  410.36   34.80
  -5  -5   5  531.95   44.10
  -5  -5   5  445.76   38.10
   4   5  -5   37.10   11.60
  -4  -5   5   57.19   14.90
  -4  -5   5   35.90   12.80
   3   5  -5   12.10    6.30
  -3  -5   5   21.80    7.80
  -3  -5   5   -2.00    7.20
   2   5  -5    8.20    5.20
  -2  -5   5   11.20    6.50
  -2  -5   5   14.40    7.40
   1   5  -5 1876.61   64.49
  -1  -5   5 1908.11   75.29
  -1  -5   5 2075.99   67.39
   0   5  -5  612.14   28.70
   0  -5   5  580.44   27.90
  -1   5  -5    7.50    3.60
   1  -5   5    8.20    4.00
   2  -5   5  183.08   14.30
   2  -5   5  222.88   20.60
   3  -5   5 1966.60   72.29
   3  -5   5 1964.50   64.69
   4  -5   5  162.18   17.30
  -5   5  -5  564.64   36.00
   5  -5   5  616.14   36.30
  -6   5  -5  174.98   19.90
   6  -5   5  168.48   19.00
  -7   5  -5 1100.49   58.69
   7  -5   5 1209.68   58.89
  -8   5  -5    6.60    5.80
   8  -5   5   -9.90    5.60
   8  -5   5    8.10    5.30
   9  -5   5   -3.60   11.30
   9  -5   5   29.10   11.00
 -10   5  -5  535.05   44.50
  10  -5   5  533.25   43.90
  10  -5   5  452.15   46.50
  11  -5   5  208.28   35.10
  12  -5   5  324.87   37.40
  13  -5   5   -6.40    5.60
  14  -5   5  214.68   39.40
  15  -5   5   -5.20   16.20
   7   4  -5   11.20   10.10
  -7  -4   5   -7.10    7.20
   6   4  -5  272.07   28.70
  -6  -4   5  353.76   35.80
  -6  -4   5  289.27   32.30
   5   4  -5   19.20    8.80
  -5  -4   5   23.10    9.80
  -5  -4   5    1.60    7.30
   4   4  -5  131.59   16.30
  -4  -4   5  132.39   22.20
  -4  -4   5  116.99   20.50
   3   4  -5 1480.25   60.59
  -3  -4   5 1521.95   63.09
  -3  -4   5 1405.76   65.39
   2   4  -5 2733.03   86.49
  -2  -4   5 2625.24   92.69
  -2  -4   5 2651.73   87.39
   1   4  -5  167.88   14.90
  -1  -4   5  170.48   17.60
  -1  -4   5  170.58   15.20
   0   4  -5    5.30    2.90
   0  -4   5   -3.00    1.90
  -1   4  -5  524.45   25.90
   1  -4   5  535.95   25.90
   2  -4   5 1437.26   49.30
   2  -4   5 1308.67   51.89
   3  -4   5 1005.00   43.10
  -4   4  -5   -7.70    2.60
   4  -4   5    4.10    2.90
  -5   4  -5    8.40    4.80
   5  -4   5    3.30    5.10
  -6   4  -5   -3.90    3.80
   6  -4   5    5.00    4.10
  -7   4  -5  334.67   29.60
   7  -4   5  351.96   29.90
  -8   4  -5  128.09   23.50
   8  -4   5  112.59   20.70
   8  -4   5  114.19   24.80
  -9   4  -5   46.30   19.20
   9  -4   5   45.90   13.80
   9  -4   5   54.29   16.90
 -10   4  -5  172.38   29.80
  10  -4   5  201.58   32.60
  11  -4   5  100.89   24.70
  12  -4   5 1075.09   72.69
  13  -4   5  774.12   62.39
  10   3  -5   63.29   20.30
   9   3  -5   -7.90   10.90
   8   3  -5 1046.70   67.99
   8   3  -5 1106.79   71.39
  -8  -3   5 1142.79   74.09
   7   3  -5  924.41   60.69
   7   3  -5 1030.10   64.69
  -7  -3   5  850.91   60.29
  -7  -3   5  842.32   58.39
   6   3  -5  -12.00    5.60
   6   3  -5    3.90    5.60
  -6  -3   5    3.00    8.20
  -6  -3   5   -2.20    6.30
   5   3  -5    5.50    6.00
   5   3  -5   15.80    8.70
  -5  -3   5  -14.00    5.20
  -5  -3   5    0.90    4.30
   4   3  -5  358.86   30.20
   4   3  -5  342.07   27.90
  -4  -3   5  367.96   30.30
  -4  -3   5  390.76   30.70
   3   3  -5    3.90    3.40
  -3  -3   5   -4.50    2.50
  -3  -3   5   -9.20    3.80
   2   3  -5 1933.91   68.39
  -2  -3   5 2051.19   71.89
  -2  -3   5 1995.40   69.49
   1   3  -5  960.70   39.50
  -1  -3   5  915.81   38.60
  -1  -3   5  901.01   39.50
   0   3  -5 1905.91   61.49
   0  -3   5 1944.91   61.69
  -1   3  -5 1110.69   41.40
   1  -3   5 1044.00   40.30
   2  -3   5  315.27   18.90
   2  -3   5  320.87   20.20
  -3   3  -5 1889.91   61.99
   3  -3   5 1799.12   60.19
  -4   3  -5  528.95   29.70
   4  -3   5  543.35   29.20
   5  -3   5  184.98   18.10
  -6   3  -5   -1.00    3.90
   6  -3   5    0.60    3.80
  -7   3  -5 1347.77   64.69
   7  -3   5 1439.86   65.49
  -8   3  -5   19.20   10.10
   8  -3   5   11.90    9.10
   8  -3   5   14.20   11.10
  -9   3  -5   30.90   12.50
   9  -3   5    8.30   13.70
   9  -3   5   28.60   11.60
  10  -3   5   54.09   16.10
  11  -3   5  605.94   51.69
  12  -3   5    1.80   11.10
  13  -3   5  304.27   48.10
  14  -3   5   16.70   14.40
  12   2  -5   17.80   16.60
  11   2  -5  167.08   33.40
  10   2  -5  104.19   27.90
   9   2  -5 1018.70   69.39
  -9  -2   5  911.61   68.79
   8   2  -5   10.20   11.30
   8   2  -5   21.90   13.80
  -8  -2   5    1.40   10.60
  -8  -2   5    8.90    7.40
   7   2  -5  422.96   38.80
   7   2  -5  418.06   39.10
  -7  -2   5  395.96   44.90
  -7  -2   5  337.07   36.10
   6   2  -5  421.86   36.40
   6   2  -5  460.85   38.20
  -6  -2   5  468.35   38.90
  -6  -2   5  493.75   38.90
   5   2  -5 1139.39   58.49
   5   2  -5 1035.60   56.49
  -5  -2   5 1088.59   56.49
  -5  -2   5 1270.87   62.69
   4   2  -5    0.40    4.20
   4   2  -5    5.60    4.60
  -4  -2   5   17.20    7.10
   3   2  -5  194.18   18.40
   3   2  -5  221.78   21.00
  -3  -2   5  200.18   19.60
  -3  -2   5  190.38   18.10
   2   2  -5 1449.85   54.09
  -2  -2   5 1397.36   51.99
  -2  -2   5 1341.27   52.99
   1   2  -5  329.47   20.90
  -1  -2   5  352.86   21.50
  -1  -2   5  338.47   19.10
   0   2  -5  732.43   31.70
   0  -2   5  719.13   31.60
  -1   2  -5  570.84   27.70
   1  -2   5  588.04   27.70
   1  -2   5  579.24   22.70
  -2   2  -5  698.03   27.80
   2  -2   5  697.83   27.20
  -3   2  -5 1082.89   41.20
   3  -2   5 1107.29   41.10
  -4   2  -5 1338.47   51.59
   4  -2   5 1339.67   51.39
  -5   2  -5 1740.23   81.09
   5  -2   5 1869.91   68.79
  -6   2  -5 2878.21   99.39
   6  -2   5 2748.12   97.69
  -7   2  -5    3.10    4.60
   7  -2   5   15.30    8.00
  -8   2  -5   10.00    7.40
   8  -2   5    5.60    6.10
   8  -2   5   -7.90    7.10
  -9   2  -5   79.99   19.20
   9  -2   5   91.29   21.70
   9  -2   5  124.89   26.30
  10  -2   5  311.77   36.10
  11  -2   5  136.49   28.50
  12  -2   5  151.38   31.20
  13  -2   5    1.90   15.80
  14  -2   5    1.60   17.70
  12   1  -5   10.90   19.40
  11   1  -5   48.00   21.30
  10   1  -5  124.99   28.00
 -10  -1   5  135.59   31.50
   9   1  -5  422.26   43.00
  -9  -1   5  469.65   47.90
   8   1  -5  355.56   38.20
   8   1  -5  356.16   36.20
  -8  -1   5  313.77   35.60
  -8  -1   5  356.56   35.10
   7   1  -5  146.59   25.90
   7   1  -5  191.48   30.20
  -7  -1   5  189.38   28.70
  -7  -1   5  198.88   31.30
   6   1  -5  176.88   21.40
   6   1  -5  209.58   25.10
  -6  -1   5  182.98   28.30
  -6  -1   5  216.68   23.90
   5   1  -5  142.99   22.20
   5   1  -5  135.49   21.10
  -5  -1   5  177.08   21.80
  -5  -1   5  163.98   19.20
   4   1  -5   15.30    6.40
   4   1  -5   19.00    7.90
  -4  -1   5   12.00    6.50
  -4  -1   5   12.50    5.60
   3   1  -5  526.35   28.90
   3   1  -5  521.95   31.40
  -3  -1   5  472.05   30.00
  -3  -1   5  516.75   28.30
   2   1  -5 1057.29   44.30
   2   1  -5 1046.70   39.30
  -2  -1   5 1087.69   39.60
  -2  -1   5 1098.19   44.80
   1   1  -5  593.94   28.90
  -1  -1   5  611.74   29.30
  -1  -1   5  603.94   22.60
   0   1  -5 1994.30   62.49
   0  -1   5 1920.11   61.89
  -1   1  -5 1837.12   48.40
   1  -1   5 1806.92   59.79
   1  -1   5 1923.71   48.60
  -2   1  -5  593.04   24.00
   2  -1   5  603.94   24.50
  -3   1  -5  351.46   20.90
   3  -1   5  312.47   19.80
  -4   1  -5  970.00   43.10
   4  -1   5  939.21   42.80
  -5   1  -5  174.28   18.80
   5  -1   5  171.88   18.80
  -6   1  -5 1955.30   79.59
   6  -1   5 1971.90   79.69
  -7   1  -5  503.05   38.50
   7  -1   5  565.44   41.20
  -8   1  -5  571.04   44.30
   8  -1   5  402.46   51.49
   8  -1   5  547.25   43.70
  -9   1  -5  366.66   35.80
   9  -1   5  290.27   32.80
   9  -1   5  288.27   35.50
  10  -1   5   72.09   22.90
  11  -1   5   86.79   25.50
  12  -1   5   24.40   14.30
  13  -1   5   13.20   16.40
  13   0  -5  145.39   34.50
  12   0  -5  252.87   42.00
  11   0  -5  101.79   27.60
  10   0  -5  184.78   33.20
 -10   0   5  118.99   29.90
   9   0  -5  148.99   27.90
  -9   0   5  104.49   26.30
  -9   0   5  129.89   25.20
   8   0  -5   83.49   20.80
   8   0  -5   53.79   16.60
  -8   0   5  122.59   24.20
  -8   0   5   86.79   22.80
   7   0  -5   14.60    8.20
   7   0  -5   32.00   11.80
  -7   0   5   28.00   11.10
  -7   0   5   35.60   12.50
   6   0  -5   55.69   13.40
   6   0  -5   77.89   17.30
  -6   0   5   34.20   11.20
  -6   0   5   63.29   17.10
   5   0  -5  610.24   36.80
   5   0  -5  584.94   39.10
  -5   0   5  618.14   36.60
  -5   0   5  630.84   40.90
   4   0  -5    8.80    4.10
   4   0  -5    3.20    4.00
  -4   0   5    7.40    4.60
  -4   0   5    5.20    4.80
   3   0  -5 1924.21   68.99
   3   0  -5 1885.91   61.69
  -3   0   5 1907.81   68.99
  -3   0   5 1970.00   61.89
   2   0  -5  668.43   32.90
   2   0  -5  690.63   26.50
  -2   0   5  710.03   26.20
  -2   0   5  723.93   33.90
   1   0  -5 1684.73   45.80
   1   0  -5 1929.61   60.99
  -1   0   5 1841.72   60.49
  -1   0   5 1916.11   46.10
   0   0  -5    3.80    2.80
   0   0   5    0.10    2.00
  -1   0  -5 1893.41   50.39
   1   0   5 1772.62   59.79
   1   0   5 1816.72   50.29
  -2   0  -5  718.23   29.60
   2   0   5  695.53   30.10
  -3   0  -5 1981.30   65.99
   3   0   5 1920.41   66.49
  -4   0  -5    8.90    5.10
   4   0   5    4.30    3.40
  -5   0  -5  536.65   35.80
   5   0   5  607.64   38.80
  -6   0  -5   88.99   18.10
   6   0   5   79.39   17.60
  -7   0  -5    3.30    9.50
   7   0   5   31.30   12.60
  -8   0  -5   86.39   19.90
   8   0   5   79.69   22.20
   8   0   5   62.19   18.10
   9   0   5  103.29   22.90
  10   0   5  134.09   29.10
  11   0   5   76.39   23.40
  12   0   5  229.08   40.70
  13   0   5  152.88   32.00
  13  -1  -5    3.60   15.60
  12  -1  -5   88.69   23.40
  11  -1  -5   99.69   26.20
 -11   1   5  137.09   32.20
  10  -1  -5   74.19   20.40
 -10   1   5   68.59   23.30
   9  -1  -5  305.97   34.40
   9  -1  -5  304.17   35.70
  -9   1   5  338.97   37.90
  -9   1   5  296.97   33.00
   8  -1  -5  465.05   52.89
   8  -1  -5  611.54   43.90
  -8   1   5  502.15   45.10
  -8   1   5  541.45   41.50
   7  -1  -5  526.05   41.90
   7  -1  -5  523.45   37.60
  -7   1   5  530.85   38.20
  -7   1   5  566.24   44.00
   6  -1  -5 2066.99   85.39
   6  -1  -5 1857.01   75.69
  -6   1   5 2027.40   85.39
  -6   1   5 1918.31   76.39
   5  -1  -5  163.38   19.30
   5  -1  -5  175.18   17.80
  -5   1   5  176.08   18.80
  -5   1   5  186.18   21.00
   4  -1  -5  900.11   39.60
   4  -1  -5  959.40   46.50
  -4   1   5  956.80   46.70
  -4   1   5  930.21   39.70
   3  -1  -5  323.77   18.60
   3  -1  -5  319.37   22.60
  -3   1   5  295.97   17.70
  -3   1   5  298.77   22.30
   2  -1  -5  594.64   30.20
   2  -1  -5  608.04   23.00
  -2   1   5  613.64   23.60
  -2   1   5  620.24   30.70
   1  -1  -5 1844.72   48.30
   1  -1  -5 1807.62   59.29
  -1   1   5 1776.12   59.09
   0  -1  -5 1862.81   59.99
   0   1   5 1877.61   60.49
  -1  -1  -5  558.24   24.60
   1   1   5  575.84   28.60
  -2  -1  -5 1105.19   43.80
   2   1   5 1088.49   43.50
  -3  -1  -5  518.75   30.70
   3   1   5  501.65   30.70
  -4  -1  -5   11.60    5.90
   4   1   5   11.50    6.30
  -5  -1  -5  183.08   21.00
   5   1   5  146.89   22.90
  -6  -1  -5  220.88   25.10
   6   1   5  215.48   25.20
  -7  -1  -5  161.18   27.10
   7   1   5  122.99   24.60
   7   1   5  204.88   33.20
  -8  -1  -5  368.46   36.60
   8   1   5  332.97   36.80
   8   1   5  323.77   35.10
   9   1   5  388.56   41.60
  10   1   5  158.28   32.50
  11   1   5    6.60   18.20
  12   1   5   27.40   15.80
  14  -2  -5   10.90   15.00
  13  -2  -5   17.40   15.20
  12  -2  -5  109.39   26.40
  11  -2  -5  131.59   29.80
 -11   2   5  106.99   27.80
  10  -2  -5  321.07   36.20
 -10   2   5  284.57   54.49
 -10   2   5  358.66   44.70
   9  -2  -5  130.89   27.20
   9  -2  -5  109.19   22.20
  -9   2   5  107.49   21.30
  -9   2   5  108.89   26.50
   8  -2  -5    0.90    7.40
   8  -2  -5   -5.20    5.40
  -8   2   5    6.70    6.80
  -8   2   5    7.30    7.80
   7  -2  -5   12.30    6.60
   7  -2  -5   11.30    6.80
  -7   2   5   10.30    6.40
  -7   2   5   11.10    7.00
   6  -2  -5 2622.04  100.79
  -6   2   5 2643.54  101.59
  -6   2   5 2807.42   94.79
   5  -2  -5 1925.01   68.99
   5  -2  -5 1948.21   76.69
  -5   2   5 1903.41   82.09
  -5   2   5 1888.31   68.69
   4  -2  -5 1335.07   50.59
  -4   2   5 1255.07   55.99
  -4   2   5 1583.74   53.99
   3  -2  -5 1066.69   45.00
   3  -2  -5 1086.29   39.60
  -3   2   5 1058.09   45.60
  -3   2   5 1024.20   39.60
   2  -2  -5  643.94   31.00
   2  -2  -5  683.33   27.30
  -2   2   5  642.84   31.30
   1  -2  -5  593.14   28.20
  -1   2   5  610.54   28.80
   0  -2  -5  714.23   31.60
   0   2   5  715.83   31.80
  -1  -2  -5  332.97   21.10
   1   2   5  343.87   21.70
  -2  -2  -5 1535.55   58.69
  -3  -2  -5  195.38   19.90
   3   2   5  184.48   19.30
  -4  -2  -5   10.90    6.40
   4   2   5    5.40    5.10
  -5  -2  -5 1123.49   60.39
   5   2   5 1240.28   64.39
  -6  -2  -5  464.45   38.70
   6   2   5  453.95   39.50
  -7  -2  -5  411.66   38.60
   7   2   5  385.66   38.10
   7   2   5  417.26   42.80
   8   2   5  -15.60    7.50
   8   2   5   15.50    9.10
   9   2   5  967.20   68.89
  10   2   5   86.39   23.90
  11   2   5  182.28   37.50
  12   2   5    2.70   13.40
  13  -3  -5  236.78   40.70
  12  -3  -5   -5.50    8.50
 -12   3   5  -10.20    5.60
  11  -3  -5  664.53   53.09
 -11   3   5  671.63   60.69
  10  -3  -5   80.99   20.70
 -10   3   5   39.80   15.30
 -10   3   5   96.09   21.90
   9  -3  -5   32.60   13.10
   9  -3  -5   46.10   13.80
  -9   3   5   33.10   12.00
  -9   3   5   44.20   15.00
   8  -3  -5   18.50    8.80
   8  -3  -5   25.90   10.70
  -8   3   5    3.70    7.00
  -8   3   5   24.30   10.00
   7  -3  -5 1579.74   74.39
   7  -3  -5 1409.66   64.99
  -7   3   5 1459.85   66.99
  -7   3   5 1580.64   76.59
   6  -3  -5    1.20    4.70
   6  -3  -5    5.70    5.40
  -6   3   5   -2.70    2.40
  -6   3   5    8.30    5.20
   5  -3  -5  237.58   19.60
   5  -3  -5  182.18   19.40
  -5   3   5  174.38   17.60
  -5   3   5  162.78   20.00
   4  -3  -5  475.05   30.00
   4  -3  -5  520.95   28.30
  -4   3   5  492.15   28.50
  -4   3   5  474.75   30.40
   3  -3  -5 1934.91   63.79
   3  -3  -5 2034.40   67.39
  -3   3   5 1883.51   65.39
  -3   3   5 1930.91   67.29
   2  -3  -5  333.37   21.00
   2  -3  -5  332.57   20.90
  -2   3   5  321.37   20.70
   1  -3  -5 1078.89   40.50
  -1   3   5 1016.20   40.40
   0   3   5 1912.71   62.09
  -1  -3  -5  891.41   42.30
   1   3   5  986.90   40.80
  -2  -3  -5 1866.21   71.49
  -3  -3  -5    7.10    5.70
  -4  -3  -5  406.56   33.50
   4   3   5  335.57   31.50
  -5  -3  -5    1.20    4.70
   5   3   5    9.80    6.80
  -6  -3  -5    2.80    6.20
   6   3   5   15.10    8.80
   6   3   5   23.40   10.70
   7   3   5  884.91   60.89
   7   3   5  947.41   63.99
   8   3   5 1134.89   89.89
   8   3   5 1242.78   77.59
  10   3   5   96.49   27.20
  11   3   5   17.90   12.00
  14  -4  -5    1.00   17.00
  13  -4  -5  749.42   60.39
  12  -4  -5 1251.77   77.49
 -12   4   5 1039.00   79.89
  11  -4  -5   90.99   25.30
 -11   4   5  106.59   28.90
  10  -4  -5  192.78   30.50
 -10   4   5  168.58   32.40
 -10   4   5  215.18   32.60
   9  -4  -5   49.20   16.30
   9  -4  -5   48.40   14.30
  -9   4   5   24.30   11.10
  -9   4   5   60.19   16.20
   8  -4  -5  119.19   21.20
   8  -4  -5   86.49   19.40
  -8   4   5  132.79   25.50
  -8   4   5   92.89   18.30
   7  -4  -5  374.66   33.10
   7  -4  -5  362.56   29.30
  -7   4   5  351.16   30.00
  -7   4   5  354.96   33.40
   6  -4  -5    4.10    4.50
   6  -4  -5    1.60    5.40
  -6   4   5    8.70    5.30
  -6   4   5    8.00    5.80
   5  -4  -5   -0.80    3.20
   5  -4  -5   14.00    6.10
  -5   4   5    6.30    4.30
  -5   4   5    7.60    5.20
   4  -4  -5    2.90    3.40
   4  -4  -5    6.10    3.40
  -4   4   5    4.20    3.30
  -4   4   5    4.50    3.90
   3  -4  -5  839.32   38.30
   3  -4  -5  970.40   43.00
  -3   4   5  920.21   40.50
   2  -4  -5 1364.76   49.10
  -2   4   5 1375.16   49.80
   1  -4  -5  494.35   25.60
  -1   4   5  546.55   27.00
   0   4   5    0.60    1.80
  -1  -4  -5  159.18   17.70
   1   4   5  177.68   15.60
  -2  -4  -5 2929.31  103.09
  -3  -4  -5 1469.45   69.09
  -4  -4  -5   83.09   19.10
  -5  -4  -5   27.50   11.60
   5   4   5   20.00    9.80
  -6  -4  -5  271.37   32.10
   6   4   5  296.67   32.10
   7   4   5   26.50   12.90
  15  -5  -5   33.70   19.10
  14  -5  -5  149.79   32.50
  13  -5  -5   -6.20    7.70
  12  -5  -5  246.88   37.90
 -12   5   5  261.37   45.10
 -11   5   5  141.69   33.10
  10  -5  -5  417.06   41.60
  10  -5  -5  449.16   39.30
 -10   5   5  473.95   45.80
 -10   5   5  429.36   39.60
   9  -5  -5   32.00   11.50
   9  -5  -5    8.80   10.50
  -9   5   5   25.40    9.00
  -9   5   5   -1.70    5.90
   8  -5  -5    2.20    4.40
   8  -5  -5    1.40    5.80
  -8   5   5  -11.20    5.10
   7  -5  -5 1043.00   57.69
   7  -5  -5 1177.28   57.29
  -7   5   5 1122.29   61.79
  -7   5   5 1115.29   58.09
   6  -5  -5  182.98   19.30
   6  -5  -5  141.79   18.10
  -6   5   5  165.38   20.00
  -6   5   5  148.09   22.40
   5  -5  -5  547.95   33.70
   5  -5  -5  524.45   42.00
  -5   5   5  600.54   38.30
  -5   5   5  548.45   35.30
   4  -5  -5  165.48   17.90
   4  -5  -5  168.28   16.50
  -4   5   5  177.08   17.20
   3  -5  -5 1826.92   63.39
   3  -5  -5 1934.51   74.09
  -3   5   5 2011.60   66.59
   2  -5  -5  179.58   14.40
  -2   5   5  209.58   16.20
  -1   5   5   15.20    5.50
   0   5   5  554.94   27.80
  -1  -5  -5 2066.39   80.79
   1   5   5 1864.21   65.79
  -2  -5  -5    6.10    6.00
  -3  -5  -5    9.40    7.00
  -4  -5  -5   34.60   13.40
   4   5   5   19.70   10.40
  -5  -5  -5  527.35   44.60
   5   5   5  400.46   37.00
   6   5   5   33.10   14.80
   7   5   5   45.60   16.80
  15  -6  -5  197.18   39.60
  14  -6  -5   44.60   18.90
  13  -6  -5   13.80   14.80
  12  -6  -5   47.50   18.00
 -12   6   5   96.69   28.20
 -11   6   5   23.70   13.40
  10  -6  -5  284.47   35.20
  10  -6  -5  308.47   32.30
 -10   6   5  313.67   36.20
 -10   6   5  309.57   34.40
   9  -6  -5    0.60    4.50
  -9   6   5    0.20    8.10
   8  -6  -5  465.55   37.10
   8  -6  -5  452.85   37.60
  -8   6   5  413.76   37.80
  -8   6   5  446.36   37.00
   7  -6  -5  199.18   22.50
   7  -6  -5  212.18   23.20
  -7   6   5  183.78   23.50
  -7   6   5  211.88   24.60
   6  -6  -5   53.09   12.60
   6  -6  -5   49.70   12.90
  -6   6   5   63.59   15.50
  -6   6   5   79.99   16.50
   5  -6  -5 1846.02   76.79
   5  -6  -5 2047.10   72.29
  -5   6   5 1892.41   73.99
   4  -6  -5 2623.14   96.29
   4  -6  -5 2824.32   85.59
  -4   6   5 2539.45   85.99
   3  -6  -5   -2.90    3.50
   3  -6  -5   -0.80    3.00
  -3   6   5   -3.40    2.10
   2  -6  -5    4.20    3.30
  -2   6   5    3.10    3.50
  -1   6   5  150.88   13.10
   0   6   5   44.90    9.20
  -1  -6  -5  545.25   40.00
   1   6   5  584.34   30.50
  -2  -6  -5   -8.10    5.90
  -3  -6  -5   55.39   14.80
  -4  -6  -5  146.79   27.20
   4   6   5  158.78   25.30
   5   6   5  199.38   25.20
   7   6   5   58.79   20.50
  15  -7  -5   30.40   16.40
  14  -7  -5   75.19   23.30
  13  -7  -5   44.30   22.40
  12  -7  -5   52.49   17.70
 -12   7   5   43.60   19.40
  11  -7  -5    7.60    8.60
 -11   7   5   10.60   13.80
  10  -7  -5  847.82   57.69
  10  -7  -5  907.41   61.49
 -10   7   5  857.51   60.19
 -10   7   5 1018.70   67.89
   9  -7  -5  464.75   40.50
   9  -7  -5  413.26   37.40
  -9   7   5  445.96   41.60
  -9   7   5  410.26   38.20
   8  -7  -5  186.48   23.40
   8  -7  -5  181.08   22.10
  -8   7   5  205.68   31.00
  -8   7   5  162.68   27.20
   7  -7  -5   22.50    9.90
   7  -7  -5   50.69   14.20
  -7   7   5   44.10   13.40
  -7   7   5   22.20    9.50
   6  -7  -5  533.05   38.80
   6  -7  -5  519.35   33.80
  -6   7   5  493.65   35.90
   5  -7  -5   13.50    6.80
  -5   7   5   18.90    7.70
   4  -7  -5 1468.05   70.29
   4  -7  -5 1465.05   53.99
  -4   7   5 1443.06   56.79
   3  -7  -5  351.06   20.90
  -3   7   5  353.76   22.40
  -2   7   5 1062.89   40.80
  -1   7   5  205.28   15.10
   0   7   5   34.80    7.60
  -1  -7  -5  533.35   44.10
   1   7   5  532.15   28.90
  -2  -7  -5   81.49   20.50
   2   7   5  125.79   14.60
   3   7   5   51.79   14.30
   4   7   5   96.59   19.30
   5   7   5  271.77   31.20
   6   7   5   -1.50   14.80
  15  -8  -5   82.89   26.90
  14  -8  -5   10.80   11.30
  13  -8  -5  209.38   35.00
  12  -8  -5  173.28   31.60
 -12   8   5  183.38   36.10
  11  -8  -5 1073.99   68.59
 -11   8   5 1178.48   95.79
  10  -8  -5   17.90   10.80
  10  -8  -5   16.50    9.80
   9  -8  -5  302.47   30.40
   9  -8  -5  302.17   32.30
  -9   8   5  295.67   32.20
  -9   8   5  287.77   34.60
   8  -8  -5   84.09   19.30
   8  -8  -5   90.49   17.90
  -8   8   5  103.29   22.10
  -8   8   5   56.99   17.70
   7  -8  -5  588.04   38.10
   7  -8  -5  536.05   42.70
  -7   8   5  573.44   41.30
   6  -8  -5   30.10   10.30
   6  -8  -5   11.70    6.80
  -6   8   5   13.50    9.60
   5  -8  -5   25.20    6.90
  -5   8   5   23.30    8.00
   4  -8  -5  102.59   21.70
   4  -8  -5  117.99   12.20
  -4   8   5  115.49   13.50
   3  -8  -5   -0.50    3.00
  -3   8   5    5.70    3.30
  -2   8   5  424.36   22.40
  -1   8   5  140.39   11.80
   0   8   5   75.49    9.20
  -1  -8  -5  292.97   32.30
   1   8   5  272.47   22.30
   1   8   5  280.67   20.00
   2   8   5  370.16   25.50
   3   8   5  653.33   38.20
   3   8   5  593.04   40.10
   4   8   5 1107.79   59.99
   5   8   5   12.40   13.40
   6   8   5  -34.60   14.80
  15  -9  -5   37.70   19.70
  14  -9  -5   39.90   20.00
  13  -9  -5    1.00   13.20
  12  -9  -5    9.70    9.20
 -12   9   5    4.80   12.90
  11  -9  -5  851.71   60.59
 -11   9   5  921.41   68.29
  10  -9  -5  454.55   42.10
  10  -9  -5  484.55   39.80
 -10   9   5  486.45   45.30
   9  -9  -5  128.99   21.40
   9  -9  -5   97.79   22.50
  -9   9   5  166.48   28.90
   8  -9  -5  288.77   32.30
   8  -9  -5  297.77   28.30
  -8   9   5  249.68   27.70
   7  -9  -5   99.59   22.80
   7  -9  -5  121.09   18.80
  -7   9   5  116.19   21.10
   6  -9  -5   26.50    7.80
   6  -9  -5   52.29   17.40
  -6   9   5   34.90    9.50
   5  -9  -5   37.10   13.90
   5  -9  -5   45.80    9.50
  -5   9   5   65.89   12.90
   4  -9  -5   15.60    4.70
   4  -9  -5   16.10    8.80
  -4   9   5   19.90    6.80
  -3   9   5    5.70    3.60
  -2   9   5  394.76   20.00
  -1   9   5  326.27   17.50
   0   9   5  128.09   13.50
   0   9   5  135.49   11.50
   1   9   5   73.99   11.50
   1   9   5   59.09   11.40
   2   9   5  142.89   15.50
   2   9   5  175.08   19.00
   3   9   5    2.10    9.40
   4   9   5  611.04   41.60
   4   9   5  710.83   42.50
   5   9   5  167.18   29.90
  15 -10  -5   68.99   23.40
  14 -10  -5  107.09   29.80
  13 -10  -5   74.49   22.60
  12 -10  -5  117.29   25.80
  11 -10  -5  161.08   30.00
 -11  10   5  161.18   32.20
  10 -10  -5  158.18   26.60
  10 -10  -5  170.48   31.20
 -10  10   5  172.18   30.50
   9 -10  -5   97.19   23.30
   9 -10  -5   55.69   14.90
  -9  10   5   40.10   15.60
   8 -10  -5  379.26   30.20
   8 -10  -5  357.86   37.70
  -8  10   5  300.27   31.70
   7 -10  -5   49.80   18.20
   7 -10  -5   61.59   13.70
  -7  10   5   73.09   15.20
   6 -10  -5  175.68   30.70
  -6  10   5  168.78   18.80
   5 -10  -5  490.55   45.40
   5 -10  -5  484.15   25.50
  -5  10   5  436.36   27.90
   4 -10  -5  259.37   32.90
  -4  10   5  313.37   19.80
  -3  10   5  888.41   31.10
   0  10   5  124.29    9.00
   0  10   5  151.38   10.30
   1  10   5  109.59   10.20
   1  10   5   94.09   10.80
   2  10   5   90.99   12.50
   2  10   5   85.69   13.70
   3  10   5  282.87   22.00
   3  10   5  303.17   30.50
   4  10   5   -2.80    7.90
   4  10   5   15.50   13.90
   5  10   5   -5.60   10.50
  14 -11  -5   22.20   18.70
  13 -11  -5   82.39   25.80
  12 -11  -5   12.90   15.30
  11 -11  -5   86.09   23.50
  11 -11  -5   66.99   22.50
  10 -11  -5  122.09   28.30
  10 -11  -5   79.59   19.20
 -10  11   5  123.69   25.60
   9 -11  -5  171.38   32.50
   9 -11  -5  142.69   23.10
  -9  11   5  157.28   28.40
   8 -11  -5  585.24   37.50
   8 -11  -5  600.54   51.79
  -8  11   5  589.54   43.50
   7 -11  -5  107.89   25.10
   7 -11  -5   96.79   15.50
  -7  11   5  105.79   18.70
   6 -11  -5  130.89   29.80
   6 -11  -5  191.38   16.30
  -6  11   5  226.78   20.80
   5 -11  -5   22.40   13.10
   4 -11  -5   18.20    9.60
   2  11   5  -10.20    3.70
   2  11   5    0.50    3.20
   3  11   5   11.30    6.10
   3  11   5    0.60    8.60
  14 -12  -5   -8.10   16.40
  12 -12  -5  275.77   45.10
  11 -12  -5   52.69   20.50
  11 -12  -5   64.19   20.40
  10 -12  -5   30.30   18.40
  10 -12  -5  125.49   22.00
   9 -12  -5    9.50   11.00
   9 -12  -5   -4.40    9.00
   8 -12  -5 1077.29   49.80
   8 -12  -5 1081.09   73.59
   7 -12  -5  293.97   21.40
   7 -12  -5  350.56   42.30
   6 -12  -5   68.69   20.20
   5 -12  -5   32.60   19.20
   4 -12  -5  184.08   37.00
  13 -13  -5  140.49   33.70
  11 -13  -5  -11.00   13.60
  11 -13  -5   16.00   13.40
  10 -13  -5  231.88   39.90
  10 -13  -5  248.18   27.30
   9 -13  -5  663.43   39.40
   9 -13  -5  730.73   62.09
   8 -13  -5   -3.60   10.80
   8 -13  -5  -13.00    5.80
   7 -13  -5   11.40   15.90
   6 -13  -5   52.49   18.90
   5 -13  -5  237.68   44.00
   4 -13  -5   -6.60    5.50
  12 -14  -5   27.30   16.90
  11 -14  -5   61.09   20.00
  11 -14  -5   34.40   14.50
  10 -14  -5   -2.40    9.70
   9 -14  -5  230.98   43.50
   9 -14  -5  199.88   19.40
   8 -14  -5   21.60   16.60
   7 -14  -5  108.29   27.60
   5 -14  -5   33.80   21.30
  10 -15  -5   -5.50   12.00
   9 -15  -5  178.38   38.50
   8 -15  -5   43.00   22.50
   7 -15  -5   54.29   25.60
   6 -15  -5   17.40   12.00
   5 -15  -5   18.50   24.30
   5 -15   6   31.00   20.60
   6 -15   6  348.17   55.49
   7 -15   6  -19.80   14.70
   8 -15   6  227.08   41.70
   9 -15   6  111.69   30.20
  10 -15   6   70.49   26.20
   4 -14   6  195.98   40.30
   5 -14   6   14.50   12.30
   6 -14   6  364.46   53.69
   7 -14   6   64.49   21.80
   8 -14   6   58.59    8.50
   8 -14   6   85.89   23.80
   8 -14   6   88.49    8.70
   9 -14   6   28.00   10.10
   9 -14   6   21.60   14.20
  10 -14   6  112.79   18.40
  10 -14   6   81.59   26.40
  10 -14   6  130.89   20.80
  11 -14   6  478.85   50.19
  11 -14   6  309.77   37.50
  12 -14   6  227.48   40.80
   3 -13   6  369.06   46.30
   4 -13   6  173.28   36.00
   5 -13   6  138.69   31.60
   6 -13   6 2086.29  112.19
   7 -13   6  429.86   21.10
   7 -13   6  420.16   21.50
   7 -13   6  431.46   47.20
   8 -13   6 1201.38   54.29
   8 -13   6 1300.87   85.19
   8 -13   6 1287.77   51.09
   9 -13   6  533.15   37.30
   9 -13   6  543.55   34.70
   9 -13   6  507.85   51.09
  10 -13   6  251.37   29.40
  10 -13   6  299.47   45.00
  11 -13   6   12.80   15.50
  11 -13   6   -5.10   10.50
  13 -13   6  -26.00   13.60
   3 -12   6  586.74   56.49
   4 -12   6   10.20    9.30
   5 -12   6  365.86   42.20
   6 -12   6   47.10    7.60
   6 -12   6   59.39   19.90
   6 -12   6   35.30    7.90
   7 -12   6   70.09   20.20
   7 -12   6   66.59   11.60
   8 -12   6  720.23   39.70
   8 -12   6  716.03   58.59
   8 -12   6  734.93   44.50
   9 -12   6 2019.30   89.29
   9 -12   6 2190.08  109.19
  10 -12   6  266.57   41.90
  11 -12   6 1215.18   78.99
  11 -12   6 1128.79   70.69
  12 -12   6   83.99   22.90
  14 -12   6  340.87   41.50
   3 -11   6 1015.30   72.79
   5 -11   6    5.50    3.90
   5 -11   6    2.70   11.10
   5 -11   6    3.60    4.50
   6 -11   6  414.16   24.50
   6 -11   6  473.75   55.29
   6 -11   6  390.56   27.10
   7 -11   6  657.73   40.10
   7 -11   6  547.95   61.99
   8 -11   6  240.78   25.40
   8 -11   6  300.57   35.70
   9 -11   6  142.19   23.70
   9 -11   6  202.18   34.40
  10 -11   6   -2.30   13.90
  10 -11   6   -0.20   10.10
  11 -11   6  941.11   67.29
  12 -11   6  381.56   46.10
  13 -11   6   78.09   21.80
  14 -11   6 1499.95   94.59
   4  10  -6   49.40   15.70
   3  10  -6  246.98   22.10
   2  10  -6  305.87   20.80
   2 -10   6 4137.19   97.99
   3 -10   6  747.63   26.50
   3 -10   6  778.82   59.09
   4 -10   6  183.48   32.80
   4 -10   6  223.88   14.90
   5 -10   6  422.76   24.50
   5 -10   6  436.56   41.10
   6 -10   6 1024.20   52.59
   6 -10   6 1081.49   67.19
   6 -10   6 1128.69   47.70
   7 -10   6   -9.50    6.00
   8 -10   6  -20.50    7.10
   8 -10   6    7.30    6.40
   9 -10   6  456.05   53.69
   9 -10   6  558.44   45.00
  10 -10   6  143.59   27.80
  10 -10   6  156.78   28.30
  11 -10   6   39.50   16.10
  12 -10   6    7.20   13.40
  13 -10   6  346.67   41.50
  15 -10   6  -23.90   19.20
   5   9  -6    1.30   14.60
   4   9  -6  563.64   37.20
   3   9  -6 2332.77   82.59
   2   9  -6  155.58   16.20
   1   9  -6  571.54   28.70
  -1  -9   6  538.95   30.70
   0  -9   6    3.50    5.50
   0  -9   6    5.20    4.60
   1  -9   6  325.97   18.60
   2  -9   6  782.12   30.60
   3  -9   6  164.18   12.90
   3  -9   6  167.48   29.90
   4  -9   6  506.95   26.40
   4  -9   6  456.65   40.70
   5  -9   6 3140.79   95.59
   5  -9   6 3180.48  122.69
   6  -9   6  375.06   26.90
   6  -9   6  397.66   36.60
   7  -9   6 2105.99   95.29
   8  -9   6 1809.92   87.89
   8  -9   6 1845.92   87.09
  -9   9  -6   15.60   13.80
   9  -9   6    0.30    8.70
   9  -9   6   14.00    6.90
  10  -9   6  409.96   40.60
  10  -9   6  382.56   40.10
  11  -9   6  417.36   43.30
  12  -9   6  552.64   49.80
  13  -9   6  139.99   30.00
  14  -9   6   29.30   15.20
  15  -9   6  383.26   47.50
   6   8  -6   59.19   17.00
   5   8  -6 1167.38   61.39
   4   8  -6  712.73   43.20
   3   8  -6  243.28   23.20
  -3  -8   6  260.17   25.70
   2   8  -6   -2.80    4.50
  -2  -8   6   12.60    6.80
  -2  -8   6  -19.20    9.20
   1   8  -6 1790.32   62.19
  -1  -8   6 1758.32   83.79
  -1  -8   6 1737.23   64.79
   0   8  -6 1322.67   48.50
   0  -8   6 1319.97   49.70
   1  -8   6   -2.10    2.80
   2  -8   6 1746.33   56.49
   3  -8   6  126.19   12.00
   3  -8   6   99.79   20.10
   4  -8   6   -4.40    2.20
   4  -8   6   -3.60    2.70
   5  -8   6  433.36   35.90
   5  -8   6  370.56   25.70
   6  -8   6  187.18   23.10
   7  -8   6  507.05   40.30
  -8   8  -6 1366.36   74.99
   8  -8   6 1350.66   71.29
   8  -8   6 1261.97   71.59
  -9   8  -6  338.27   36.40
   9  -8   6  303.37   37.80
   9  -8   6  383.46   36.60
  10  -8   6 4564.44  174.38
  10  -8   6 4889.21  168.28
  11  -8   6 1185.88   72.49
  12  -8   6   31.30   15.70
  13  -8   6  210.48   37.80
  14  -8   6  428.86   46.20
  15  -8   6   39.00   18.10
   6   7  -6  378.76   37.80
   5   7  -6   65.29   19.20
  -5  -7   6   78.39   20.00
   4   7  -6  655.33   41.30
  -4  -7   6  643.94   43.90
   3   7  -6   -4.50    6.00
  -3  -7   6    6.30    9.30
  -3  -7   6    6.40    5.70
   2   7  -6 2100.39   74.39
  -2  -7   6 1848.02  124.99
  -2  -7   6 2171.38   78.89
   1   7  -6  501.65   28.40
  -1  -7   6  456.95   37.40
  -1  -7   6  420.56   27.40
   0   7  -6   18.90    5.90
   0  -7   6   17.70    6.40
   1  -7   6 1248.08   46.10
   2  -7   6  550.64   27.60
   3  -7   6  182.98   15.80
   3  -7   6  172.18   20.90
   4  -7   6  932.41   41.50
   4  -7   6  963.70   52.79
   5  -7   6 4875.81  153.08
   6  -7   6   19.20   10.20
  -7   7  -6   28.70   11.50
   7  -7   6   23.30   10.00
  -8   7  -6    3.00    6.70
   8  -7   6    1.40    4.40
  -9   7  -6  753.62   53.59
   9  -7   6  774.82   52.39
   9  -7   6  755.12   71.19
 -10   7  -6  763.62   59.89
  10  -7   6  724.23   59.69
  10  -7   6  826.32   55.89
  11  -7   6  748.33   55.89
  12  -7   6  414.16   42.60
  13  -7   6 2201.48  111.19
  14  -7   6   84.99   22.60
  15  -7   6  205.88   40.10
   7   6  -6 2003.10  113.19
   6   6  -6   11.20   12.90
  -6  -6   6   76.59   19.70
   5   6  -6  412.36   34.90
  -5  -6   6  413.16   37.50
   4   6  -6 1137.69   56.89
  -4  -6   6 1143.69   67.29
  -4  -6   6 1056.59   57.69
   3   6  -6  313.17   25.90
  -3  -6   6  309.97   31.10
  -3  -6   6  285.17   25.90
   2   6  -6  190.38   17.70
  -2  -6   6  162.38   17.60
  -2  -6   6  136.69   23.80
   1   6  -6   17.30    5.20
  -1  -6   6   12.00    7.40
  -1  -6   6   25.90    7.80
   0   6  -6   76.89   12.10
   0  -6   6   96.49   11.50
   1  -6   6 2375.46   73.49
   2  -6   6  510.65   26.80
   3  -6   6 2397.76   76.19
   3  -6   6 2378.86   87.79
   4  -6   6 2314.47   77.99
  -5   6  -6 1265.07   61.29
   5  -6   6 1226.78   58.09
  -6   6  -6   93.69   18.20
   6  -6   6  101.09   17.90
  -7   6  -6 1152.48   60.99
   7  -6   6 1155.78   58.89
  -8   6  -6 1628.24   78.49
   8  -6   6 1703.13   77.69
  -9   6  -6  182.78   30.30
   9  -6   6  181.28   33.40
   9  -6   6  138.99   25.20
 -10   6  -6  219.18   34.10
  10  -6   6  217.68   36.40
  10  -6   6  221.68   28.00
  11  -6   6   28.70   11.70
  12  -6   6   45.90   16.70
  13  -6   6  392.06   42.50
  14  -6   6   44.40   23.30
  15  -6   6   41.40   16.80
   7   5  -6  349.37   35.70
  -7  -5   6  358.96   37.80
   6   5  -6    3.80   12.60
  -6  -5   6    8.80   10.60
   5   5  -6  443.66   36.00
  -5  -5   6  489.05   39.60
  -5  -5   6  455.85   39.80
   4   5  -6 3078.99  107.89
  -4  -5   6 3120.09  112.69
  -4  -5   6 3068.19  117.49
   3   5  -6  377.36   28.50
  -3  -5   6  400.26   33.10
  -3  -5   6  342.57   28.70
   2   5  -6 4720.93  140.39
  -2  -5   6 4851.71  139.59
  -2  -5   6 4625.74  146.59
   1   5  -6 1258.37   50.69
  -1  -5   6 1301.47   51.69
  -1  -5   6 1256.97   57.29
   0   5  -6  540.85   28.60
   0  -5   6  499.25   27.50
  -1   5  -6  183.08   15.70
   1  -5   6  190.38   15.50
   2  -5   6  513.35   32.30
   2  -5   6  509.55   27.30
   3  -5   6  378.36   24.20
   3  -5   6  377.26   26.40
   4  -5   6 4680.23  136.89
  -5   5  -6  510.35   34.10
   5  -5   6  545.25   33.70
  -6   5  -6 2408.36   90.09
   6  -5   6 2319.67   86.39
  -7   5  -6  515.65   38.00
   7  -5   6  500.85   36.30
  -8   5  -6  142.79   24.00
   8  -5   6  126.59   21.90
  -9   5  -6  457.95   50.19
   9  -5   6  417.66   42.40
   9  -5   6  465.45   38.80
 -10   5  -6  557.64   45.30
  10  -5   6  425.16   39.30
  11  -5   6  393.86   39.90
  12  -5   6   50.99   17.30
  13  -5   6 1273.57   82.19
  14  -5   6   17.70   13.30
  15  -5   6   91.59   26.30
   7   4  -6  707.33   52.39
  -7  -4   6  776.92   57.59
   6   4  -6  188.58   30.10
  -6  -4   6  212.08   32.50
  -6  -4   6  205.98   32.50
   5   4  -6  429.56   35.60
  -5  -4   6  488.45   39.00
  -5  -4   6  413.96   36.10
   4   4  -6   -2.70    5.00
  -4  -4   6   -3.90    6.40
  -4  -4   6    5.50    5.30
   3   4  -6  928.41   46.60
  -3  -4   6  827.52   58.49
  -3  -4   6  886.21   49.40
  -2  -4   6 2252.77   78.19
  -2  -4   6 2146.89   80.39
   1   4  -6 4724.93  129.19
  -1  -4   6 4512.45  128.19
  -1  -4   6 4472.95  131.59
   0   4  -6 1472.25   54.49
   0  -4   6 1555.84   54.89
  -1   4  -6 9168.08  229.18
   1  -4   6 9301.47  228.88
   2  -4   6  145.89   14.00
   2  -4   6  152.48   14.80
   3  -4   6   17.30    5.70
   3  -4   6    7.60    3.90
  -4   4  -6 1536.85   59.79
   4  -4   6 1533.15   57.99
  -5   4  -6  194.38   19.30
   5  -4   6  217.58   19.70
  -6   4  -6  537.65   35.50
   6  -4   6  527.65   34.20
  -7   4  -6  155.58   19.20
   7  -4   6  170.08   19.60
  -8   4  -6    5.80    6.10
   8  -4   6   -1.30    3.40
  -9   4  -6 3040.50  120.09
   9  -4   6 2999.60  130.09
   9  -4   6 3123.19  118.69
 -10   4  -6 1197.68   69.69
  10  -4   6 1005.70   63.29
  11  -4   6  630.54   52.29
  12  -4   6  796.62   62.39
  13  -4   6  531.45   51.79
  14  -4   6   99.49   25.20
  10   3  -6  392.06   45.50
   9   3  -6  641.44   54.69
  -9  -3   6  594.04   55.19
   8   3  -6 1065.09   69.99
  -8  -3   6 1023.60   70.29
   7   3  -6  871.91   58.59
   7   3  -6  845.72   56.79
  -7  -3   6  721.83   52.49
  -7  -3   6  786.22   56.99
   6   3  -6  146.09   26.00
   6   3  -6  189.28   24.30
  -6  -3   6  208.08   26.20
  -6  -3   6  169.78   29.20
   5   3  -6  114.69   22.30
   5   3  -6  123.79   21.90
  -5  -3   6  115.19   21.50
  -5  -3   6  133.19   23.90
   4   3  -6  150.18   18.70
  -4  -3   6  152.18   19.00
  -4  -3   6  166.38   20.50
   3   3  -6 2365.36   85.29
  -3  -3   6 2509.45   88.59
  -3  -3   6 2473.15   87.69
   2   3  -6  374.26   25.90
  -2  -3   6  375.76   25.80
  -2  -3   6  370.56   25.90
   1   3  -6    5.90    4.00
  -1  -3   6   17.70    5.40
  -1  -3   6   11.10    5.30
   0   3  -6  944.61   40.50
   0  -3   6  983.60   41.00
  -1   3  -6 4412.66  122.59
   1  -3   6 4531.05  122.69
   1  -3   6 4373.26  117.89
   2  -3   6  116.99   12.50
   2  -3   6  122.99   11.30
  -3   3  -6  932.91   38.90
   3  -3   6  921.11   37.70
  -4   3  -6 8982.20  226.18
   4  -3   6 8871.81  224.28
  -5   3  -6  474.25   46.50
   5  -3   6  479.25   30.00
  -6   3  -6 2357.86   85.89
   6  -3   6 2249.87   83.79
  -7   3  -6  868.71   49.80
   7  -3   6  804.92   46.90
  -8   3  -6  399.56   34.30
   8  -3   6  391.16   34.60
  -9   3  -6  355.56   35.10
   9  -3   6  366.66   35.10
   9  -3   6  300.17   37.70
  10  -3   6    2.10    5.70
  11  -3   6  235.98   36.70
  12  -3   6 2352.86  116.19
  13  -3   6  214.68   39.70
  14  -3   6  486.05   52.49
  12   2  -6  249.88   43.60
  11   2  -6  107.89   29.20
  10   2  -6   35.80   17.30
 -10  -2   6    9.20   13.10
   9   2  -6  560.24   49.60
  -9  -2   6  444.06   47.20
   8   2  -6 4957.30  171.48
   8   2  -6 4534.85  169.18
  -8  -2   6 4514.55  165.98
  -8  -2   6 4956.00  176.38
   7   2  -6  720.53   55.49
   7   2  -6  760.32   53.19
  -7  -2   6  748.03   54.59
   6   2  -6 1709.03   81.29
   6   2  -6 1718.43   80.09
  -6  -2   6 1798.42   84.49
  -6  -2   6 1775.22   80.09
   5   2  -6  591.04   40.10
   5   2  -6  517.05   37.70
  -5  -2   6  497.55   36.60
  -5  -2   6  566.54   40.30
   4   2  -6  463.85   33.70
   4   2  -6  512.15   34.40
  -4  -2   6  545.45   34.90
  -4  -2   6  507.65   35.50
   3   2  -6  502.05   30.20
   3   2  -6  525.05   32.70
  -3  -2   6  479.55   31.50
  -3  -2   6  474.55   29.90
   2   2  -6  169.38   16.70
  -2  -2   6  186.78   15.60
  -2  -2   6  171.68   16.80
   1   2  -6  110.39   12.30
  -1  -2   6  112.59   12.90
  -1  -2   6  128.49   11.20
   0   2  -6 1294.67   49.99
   0  -2   6 1405.26   51.39
  -1   2  -6  446.86   25.60
   1  -2   6  430.16   18.30
   1  -2   6  420.86   24.80
  -2   2  -6 1263.77   41.80
   2  -2   6 1280.47   41.00
   2  -2   6 1282.17   50.19
  -3   2  -6 4392.86  118.89
   3  -2   6 4529.95  118.99
  -4   2  -6  160.28   15.30
   4  -2   6  176.48   16.00
  -5   2  -6  362.26   27.40
   5  -2   6  351.46   25.90
  -6   2  -6 2312.97   86.69
   6  -2   6 2298.27   86.09
  -7   2  -6 4793.12  151.58
   7  -2   6 4674.13  150.48
  -8   2  -6  183.38   28.10
   8  -2   6  189.58   23.80
  -9   2  -6 1850.61   90.79
   9  -2   6 2128.19   95.19
   9  -2   6 2006.90  101.99
  10  -2   6  -22.30    8.10
  11  -2   6  123.59   28.00
  12  -2   6  231.78   38.30
  13  -2   6  -14.80    6.40
  14  -2   6  144.89   36.10
  12   1  -6   36.30   18.60
  11   1  -6  539.65   52.49
 -11  -1   6  461.95   52.49
  10   1  -6   25.30   17.30
 -10  -1   6    3.50   14.00
   9   1  -6  420.36   41.10
  -9  -1   6  508.65   54.89
   8   1  -6  321.67   34.20
   8   1  -6  330.67   36.00
  -8  -1   6  342.77   34.70
  -8  -1   6  393.86   39.80
   7   1  -6    3.40    5.90
   7   1  -6   12.80   11.60
  -7  -1   6    9.40    7.50
  -7  -1   6  -15.50    6.00
   6   1  -6 1095.99   58.49
   6   1  -6 1153.88   62.79
  -6  -1   6 1209.68   65.39
  -6  -1   6 1161.48   59.39
   5   1  -6 2424.66   88.99
   5   1  -6 2277.77   91.19
  -5  -1   6 2609.34   90.39
  -5  -1   6 2167.78   90.99
   4   1  -6  179.48   18.40
   4   1  -6  226.38   22.10
  -4  -1   6  193.68   21.40
  -4  -1   6  208.28   19.20
   3   1  -6 9000.50  232.48
   3   1  -6 9157.08  224.88
  -3  -1   6 8976.60  233.08
  -3  -1   6 8579.74  222.18
   2   1  -6 4340.07  113.19
   2   1  -6 4377.26  124.19
  -2  -1   6 4176.38  112.09
  -2  -1   6 4278.57  123.59
   1   1  -6  457.75   26.20
  -1  -1   6  461.65   26.60
  -1  -1   6  438.36   17.80
   0   1  -6 1543.35   54.19
   0  -1   6 1446.16   36.40
   0  -1   6 1410.26   36.10
   0  -1   6 1514.45   54.09
  -1   1  -6 1421.76   38.90
   1  -1   6 1454.15   53.19
   1  -1   6 1441.36   39.00
  -2   1  -6  418.36   19.40
   2  -1   6  419.86   19.80
   2  -1   6  419.46   26.20
  -3   1  -6  120.19   11.90
   3  -1   6  125.19   12.00
  -4   1  -6   16.70    5.60
   4  -1   6    7.90    4.70
  -5   1  -6 4757.62  138.29
   5  -1   6 4430.76  136.49
  -6   1  -6 1302.37   61.29
   6  -1   6 1227.38   60.19
  -7   1  -6    9.30    5.70
   7  -1   6   23.40   10.10
  -8   1  -6  502.65   44.10
   8  -1   6  522.55   42.50
  -9   1  -6 1670.93   86.49
   9  -1   6 1736.03   87.79
  10  -1   6  438.56   43.80
  11  -1   6   14.50   12.70
  12  -1   6 1091.89   77.69
  13  -1   6   48.40   17.70
  13   0  -6   33.10   15.60
  12   0  -6  105.29   27.40
  11   0  -6  932.61   67.79
 -11   0   6  988.70   76.19
  10   0  -6  174.58   32.40
 -10   0   6  157.68   33.10
   9   0  -6   -1.80    4.50
  -9   0   6   16.50   11.90
  -9   0   6    1.40    9.40
   8   0  -6 1298.27   69.79
   8   0  -6 1239.68   73.19
  -8   0   6 1361.16   71.39
  -8   0   6 1247.98   75.09
   7   0  -6   39.20   11.70
   7   0  -6   25.00    9.70
  -7   0   6   18.30    8.60
  -7   0   6   27.20   11.60
   6   0  -6  114.29   19.20
   6   0  -6  116.79   21.60
  -6   0   6  104.69   21.30
  -6   0   6  118.49   20.00
   5   0  -6  535.25   33.90
   5   0  -6  569.94   38.50
  -5   0   6  526.95   38.00
  -5   0   6  543.85   33.80
   4   0  -6 1524.45   58.89
   4   0  -6 1602.54   66.69
  -4   0   6 1646.44   59.49
   3   0  -6  893.41   37.40
  -3   0   6  986.80   46.00
  -3   0   6  990.20   37.70
   2   0  -6 1408.26   53.19
   2   0  -6 1299.57   41.00
  -2   0   6 1269.67   51.59
  -2   0   6 1279.97   39.80
   1   0  -6 1497.15   54.59
   1   0  -6 1457.15   37.60
  -1   0   6 1510.95   37.40
  -1   0   6 1444.56   54.39
   0   0  -6 7635.44  189.48
   0   0   6 7187.08  188.48
  -1   0  -6 1579.74   43.70
   1   0   6 1484.95   43.40
   1   0   6 1509.95   55.39
  -2   0  -6 1286.07   44.10
   2   0   6 1274.87   44.60
  -3   0  -6  969.30   41.60
   3   0   6 1006.70   43.10
  -4   0  -6 1580.54   61.89
   4   0   6 1495.95   61.79
  -5   0  -6  493.55   34.20
   5   0   6  581.54   37.30
  -6   0  -6  122.19   20.60
   6   0   6  108.89   20.10
  -7   0  -6    5.70    8.10
   7   0   6   21.30   10.10
  -8   0  -6 1424.66   75.89
   8   0   6 1350.16   79.29
   8   0   6 1268.87   72.29
   9   0   6    7.20    9.70
  10   0   6  117.59   28.50
  11   0   6  893.51   67.69
  12   0   6  107.59   27.00
  13   0   6   23.70   15.80
  13  -1  -6   75.19   26.10
  12  -1  -6 1075.19   76.59
 -12   1   6 1190.38   86.99
  11  -1  -6    1.30    7.20
 -11   1   6  -10.70   10.10
  10  -1  -6  612.84   53.49
 -10   1   6  542.15   52.09
   9  -1  -6 1804.22   87.79
  -9   1   6 1690.13   92.69
  -9   1   6 1884.21   88.99
   8  -1  -6  493.05   42.50
   8  -1  -6  484.55   39.40
  -8   1   6  524.85   40.50
  -8   1   6  458.05   43.30
   7  -1  -6   10.90    7.20
   7  -1  -6   11.10    8.50
  -7   1   6   12.00    8.90
  -7   1   6   13.90    7.30
   6  -1  -6 1241.08   57.69
   6  -1  -6 1188.08   62.59
  -6   1   6 1291.97   65.79
  -6   1   6 1249.57   57.19
   5  -1  -6 4770.12  145.69
   5  -1  -6 4794.82  134.99
  -5   1   6 4439.76  133.19
  -5   1   6 4468.65  144.29
   4  -1  -6    4.60    4.00
   4  -1  -6   11.80    5.70
  -4   1   6   13.80    5.30
  -4   1   6    4.20    4.90
   3  -1  -6  133.19   11.50
   3  -1  -6  117.99   14.80
  -3   1   6  110.39   14.00
  -3   1   6  130.29   11.40
   2  -1  -6  413.56   18.10
   2  -1  -6  436.46   26.50
  -2   1   6  419.46   26.20
  -2   1   6  460.95   19.40
   1  -1  -6 1431.56   39.90
   1  -1  -6 1415.96   52.99
  -1   1   6 1508.25   54.39
   0  -1  -6 1461.55   53.59
   0  -1  -6 1468.75   42.60
   0   1   6 1516.05   54.49
  -1  -1  -6  431.76   21.30
   1   1   6  396.06   24.80
  -2  -1  -6 4502.05  122.79
   2   1   6 4422.56  122.59
  -3  -1  -6 9150.88  234.38
   3   1   6 9109.19  234.98
  -4  -1  -6  235.88   21.80
   4   1   6  196.98   20.70
  -5  -1  -6 2562.14   94.89
   5   1   6 2350.86   93.29
  -6  -1  -6 1101.69   60.29
   6   1   6 1133.29   62.09
  -7  -1  -6   10.00    6.00
   7   1   6   -9.60    5.50
  -8  -1  -6  319.57   33.80
   8   1   6  351.86   36.40
   8   1   6  310.27   35.90
   9   1   6  488.45   46.00
  10   1   6   71.29   22.10
  11   1   6  518.35   51.89
  14  -2  -6  257.47   44.90
  13  -2  -6   -1.60   15.50
  12  -2  -6  244.78   39.00
 -12   2   6  290.77   49.00
  11  -2  -6  130.09   28.40
 -11   2   6  174.78   36.80
  10  -2  -6   14.70    9.10
 -10   2   6    1.80   10.40
 -10   2   6   -8.40    7.20
   9  -2  -6 1870.61   96.39
   9  -2  -6 2158.58   92.99
  -9   2   6 1977.90  100.69
  -9   2   6 1777.12   87.29
   8  -2  -6  185.78   31.00
   8  -2  -6  137.39   23.40
  -8   2   6  186.48   23.30
  -8   2   6  144.29   27.70
   7  -2  -6 4513.45  155.48
   7  -2  -6 4688.53  145.69
  -7   2   6 4791.92  147.09
  -7   2   6 4628.34  157.58
   6  -2  -6 2313.67   93.19
  -6   2   6 2450.75   96.59
  -6   2   6 2352.26   85.49
   5  -2  -6  362.86   25.10
   5  -2  -6  360.06   29.30
  -5   2   6  419.96   32.30
  -5   2   6  384.76   26.00
   4  -2  -6  141.29   13.50
   4  -2  -6  133.09   16.00
  -4   2   6  133.79   16.10
  -4   2   6  137.99   13.70
   3  -2  -6 4279.17  125.99
   3  -2  -6 4563.94  115.79
  -3   2   6 4310.17  116.39
  -3   2   6 4262.87  126.29
   2  -2  -6 1290.87   42.30
   2  -2  -6 1278.47   50.19
  -2   2   6 1230.88   49.80
   1  -2  -6  435.56   25.20
  -1   2   6  421.06   25.40
   0  -2  -6 1217.28   47.80
   0   2   6 1281.77   48.90
  -1  -2  -6   99.29   11.10
   1   2   6  103.99   12.20
  -2  -2  -6  131.99   14.90
  -3  -2  -6  499.55   33.00
   3   2   6  445.76   31.30
  -4  -2  -6  536.05   36.70
   4   2   6  523.95   37.30
  -5  -2  -6  478.35   37.30
   5   2   6  576.24   41.70
  -6  -2  -6 1787.02   83.69
   6   2   6 1739.63   84.49
  -7  -2  -6  800.32   55.89
   7   2   6  833.42   58.39
   7   2   6  739.23   54.79
   8   2   6 3914.01  155.48
   9   2   6  501.45   48.60
  10   2   6   21.50   13.60
  11   2   6   80.99   24.40
  12   2   6  353.56   44.90
  14  -3  -6  286.87   58.39
  13  -3  -6  245.38   42.20
 -13   3   6  304.17   50.79
  12  -3  -6 2193.68  110.19
 -12   3   6 2352.36  125.59
  11  -3  -6  245.98   37.40
 -11   3   6  235.48   42.50
  10  -3  -6    9.80    9.50
 -10   3   6   15.40   10.20
   9  -3  -6  338.67   32.70
   9  -3  -6  290.47   34.60
  -9   3   6  300.77   32.70
  -9   3   6  351.56   38.10
   8  -3  -6  373.16   32.20
   8  -3  -6  382.56   36.30
  -8   3   6  389.06   33.10
  -8   3   6  451.15   40.70
   7  -3  -6  983.30   50.79
   7  -3  -6  945.11   56.39
  -7   3   6  914.01   50.29
  -7   3   6  908.51   56.09
   6  -3  -6 2472.35   94.29
  -6   3   6 2363.96   94.39
  -6   3   6 2306.47   85.29
   5  -3  -6  451.35   28.30
   5  -3  -6  491.75   33.50
  -5   3   6  446.76   33.00
  -5   3   6  460.15   29.40
   4  -3  -6 9126.19  233.28
   4  -3  -6 8778.02  223.58
  -4   3   6 8857.21  226.18
  -4   3   6 8936.91  234.18
   3  -3  -6  870.41   41.50
   3  -3  -6  936.21   38.70
  -3   3   6  969.30   43.80
   2  -3  -6  135.59   12.90
   2  -3  -6  106.09   12.20
  -2   3   6  140.19   14.00
   1  -3  -6 4094.49  116.39
  -1   3   6 4286.37  118.49
   0   3   6  980.20   41.70
  -1  -3  -6    1.90    3.80
   1   3   6   14.60    5.60
  -2  -3  -6  373.16   27.60
  -3  -3  -6 2487.05   92.99
  -4  -3  -6  141.49   23.10
  -5  -3  -6  145.19   24.90
   5   3   6  124.39   24.40
  -6  -3  -6  176.58   29.70
   6   3   6  149.49   27.70
   7   3   6  843.62   60.59
   7   3   6  793.62   58.29
   8   3   6  942.71   68.39
   9   3   6  573.14   53.29
  10   3   6  404.56   48.20
  11   3   6 1443.16   96.89
  14  -4  -6   56.79   25.00
  13  -4  -6  586.74   53.89
 -13   4   6  629.94   63.39
  12  -4  -6  741.93   58.29
 -12   4   6  709.63   63.49
  11  -4  -6  729.93   56.79
 -11   4   6  608.44   56.69
  10  -4  -6 1089.39   64.29
 -10   4   6 1078.79   73.19
 -10   4   6 1050.29   64.59
   9  -4  -6 3221.08  128.59
   9  -4  -6 3176.98  117.89
  -9   4   6 2863.51  126.59
  -9   4   6 3155.38  119.79
   8  -4  -6   17.40    7.80
   8  -4  -6   16.20    6.60
  -8   4   6   -1.30    6.20
  -8   4   6    7.10    5.60
   7  -4  -6  171.48   21.10
   7  -4  -6  196.58   21.80
  -7   4   6  146.59   24.70
  -7   4   6  138.79   21.70
   6  -4  -6  459.55   34.90
   6  -4  -6  432.46   30.50
  -6   4   6  466.25   36.00
  -6   4   6  497.15   33.70
   5  -4  -6  219.58   19.70
   5  -4  -6  191.78   20.20
  -5   4   6  236.48   23.00
  -5   4   6  218.38   20.80
   4  -4  -6 1550.94   60.79
   4  -4  -6 1497.05   58.19
  -4   4   6 1493.45   60.89
  -4   4   6 1442.96   60.79
   3  -4  -6   14.70    5.70
   3  -4  -6   11.40    5.10
  -3   4   6    4.90    3.80
   2  -4  -6  175.48   15.70
  -2   4   6  141.19   14.40
   1  -4  -6 8973.90  223.88
  -1   4   6 8994.10  224.98
   0   4   6 1543.45   56.49
  -1  -4  -6 4781.92  140.29
   1   4   6 4562.64  131.39
  -2  -4  -6 2311.67   88.19
  -3  -4  -6  941.81   53.49
  -4  -4  -6    9.30    6.40
  -5  -4  -6  467.85   41.10
  -6  -4  -6  208.48   40.20
   6   4   6  193.98   30.80
   7   4   6  621.64   51.39
  15  -5  -6   89.99   25.20
  14  -5  -6   27.30   12.70
  13  -5  -6 1224.18   79.29
 -13   5   6 1129.29   86.29
  12  -5  -6   55.39   19.10
 -12   5   6   79.69   24.90
 -11   5   6  476.15   48.60
  10  -5  -6  509.95   42.30
 -10   5   6  428.66   39.50
 -10   5   6  440.86   45.80
   9  -5  -6  384.06   38.50
   9  -5  -6  523.15   40.20
  -9   5   6  412.36   37.60
  -9   5   6  479.25   45.00
   8  -5  -6  118.79   21.40
   8  -5  -6  131.69   24.00
  -8   5   6  114.89   21.30
  -8   5   6  133.39   26.30
   7  -5  -6  530.95   39.10
   7  -5  -6  503.35   35.50
  -7   5   6  581.04   42.20
  -7   5   6  529.35   37.90
   6  -5  -6 2262.97   83.89
   6  -5  -6 2187.68   85.79
  -6   5   6 2239.68   86.69
  -6   5   6 2200.08   88.79
   5  -5  -6  498.55   32.70
  -5   5   6  535.75   36.20
   4  -5  -6 4733.73  138.69
   4  -5  -6 4587.54  138.39
  -4   5   6 4653.73  136.59
   3  -5  -6  392.96   28.90
   3  -5  -6  386.36   24.40
  -3   5   6  371.16   25.00
   2  -5  -6  531.95   28.20
  -2   5   6  506.15   28.60
  -1   5   6  184.28   16.10
   0   5   6  530.25   29.20
  -1  -5  -6 1253.07   59.99
   1   5   6 1197.08   50.19
  -2  -5  -6 4673.63  151.58
   2   5   6 4731.13  138.69
  -3  -5  -6  379.26   34.60
  -4  -5  -6 3399.16  130.59
  -5  -5  -6  479.25   46.10
   5   5   6  475.05   40.80
   6   5   6    2.10   12.20
   7   5   6  426.96   41.30
  15  -6  -6   69.69   23.50
  14  -6  -6   71.09   22.40
  13  -6  -6  409.16   42.80
 -13   6   6  345.87   44.10
  12  -6  -6   58.79   18.10
 -12   6   6   20.10   17.60
 -11   6   6   20.60   12.80
  10  -6  -6  212.28   35.70
  10  -6  -6  250.87   28.70
 -10   6   6  210.08   37.00
 -10   6   6  186.28   29.60
   9  -6  -6  171.98   27.50
   9  -6  -6  171.38   29.00
  -9   6   6  134.59   31.60
  -9   6   6  138.39   27.60
   8  -6  -6 1649.04   76.59
   8  -6  -6 1807.92   83.19
  -8   6   6 1820.52   86.69
  -8   6   6 1729.43   81.39
   7  -6  -6 1170.58   59.89
   7  -6  -6 1110.79   57.89
  -7   6   6 1091.79   60.29
  -7   6   6 1199.48   63.49
   6  -6  -6   73.09   15.30
   6  -6  -6  112.89   19.00
  -6   6   6   82.59   17.30
  -6   6   6   71.79   16.60
   5  -6  -6 1248.08   54.69
   5  -6  -6 1255.17   59.29
  -5   6   6 1144.79   58.99
   4  -6  -6 1907.11   84.19
   4  -6  -6 2269.37   85.59
  -4   6   6 2275.27   78.39
   3  -6  -6 2290.47   90.79
   3  -6  -6 2419.26   77.29
  -3   6   6 2411.16   79.19
   2  -6  -6  485.45   26.80
  -2   6   6  447.06   26.50
  -1   6   6 2373.66   75.89
   0   6   6   96.29   11.90
  -1  -6  -6   12.30   10.20
   1   6   6   14.40    6.30
  -2  -6  -6  171.68   26.90
   2   6   6  180.68   18.20
  -3  -6  -6  379.76   36.60
  -4  -6  -6 1043.40   84.69
   4   6   6 1183.18   63.49
   5   6   6  431.66   38.10
   6   6   6   69.99   18.40
  15  -7  -6  205.48   38.80
  14  -7  -6   72.59   24.40
  13  -7  -6 2308.97  111.79
 -13   7   6 2074.69  120.49
  12  -7  -6  393.16   40.10
 -12   7   6  448.16   50.59
  11  -7  -6  718.73   53.69
 -11   7   6  770.02   62.19
  10  -7  -6  845.42   56.19
  10  -7  -6  775.12   55.79
 -10   7   6  775.42   60.19
 -10   7   6  821.32   58.49
   9  -7  -6  703.53   49.40
   9  -7  -6  769.12   52.69
  -9   7   6  896.71   60.39
  -9   7   6  792.92   54.69
   8  -7  -6   12.10    9.20
   8  -7  -6   11.10    6.40
  -8   7   6    7.40    7.50
   7  -7  -6   20.90   10.50
   7  -7  -6   26.40    9.80
  -7   7   6   30.10   12.70
  -7   7   6   28.50   11.90
   6  -7  -6   21.50    8.80
   6  -7  -6   15.20    7.60
  -6   7   6   12.00    6.50
   5  -7  -6 4387.06  131.99
   5  -7  -6 4704.73  148.99
  -5   7   6 4510.45  137.99
   4  -7  -6  913.41   53.49
   4  -7  -6  923.61   41.90
  -4   7   6  914.31   43.90
   3  -7  -6  181.48   15.90
  -3   7   6  187.88   17.10
  -2   7   6  528.35   28.60
  -1   7   6 1091.79   44.00
   0   7   6   33.10    7.50
   1   7   6  445.46   27.70
  -2  -7  -6 2165.08   98.29
   2   7   6 2199.08   79.09
   3   7   6    1.20    8.10
   3   7   6    5.60    6.10
   4   7   6  638.14   46.10
   5   7   6   16.40   15.50
   6   7   6  380.26   39.70
  15  -8  -6  -23.90   15.10
  14  -8  -6  461.65   48.00
  13  -8  -6  163.08   32.00
 -13   8   6  180.78   37.30
  12  -8  -6    4.60    6.70
 -12   8   6    9.30   13.70
  11  -8  -6 1095.79   68.49
 -11   8   6 1042.70   74.19
  10  -8  -6 4478.25  161.38
  10  -8  -6 4540.85  159.68
 -10   8   6 4576.54  169.18
   9  -8  -6  286.97   32.10
  -9   8   6  333.47   36.50
  -9   8   6  280.37   32.70
   8  -8  -6 1302.57   70.09
   8  -8  -6 1369.46   67.29
  -8   8   6 1333.87   71.69
   7  -8  -6  458.15   39.00
   7  -8  -6  469.05   34.30
  -7   8   6  482.05   38.30
   6  -8  -6  190.58   23.80
   6  -8  -6  183.58   19.30
  -6   8   6  193.48   22.00
   5  -8  -6  368.26   25.50
   5  -8  -6  403.06   35.50
  -5   8   6  340.57   27.00
   4  -8  -6    5.80    4.50
   4  -8  -6    7.30    7.30
  -4   8   6   11.70    5.50
   3  -8  -6  143.19   13.30
  -3   8   6   94.69   11.50
  -2   8   6 1735.73   59.89
  -1   8   6    1.20    2.90
   0   8   6 1320.67   50.49
  -1  -8  -6 1648.34   84.99
   1   8   6 1807.22   64.09
   2   8   6    3.60    7.30
   2   8   6    5.30    5.00
   3   8   6  254.37   24.50
   3   8   6  265.17   26.70
   4   8   6  817.52   48.40
   4   8   6  676.73   48.00
   5   8   6 1177.38   67.69
   6   8   6   54.99   25.20
  15  -9  -6  350.46   43.20
  14  -9  -6   22.00   11.30
  13  -9  -6  139.69   28.90
 -13   9   6   68.99   24.80
  12  -9  -6  554.24   49.90
 -12   9   6  580.44   55.79
  11  -9  -6  483.75   44.40
  10  -9  -6  392.76   37.60
  10  -9  -6  321.67   35.60
 -10   9   6  389.76   41.20
   9  -9  -6    7.90    8.10
   9  -9  -6   25.20   12.30
  -9   9   6   -8.30    6.50
   8  -9  -6 1819.12   87.69
   8  -9  -6 1689.33   75.79
  -8   9   6 1794.02   84.29
   7  -9  -6 2122.89   96.39
   7  -9  -6 2090.39   81.19
  -7   9   6 2064.19   87.29
   6  -9  -6  319.87   35.20
   6  -9  -6  359.16   26.20
  -6   9   6  346.07   29.10
   5  -9  -6 3228.28  126.49
  -5   9   6 3059.09  102.49
   4  -9  -6  458.75   42.60
   4  -9  -6  476.25   26.60
  -4   9   6  492.95   29.50
  -3   9   6  151.38   14.10
  -2   9   6  765.02   33.60
  -1   9   6  315.97   19.90
   0   9   6    1.60    4.20
   1   9   6  542.45   30.20
   1   9   6  554.94   33.80
   2   9   6  147.69   21.70
   2   9   6  138.39   16.20
   3   9   6 2213.88   87.69
   3   9   6 2186.78   81.49
   4   9   6  490.45   38.70
   4   9   6  547.35   38.10
   5   9   6   -2.30    9.40
   5   9   6  -15.50   16.00
  15 -10  -6   14.70   17.20
  14 -10  -6  161.28   41.80
  13 -10  -6  395.36   43.10
  12 -10  -6   31.90   15.30
 -12  10   6   21.70   16.40
  11 -10  -6   75.29   20.90
 -11  10   6   32.30   19.90
  10 -10  -6  131.19   24.20
  10 -10  -6  149.39   29.50
 -10  10   6  188.38   32.20
   9 -10  -6  600.34   42.70
   9 -10  -6  473.95   45.20
  -9  10   6  574.54   46.00
   8 -10  -6    8.40    8.20
   8 -10  -6   -0.10    6.30
  -8  10   6    0.70    5.50
   7 -10  -6   -5.30    6.10
   7 -10  -6   -7.00    2.70
  -7  10   6    6.00    6.20
   6 -10  -6 1093.19   48.90
   6 -10  -6 1154.68   70.79
  -6  10   6 1113.29   54.69
   5 -10  -6  450.15   26.60
   5 -10  -6  441.26   42.80
  -5  10   6  416.06   28.90
   4 -10  -6  178.48   32.30
  -4  10   6  202.58   17.60
  -3  10   6  790.82   34.10
  -2  10   6 4372.56  113.89
  -1  10   6  408.26   20.50
   0  10   6  141.59   13.70
   0  10   6  122.79   11.40
   1  10   6   -5.10    4.40
   1  10   6    8.20    8.00
   2  10   6  291.97   21.80
   3  10   6  234.98   24.20
   3  10   6  236.58   25.40
   4  10   6   66.79   15.20
   4  10   6   92.29   20.80
   5  10   6   51.29   17.70
  13 -11  -6  120.29   29.50
  12 -11  -6  531.75   50.09
 -12  11   6  621.24   56.79
  11 -11  -6  897.51   66.59
 -11  11   6  928.21   67.59
  10 -11  -6   14.40   10.40
  10 -11  -6    0.70   10.00
 -10  11   6   -5.60    8.80
   9 -11  -6  133.89   29.10
   9 -11  -6   99.09   21.30
  -9  11   6  154.58   27.10
   8 -11  -6  240.68   38.80
   8 -11  -6  239.38   24.50
  -8  11   6  262.77   28.80
   7 -11  -6  665.43   54.99
   7 -11  -6  695.13   37.90
  -7  11   6  713.83   43.60
   6 -11  -6  442.36   45.90
  -6  11   6  392.96   29.30
   5 -11  -6   13.60   12.80
  -5  11   6    1.30    5.30
   4 -11  -6  770.82   62.49
  -4  11   6  688.93   30.30
  -3  11   6 1092.89   31.20
   1  11   6 1090.59   34.00
   1  11   6 1014.70   34.10
   2  11   6    9.00    4.70
   2  11   6    0.80    7.40
   3  11   6   12.60    7.90
  14 -12  -6  259.17   43.30
  12 -12  -6  148.79   30.90
  11 -12  -6 1058.59   74.29
  10 -12  -6  312.37   31.80
  10 -12  -6  321.47   40.90
 -10  12   6  331.47   37.00
   9 -12  -6 2517.65  119.39
   9 -12  -6 2248.58   89.19
  -9  12   6 2331.07  100.59
   8 -12  -6  721.33   59.49
   8 -12  -6  763.32   41.40
  -8  12   6  785.82   49.70
   7 -12  -6   49.50   19.40
   7 -12  -6   55.69   11.90
  -7  12   6   76.29   15.60
   6 -12  -6   53.59   19.50
   5 -12  -6  347.37   42.70
   4 -12  -6   10.70   10.20
  13 -13  -6   49.90   23.30
  12 -13  -6   15.60   15.20
  11 -13  -6   -3.60   11.60
  11 -13  -6   -9.00   16.90
  10 -13  -6  282.77   45.30
  10 -13  -6  258.27   29.00
   9 -13  -6  555.14   36.60
   9 -13  -6  576.24   54.89
   8 -13  -6 1181.58   82.49
   8 -13  -6 1230.98   51.59
   7 -13  -6  488.95   51.59
   7 -13  -6  412.36   22.90
   6 -13  -6 2251.87  119.59
   5 -13  -6  156.08   34.50
   4 -13  -6   91.49   28.50
  12 -14  -6  199.48   39.60
  11 -14  -6  408.06   58.79
  11 -14  -6  376.56   35.90
  10 -14  -6  100.39   17.30
  10 -14  -6  126.29   41.50
   9 -14  -6    7.50    7.60
   9 -14  -6  -27.90   15.20
   8 -14  -6   53.69    9.60
   8 -14  -6   46.00   21.00
   7 -14  -6   63.09   24.70
   6 -14  -6  409.06   51.09
   5 -14  -6   41.50   23.80
   4 -14  -6  203.98   40.40
  10 -15  -6   85.99   27.50
   9 -15  -6   34.90   27.70
   8 -15  -6  252.37   45.80
   7 -15  -6   38.30   24.30
   6 -15  -6  222.38   44.20
   5 -15  -6   -2.40   21.80
   7 -15   7   98.69   25.80
   8 -15   7   15.90   14.00
   4 -14   7  278.77   48.50
   5 -14   7   19.90   16.00
   6 -14   7   21.30   19.00
   7 -14   7  111.09   28.50
   8 -14   7   10.10    6.10
   8 -14   7    3.40   10.40
   8 -14   7    4.20    5.10
   9 -14   7  215.38   22.50
   9 -14   7  180.98   38.10
   9 -14   7  190.18   19.50
  10 -14   7  -18.30   13.10
  10 -14   7   -6.00   14.20
  10 -14   7    8.40    9.90
  11 -14   7    5.50   17.40
  11 -14   7   19.80   14.70
   3 -13   7   75.49   23.30
   4 -13   7   19.70   16.60
   5 -13   7  157.28   34.80
   6 -13   7   46.30   19.80
   7 -13   7  -11.30    8.30
   7 -13   7   -0.70    4.30
   7 -13   7    9.70    5.90
   8 -13   7   25.30   18.00
   8 -13   7   11.40   10.10
   9 -13   7  534.65   52.39
   9 -13   7  551.84   36.60
   9 -13   7  537.35   39.90
  10 -13   7  156.58   37.50
  10 -13   7  191.68   24.60
  10 -13   7  234.88   41.80
  11 -13   7  -15.60    9.90
  13 -13   7  134.59   33.10
   3 -12   7   17.20   13.30
   4 -12   7  156.18   33.30
   5 -12   7   11.80    4.60
   5 -12   7   30.40   16.80
   5 -12   7   16.90    4.00
   6 -12   7  165.58   14.70
   6 -12   7  212.08   37.60
   6 -12   7  170.08   16.00
   7 -12   7  251.47   39.10
   7 -12   7  277.47   24.80
   7 -12   7  283.37   22.00
   8 -12   7  578.94   52.29
   8 -12   7  696.83   39.40
   8 -12   7  644.14   43.10
   9 -12   7    2.30    7.80
   9 -12   7   29.00   14.70
   9 -12   7   -4.50    6.40
  10 -12   7  107.59   23.40
  10 -12   7   75.19   21.80
  11 -12   7   22.00   15.60
  12 -12   7  244.28   39.70
   3 -11   7  764.52   28.00
   3 -11   7  845.22   64.59
   4 -11   7    6.00    3.90
   5 -11   7   -7.00    6.00
   5 -11   7    4.70    6.20
   5 -11   7   -1.40    4.10
   6 -11   7   60.09   16.00
   6 -11   7   17.40   11.30
   6 -11   7   29.90    8.50
   7 -11   7   27.60   12.80
   7 -11   7   -4.10    7.90
   8 -11   7  482.05   45.70
   8 -11   7  536.25   36.40
   8 -11   7  490.65   40.20
   9 -11   7  235.08   37.30
   9 -11   7  246.18   30.40
  10 -11   7  134.69   26.30
  11 -11   7  158.08   31.70
  12 -11   7   10.70   12.00
  13 -11   7   76.59   22.60
  14 -11   7   68.59   24.90
   4  10  -7   24.60   14.10
   3  10  -7  216.68   21.70
   0 -10   7   27.40    7.20
   1 -10   7  293.57   17.80
   2 -10   7   21.60    5.70
   3 -10   7  888.81   62.79
   3 -10   7  845.12   33.90
   4 -10   7  188.48   32.80
   4 -10   7  211.88   16.30
   5 -10   7  990.80   63.69
   5 -10   7  953.90   42.30
   6 -10   7  192.78   31.60
   7 -10   7   58.89   17.40
   7 -10   7   29.40    9.50
   8 -10   7   94.79   21.90
   8 -10   7  123.79   25.60
   9 -10   7   31.00   13.40
   9 -10   7   10.90   10.10
  10 -10   7   37.40   15.30
  10 -10   7   54.49   17.70
  11 -10   7   59.89   19.10
  12 -10   7   29.60   15.90
  13 -10   7   96.59   24.30
  14 -10   7  147.29   38.80
   5   9  -7  180.28   26.90
   4   9  -7  522.45   37.70
   3   9  -7    9.10    8.00
   2   9  -7  202.88   19.70
  -2  -9   7  236.48   22.10
   1   9  -7   20.50    6.60
  -1  -9   7   16.50    7.40
   0  -9   7  239.58   19.30
   0  -9   7  267.37   29.90
   1  -9   7  247.18   18.20
   2  -9   7  413.96   23.30
   3  -9   7    5.00    7.10
   3  -9   7    1.50    3.80
   4  -9   7  125.29   13.90
   4  -9   7  143.49   26.70
   5  -9   7  134.29   25.60
   5  -9   7  140.89   15.20
   6  -9   7   86.69   20.90
   6  -9   7   92.09   16.10
   7  -9   7   43.00   14.10
   8  -9   7  419.86   38.90
   9  -9   7  251.77   30.40
   9  -9   7  237.48   44.40
  10  -9   7  303.57   34.60
  10  -9   7  296.07   33.70
  11  -9   7  532.95   47.70
  12  -9   7   16.70   13.00
  13  -9   7   -4.30   12.90
  14  -9   7   -1.70   11.40
   6   8  -7  -12.60   16.40
   5   8  -7   -0.70   13.20
   4   8  -7  617.54   41.50
  -4  -8   7  648.44   45.30
   3   8  -7  496.55   33.90
  -3  -8   7  483.55   36.30
   2   8  -7  119.19   18.00
  -2  -8   7  113.69   21.90
  -1  -8   7  473.25   40.50
  -1  -8   7  482.65   30.80
   0   8  -7   93.39   11.80
   0  -8   7   76.19   12.70
   0  -8   7   93.19   19.70
   1  -8   7   32.40    8.00
   2  -8   7  210.78   16.70
   3  -8   7   62.49   16.10
   3  -8   7   87.99   10.80
   4  -8   7   66.99   12.00
   4  -8   7   55.09   15.60
   5  -8   7  130.99   23.70
   5  -8   7  117.69   14.40
   6  -8   7   40.80   12.20
   7  -8   7  528.95   40.70
  -8   8  -7   66.09   17.00
   8  -8   7   83.19   19.10
  -9   8  -7  298.57   34.40
   9  -8   7  320.07   32.80
   9  -8   7  259.27   32.40
  10  -8   7   -2.10   10.20
  10  -8   7   12.50    9.10
  11  -8   7  879.81   61.39
  12  -8   7  182.78   33.10
  13  -8   7  171.28   33.80
  14  -8   7   27.70   19.20
  15  -8   7   67.89   22.50
   6   7  -7    1.90   11.50
  -6  -7   7  -18.10   10.80
   5   7  -7  299.57   30.60
  -5  -7   7  294.17   33.10
   4   7  -7   -5.60    6.70
  -4  -7   7   21.00    9.00
   3   7  -7   20.60    9.10
  -3  -7   7   29.20   10.90
  -3  -7   7   20.80   13.10
   2   7  -7   39.20   11.80
  -2  -7   7   63.99   19.80
   1   7  -7  563.94   34.00
  -1  -7   7  588.04   42.70
  -1  -7   7  631.04   35.40
   0   7  -7   16.70    6.20
   0  -7   7   12.00    6.80
   1  -7   7  271.97   20.00
   2  -7   7 1221.28   48.60
   3  -7   7  284.67   27.20
   3  -7   7  245.98   19.70
   4  -7   7  772.02   38.50
   4  -7   7  714.33   44.80
   5  -7   7   12.20    6.30
   5  -7   7   10.50    5.60
   6  -7   7  267.77   26.80
  -7   7  -7   24.80   10.00
   7  -7   7   33.60   11.60
  -8   7  -7   20.70   10.10
   8  -7   7   35.60   12.20
  -9   7  -7  376.26   38.00
   9  -7   7  385.06   35.90
  10  -7   7  938.81   60.79
  11  -7   7   18.40   11.70
  12  -7   7   25.40   12.50
  13  -7   7  103.39   25.80
  14  -7   7  143.79   31.70
  15  -7   7   22.60   16.80
  -7  -6   7   74.59   23.90
   6   6  -7  162.08   29.20
  -6  -6   7  194.98   32.40
   5   6  -7   57.39   15.10
  -5  -6   7   51.69   15.60
   4   6  -7  169.08   21.30
  -4  -6   7  180.28   22.40
  -4  -6   7  168.78   28.80
   3   6  -7   85.79   15.60
  -3  -6   7   89.49   17.60
  -3  -6   7   79.39   18.80
   2   6  -7   36.50    9.30
  -2  -6   7   21.00    9.70
  -2  -6   7   10.90   12.40
   1   6  -7  258.57   21.90
  -1  -6   7  269.77   26.00
  -1  -6   7  258.97   21.50
   0   6  -7  180.68   17.30
   0  -6   7  182.68   16.30
   1  -6   7  156.48   15.10
   2  -6   7   20.40    6.60
   2  -6   7   22.70    8.50
   3  -6   7   13.40    5.50
   3  -6   7   11.60    6.00
   4  -6   7 2274.77   79.49
   5  -6   7 1389.96   61.89
  -6   6  -7  168.78   20.70
   6  -6   7  115.79   20.30
  -7   6  -7  262.57   27.40
   7  -6   7  343.37   29.60
  -8   6  -7  196.08   29.50
   8  -6   7  198.18   24.00
  -9   6  -7    6.10    7.90
   9  -6   7    5.90    6.10
 -10   6  -7  178.08   30.70
  10  -6   7  168.58   28.70
  11  -6   7   -3.10    7.80
  12  -6   7  151.58   29.60
  14  -6   7    2.70   10.30
  -8  -5   7  112.59   24.80
  -7  -5   7   25.70   13.90
   6   5  -7   -1.20    9.60
  -6  -5   7   -1.90    8.00
   5   5  -7  816.12   50.99
  -5  -5   7  920.21   56.79
  -5  -5   7  879.71   56.89
   4   5  -7  110.99   20.20
  -4  -5   7   83.49   20.00
  -4  -5   7  130.69   22.50
   3   5  -7  129.59   16.20
  -3  -5   7  115.69   21.80
  -3  -5   7  128.69   21.20
   2   5  -7    5.30    5.00
  -2  -5   7    3.00    5.40
  -2  -5   7    5.40    5.00
   1   5  -7 1336.77   67.59
  -1  -5   7 1575.24   60.29
  -1  -5   7 1537.65   64.09
   0   5  -7  262.77   20.30
   0  -5   7  210.08   18.40
  -1   5  -7  127.79   14.00
   1  -5   7  115.09   12.70
   2  -5   7   23.10    7.70
   2  -5   7   26.50    7.50
   3  -5   7  952.60   45.20
   3  -5   7 1029.50   45.40
   4  -5   7    0.80    2.60
  -5   5  -7  211.88   21.50
   5  -5   7  264.27   23.00
  -6   5  -7  155.38   22.90
   6  -5   7  142.79   17.30
  -7   5  -7 1206.08   60.99
   7  -5   7 1173.78   58.49
  -8   5  -7   66.49   16.60
   8  -5   7   68.19   16.40
  -9   5  -7  169.68   28.70
   9  -5   7  167.38   27.00
 -10   5  -7  827.12   57.99
  10  -5   7  855.61   56.89
  11  -5   7   11.50   10.50
  12  -5   7  281.17   35.00
  13  -5   7    5.90   11.40
  -9  -4   7   13.30   12.90
  -8  -4   7  181.18   34.60
   7   4  -7  -13.70    9.70
  -7  -4   7    5.70    8.30
  -6  -4   7  161.08   27.50
  -6  -4   7  197.68   31.60
   5   4  -7  113.79   21.70
  -5  -4   7  189.48   29.20
  -5  -4   7  173.38   28.40
   4   4  -7   61.99   14.80
  -4  -4   7   56.99   14.60
  -4  -4   7   76.19   17.60
   3   4  -7  734.63   42.40
  -3  -4   7  800.22   46.20
  -3  -4   7  730.03   43.10
   2   4  -7 2277.47   81.29
  -2  -4   7 2305.47   83.19
  -2  -4   7 2270.27   81.79
  -1  -4   7    3.00    2.50
  -1  -4   7   -1.70    3.10
   0   4  -7    4.40    3.80
   0  -4   7   -0.70    2.90
  -1   4  -7  355.46   24.30
   1  -4   7  358.96   24.00
   2  -4   7  858.41   40.20
   2  -4   7  883.71   38.70
   3  -4   7  257.77   21.00
   3  -4   7  248.98   18.90
  -4   4  -7    6.20    5.00
   4  -4   7    5.30    3.70
  -5   4  -7  142.79   16.50
   5  -4   7  130.59   15.50
  -6   4  -7   11.10    6.90
   6  -4   7   18.70    8.00
  -7   4  -7  275.27   26.60
   7  -4   7  277.37   26.10
  -8   4  -7   59.09   16.70
   8  -4   7   73.89   17.30
  -9   4  -7  103.69   21.60
   9  -4   7  130.79   24.30
 -10   4  -7  206.58   34.70
  10  -4   7  249.38   29.50
  11  -4   7   23.30   13.80
  12  -4   7  710.63   58.59
  13  -4   7  550.94   52.99
  14  -4   7    4.10   12.00
  10   3  -7   79.49   22.90
 -10  -3   7   38.50   23.70
   9   3  -7   20.20   14.70
  -9  -3   7   12.20   15.60
   8   3  -7  847.62   61.59
  -8  -3   7  903.21   79.79
   7   3  -7  828.32   56.89
   7   3  -7  864.51   57.69
  -7  -3   7  862.81   57.09
  -7  -3   7  776.02   58.19
   6   3  -7   19.90    7.80
   6   3  -7    9.20    5.70
  -6  -3   7    2.10    7.20
  -6  -3   7   28.10   12.90
   5   3  -7   82.69   18.20
   5   3  -7   40.20   14.10
  -5  -3   7   81.99   17.90
  -5  -3   7   48.70   15.40
   4   3  -7  255.47   24.50
  -4  -3   7  260.47   26.60
  -4  -3   7  223.08   23.90
   3   3  -7   13.30    6.40
  -3  -3   7   16.80    7.50
  -3  -3   7    8.50    6.40
   2   3  -7 1052.59   48.30
  -2  -3   7  978.90   47.40
  -2  -3   7 1016.50   45.60
   1   3  -7  254.67   20.90
  -1  -3   7  237.38   18.20
  -1  -3   7  234.78   19.80
   0   3  -7 1305.97   52.49
   0  -3   7 1372.56   53.59
  -1   3  -7  625.44   33.30
   1  -3   7  614.44   27.60
   1  -3   7  632.74   33.30
   2  -3   7   47.80    8.20
   2  -3   7   49.10   10.00
  -3   3  -7 1255.37   47.10
   3  -3   7 1297.47   54.39
   3  -3   7 1228.78   45.50
  -4   3  -7  349.96   23.40
   4  -3   7  315.67   22.00
  -5   3  -7   28.60   10.20
   5  -3   7   23.20    7.50
  -6   3  -7   17.30    7.00
   6  -3   7    9.60    6.90
  -7   3  -7  748.63   45.90
   7  -3   7  739.43   45.00
  -8   3  -7   72.09   16.90
   8  -3   7  112.19   21.60
  -9   3  -7   57.49   15.80
   9  -3   7   76.69   19.50
  10  -3   7   38.10   15.20
  11  -3   7  482.15   46.50
  12  -3   7   12.90    7.20
  13  -3   7  195.88   37.40
  14  -3   7   18.50   19.30
  11   2  -7   44.10   20.70
  10   2  -7   56.49   20.10
 -10  -2   7   16.80   18.50
   9   2  -7  566.14   51.39
  -9  -2   7  466.05   48.20
   8   2  -7    3.70   10.70
  -8  -2   7   30.40   14.80
  -8  -2   7   -1.60    8.60
   7   2  -7  454.15   39.50
   7   2  -7  359.46   37.00
  -7  -2   7  381.96   38.70
   6   2  -7  212.38   25.70
   6   2  -7  159.88   25.90
  -6  -2   7  184.78   29.90
  -6  -2   7  179.88   26.70
   5   2  -7 1163.88   60.99
   5   2  -7 1222.28   60.29
  -5  -2   7 1294.17   61.19
  -5  -2   7 1129.19   62.09
   4   2  -7   21.90    7.60
   4   2  -7    6.80    6.90
  -4  -2   7   23.90    7.50
  -4  -2   7   33.20   10.60
   3   2  -7   22.80    8.30
   3   2  -7   23.20    9.10
  -3  -2   7   25.90    9.30
  -3  -2   7   30.30    7.90
   2   2  -7  796.32   40.70
  -2  -2   7  727.73   34.20
  -2  -2   7  782.32   40.20
   1   2  -7   39.30    9.40
  -1  -2   7   43.40    9.80
  -1  -2   7   60.99    7.50
   0   2  -7  179.68   16.60
   0  -2   7  187.68   17.10
  -1   2  -7    3.70    2.70
   1  -2   7    1.20    1.60
   1  -2   7   -3.80    1.50
  -2   2  -7  170.48   12.20
   2  -2   7  162.18   16.40
   2  -2   7  180.68   12.00
  -3   2  -7  632.14   29.10
   3  -2   7  613.94   28.50
  -4   2  -7  768.62   36.70
   4  -2   7  781.22   36.70
  -5   2  -7  962.50   46.10
   5  -2   7  992.20   46.90
  -6   2  -7 2300.07   85.89
   6  -2   7 2222.88   85.19
  -7   2  -7    6.60    4.80
   7  -2   7   -7.60    3.40
  -8   2  -7   19.00    9.00
   8  -2   7   28.30    9.80
  -9   2  -7   48.70   14.20
   9  -2   7   15.70   13.00
  11  -2   7  225.18   37.30
  12  -2   7  103.59   26.30
  13  -2   7   11.30    8.00
  12   1  -7  -15.00   13.90
  11   1  -7   30.90   16.70
 -11  -1   7   -7.70   13.20
  10   1  -7  126.59   26.90
 -10  -1   7  102.19   27.00
   9   1  -7  276.17   33.20
  -9  -1   7  297.27   36.80
   8   1  -7  380.46   36.50
   8   1  -7  358.66   38.00
  -8  -1   7  292.37   31.60
  -8  -1   7  272.47   34.40
   7   1  -7   26.70   12.90
   7   1  -7   39.50   13.00
  -7  -1   7   42.40   14.30
  -7  -1   7   28.80   13.50
   6   1  -7  234.88   26.80
   6   1  -7  285.87   27.50
  -6  -1   7  262.87   28.80
  -6  -1   7  275.87   27.00
   5   1  -7  162.48   21.00
   5   1  -7  155.08   19.70
  -5  -1   7  169.98   21.60
  -5  -1   7  150.88   17.40
   4   1  -7  115.89   19.70
   4   1  -7  134.29   15.70
  -4  -1   7  140.59   15.60
  -4  -1   7  103.89   18.60
   3   1  -7  325.67   26.00
   3   1  -7  347.07   22.60
  -3  -1   7  363.76   22.50
  -3  -1   7  317.97   31.80
   2   1  -7  634.54   27.00
   2   1  -7  637.74   35.60
  -2  -1   7  644.04   35.40
  -2  -1   7  568.64   25.60
   1   1  -7    2.10    2.50
  -1  -1   7    1.70    1.90
  -1  -1   7    0.30    2.00
   0   1  -7 1376.16   53.79
   0  -1   7 1390.16   54.29
  -1   1  -7 1309.27   36.30
  -1   1  -7 1299.07   52.89
   1  -1   7 1409.06   37.00
   1  -1   7 1318.47   53.09
  -2   1  -7   -0.70    1.60
   2  -1   7    3.00    2.80
   2  -1   7   -0.90    1.50
  -3   1  -7   48.10    8.90
   3  -1   7   49.40    9.20
  -4   1  -7  237.98   19.70
   4  -1   7  276.87   21.30
  -5   1  -7   -0.90    2.90
   5  -1   7    3.90    5.00
  -6   1  -7 1539.95   68.59
   6  -1   7 1568.04   69.99
  -7   1  -7  239.18   26.20
   7  -1   7  263.67   27.50
   8  -1   7  625.54   46.80
  -9   1  -7  416.96   39.90
   9  -1   7  479.45   42.60
  10  -1   7   12.80   12.30
  11  -1   7  171.98   31.70
  12  -1   7    5.20   15.60
  13  -1   7   -2.00   12.10
  13   0  -7   88.69   29.10
  12   0  -7  231.78   36.80
 -12   0   7  215.28   41.30
  11   0  -7  138.39   29.50
 -11   0   7  162.78   35.30
  10   0  -7   28.10   14.30
 -10   0   7   24.30   15.10
   9   0  -7  255.27   30.60
  -9   0   7  260.87   53.69
  -9   0   7  255.57   30.50
   8   0  -7   82.59   19.30
   8   0  -7  105.89   23.80
  -8   0   7   85.39   19.60
  -8   0   7  107.49   23.60
   7   0  -7   25.80    9.50
   7   0  -7   22.70   10.60
  -7   0   7   26.90   11.30
  -7   0   7   28.40   10.30
   6   0  -7  194.88   21.60
   6   0  -7  153.38   25.60
  -6   0   7  120.89   23.60
  -6   0   7  129.69   20.50
   5   0  -7  227.48   20.90
   5   0  -7  247.48   24.90
  -5   0   7  227.98   25.20
  -5   0   7  230.58   20.80
   4   0  -7    9.70    5.50
   4   0  -7    3.70    4.00
  -4   0   7    4.70    3.20
  -4   0   7    8.80    6.20
   3   0  -7 1376.56   47.80
   3   0  -7 1382.66   58.39
  -3   0   7 1286.67   45.50
  -3   0   7 1262.67   56.59
   2   0  -7  181.38   11.40
   2   0  -7  184.48   34.80
  -2   0   7  200.08   18.60
  -2   0   7  199.78   11.60
   1   0  -7 1356.26   33.30
   1   0  -7 1334.37   53.59
  -1   0   7 1410.76   54.99
   0   0  -7   12.80    5.20
   0   0   7    3.10    3.40
  -1   0  -7 1374.16   39.10
   1   0   7 1244.28   52.09
   1   0   7 1331.17   38.90
  -2   0  -7  169.38   13.00
   2   0   7  184.68   13.90
   2   0   7  181.78   17.70
  -3   0  -7 1256.77   49.50
   3   0   7 1295.47   50.89
  -4   0  -7    2.70    3.30
   4   0   7    8.20    5.00
  -5   0  -7  201.78   21.50
   5   0   7  227.78   23.30
  -6   0  -7  187.98   22.10
   6   0   7  140.49   23.30
  -7   0  -7   14.20   11.50
   7   0   7   25.10   10.90
  -8   0  -7   94.99   20.90
   8   0   7   67.49   17.90
   9   0   7  279.37   35.00
  10   0   7   17.80   12.30
  11   0   7  145.89   31.70
  12   0   7  198.08   38.00
  13   0   7   79.49   26.70
  13  -1  -7    1.70   16.50
  12  -1  -7   42.90   17.30
 -12   1   7   20.50   12.10
  11  -1  -7  131.09   28.00
 -11   1   7  144.99   34.50
  10  -1  -7    5.10   10.90
 -10   1   7   -5.90   11.80
   9  -1  -7  475.45   41.90
  -9   1   7  452.85   45.10
  -9   1   7  465.15   40.10
   8  -1  -7  573.44   47.00
   8  -1  -7  604.24   44.60
  -8   1   7  591.84   43.10
  -8   1   7  654.03   51.99
   7  -1  -7  243.88   25.20
   7  -1  -7  240.68   28.20
  -7   1   7  249.38   25.90
  -7   1   7  308.57   31.90
   6  -1  -7 1517.95   64.39
   6  -1  -7 1558.64   73.29
  -6   1   7 1368.26   70.69
  -6   1   7 1445.56   62.59
   5  -1  -7    0.90    3.20
   5  -1  -7   -1.30    3.00
  -5   1   7    1.90    3.90
  -5   1   7   -1.20    3.60
   4  -1  -7  238.78   18.20
   4  -1  -7  245.48   22.40
  -4   1   7  242.18   23.20
  -4   1   7  234.18   17.80
   3  -1  -7   44.50    7.70
   3  -1  -7   55.79   12.40
  -3   1   7   48.30    7.90
  -3   1   7   61.99   12.40
   2  -1  -7   -0.20    1.70
   2  -1  -7    2.00    3.30
  -2   1   7    1.00    1.80
  -2   1   7    0.80    2.50
   1  -1  -7 1398.56   54.69
   1  -1  -7 1416.06   38.60
  -1   1   7 1381.56   54.99
   0  -1  -7 1320.47   40.20
   0  -1  -7 1416.96   54.49
   0   1   7 1417.36   54.89
  -1  -1  -7    6.00    3.10
   1   1   7    2.80    2.80
  -2  -1  -7  583.54   30.10
   2   1   7  672.13   36.80
   2   1   7  589.74   30.10
  -3  -1  -7  313.07   24.10
   3   1   7  351.96   25.50
  -4  -1  -7  103.19   17.60
   4   1   7  137.79   17.10
  -5  -1  -7  121.89   19.90
   5   1   7  151.58   19.10
  -6  -1  -7  284.27   29.00
   6   1   7  303.27   30.70
   7   1   7   37.00   12.80
  -8  -1  -7  277.57   33.60
   8   1   7  191.38   34.90
   8   1   7  327.87   34.90
   9   1   7  235.58   37.20
  10   1   7   79.79   24.10
  11   1   7   15.30   11.60
  12   1   7   12.20   16.90
  13  -2  -7  -36.10   12.70
  12  -2  -7  101.89   23.10
 -12   2   7   52.99   25.00
  11  -2  -7  123.99   26.70
 -11   2   7  205.68   37.80
  10  -2  -7   77.49   19.30
 -10   2   7  124.89   29.00
 -10   2   7  161.38   32.90
   9  -2  -7   33.10   13.70
  -9   2   7   43.70   16.50
  -9   2   7   38.50   16.20
   8  -2  -7   23.80   10.90
   8  -2  -7   16.30    8.30
  -8   2   7   35.60   12.00
  -8   2   7   29.20   12.90
   7  -2  -7    4.10    4.90
   7  -2  -7    6.10    5.20
  -7   2   7    6.40    5.60
  -7   2   7   -0.60    3.40
   6  -2  -7 2207.98   91.99
  -6   2   7 2306.97   94.39
  -6   2   7 2303.27   82.79
   5  -2  -7 1055.39   54.09
   5  -2  -7  972.30   44.40
  -5   2   7 1006.60   53.39
  -5   2   7  988.00   44.80
   4  -2  -7  691.93   40.80
   4  -2  -7  848.02   36.30
  -4   2   7  839.62   45.10
  -4   2   7  814.12   36.50
   3  -2  -7  642.14   35.80
   3  -2  -7  603.14   27.20
  -3   2   7  636.14   36.30
  -3   2   7  597.04   28.30
   2  -2  -7  179.78   12.50
   2  -2  -7  147.49   15.60
  -2   2   7  186.88   17.70
   1  -2  -7    3.60    3.80
  -1   2   7    0.90    1.90
   0  -2  -7  193.48   14.10
   0  -2  -7  203.38   17.90
   0   2   7  186.28   17.10
  -1  -2  -7   47.80    9.60
   1   2   7   65.49   12.10
  -2  -2  -7  812.32   40.20
   2   2   7  790.72   41.70
  -3  -2  -7   29.80    9.10
   3   2   7   22.30    8.70
  -4  -2  -7   20.40    8.90
   4   2   7   10.90    7.30
  -5  -2  -7 1174.68   62.19
   5   2   7 1228.98   64.69
  -6  -2  -7  206.58   31.00
   6   2   7  229.08   28.60
  -7  -2  -7  310.17   33.40
   7   2   7  355.76   37.40
   8   2   7   23.20   14.00
   9   2   7  538.85   51.19
  10   2   7   33.10   16.70
  11   2   7   25.90   20.00
  14  -3  -7   10.60   12.50
  13  -3  -7  228.78   39.30
 -13   3   7  326.17   41.80
  12  -3  -7  -21.10    9.80
 -12   3   7    7.30   10.10
  11  -3  -7  587.44   49.10
 -11   3   7  532.95   54.19
  10  -3  -7   38.70   14.90
 -10   3   7   45.60   14.00
 -10   3   7   54.09   18.90
   9  -3  -7   88.29   21.50
   9  -3  -7   72.79   17.40
  -9   3   7   62.09   18.40
  -9   3   7   48.30   16.90
   8  -3  -7   92.09   20.50
   8  -3  -7  119.29   21.80
  -8   3   7   94.69   22.20
  -8   3   7  116.09   21.20
   7  -3  -7  768.12   50.39
   7  -3  -7  720.63   43.20
  -7   3   7  768.92   44.70
  -7   3   7  762.02   51.19
   6  -3  -7   18.30    9.30
  -6   3   7    8.40    8.40
  -6   3   7   21.30    8.10
   5  -3  -7   23.20    7.30
   5  -3  -7   21.80    8.60
  -5   3   7   28.20    8.20
  -5   3   7   24.50    9.20
   4  -3  -7  385.96   28.30
   4  -3  -7  302.07   21.30
  -4   3   7  347.57   23.60
  -4   3   7  374.06   35.40
   3  -3  -7 1341.27   48.90
   3  -3  -7 1297.67   54.89
  -3   3   7 1306.77   55.89
   2  -3  -7   48.50   10.70
   2  -3  -7   50.89    9.20
  -2   3   7   60.79   11.80
   1  -3  -7  624.34   33.10
  -1   3   7  625.84   33.80
   0   3   7 1210.78   50.39
  -1  -3  -7  256.97   21.10
   1   3   7  261.07   21.40
  -2  -3  -7 1014.70   49.30
   2   3   7 1029.40   49.50
  -3  -3  -7    9.90    6.10
  -4  -3  -7  242.88   26.40
  -5  -3  -7   93.49   20.70
   5   3   7   81.79   18.10
  -6  -3  -7   13.80   10.00
   6   3   7   -7.80    6.20
   7   3   7  868.91   61.79
   7   3   7  812.72   59.99
   8   3   7  779.72   60.59
   9   3   7    5.30    8.70
  10   3   7   38.80   20.50
  11   3   7   98.89   26.70
  14  -4  -7  -14.40    8.20
 -14   4   7    0.50   11.00
  13  -4  -7  581.84   53.69
 -13   4   7  393.76   60.39
  12  -4  -7  646.54   53.79
 -12   4   7  623.44   59.69
  11  -4  -7    4.40    4.90
 -11   4   7    1.90   12.20
  10  -4  -7  199.28   31.00
 -10   4   7  225.38   27.60
 -10   4   7  196.28   37.70
   9  -4  -7  155.48   27.30
   9  -4  -7  139.69   24.60
  -9   4   7  112.09   25.60
  -9   4   7  157.18   26.30
   8  -4  -7   70.19   16.10
  -8   4   7   70.79   18.80
  -8   4   7   61.89   16.50
   7  -4  -7  223.98   23.10
   7  -4  -7  259.87   27.70
  -7   4   7  222.38   26.20
  -7   4   7  236.58   23.90
   6  -4  -7   18.20    8.90
   6  -4  -7   20.60    7.70
  -6   4   7    4.50    5.90
  -6   4   7   12.80    7.60
   5  -4  -7  109.39   16.60
   5  -4  -7  124.79   19.70
  -5   4   7  113.69   19.40
  -5   4   7  114.49   17.90
   4  -4  -7   -3.50    4.20
   4  -4  -7    2.20    3.20
   3  -4  -7  248.58   19.90
   3  -4  -7  254.17   20.80
  -3   4   7  215.58   20.10
   2  -4  -7  804.02   38.60
  -2   4   7  769.72   38.80
   1  -4  -7  324.37   23.00
  -1   4   7  327.07   23.50
   0   4   7    8.50    4.90
  -1  -4  -7    3.50    3.90
   1   4   7    0.00    2.50
  -2  -4  -7 2271.07   85.69
   2   4   7 1986.20   92.39
  -3  -4  -7  735.53   46.80
  -4  -4  -7   77.59   17.80
  -5  -4  -7  139.99   26.40
   7   4   7   10.90    9.60
  14  -5  -7  168.38   33.10
 -14   5   7  116.99   35.50
  13  -5  -7   25.80   13.70
 -13   5   7   12.40   14.20
  12  -5  -7  265.57   32.90
 -12   5   7  271.87   46.20
 -11   5   7   21.60   13.90
  10  -5  -7  867.11   56.69
 -10   5   7  900.21   59.39
 -10   5   7  840.02   68.49
   9  -5  -7  138.69   26.00
   9  -5  -7  172.88   27.10
  -9   5   7  172.98   31.60
  -9   5   7  135.59   25.00
   8  -5  -7   80.19   16.90
   8  -5  -7   67.09   16.90
  -8   5   7   64.09   15.70
  -8   5   7   93.29   21.00
   7  -5  -7 1159.38   57.39
   7  -5  -7 1156.18   62.29
  -7   5   7 1283.97   62.79
  -7   5   7 1212.58   66.09
   6  -5  -7  147.09   18.20
   6  -5  -7  158.58   20.10
  -6   5   7  176.28   20.70
  -6   5   7  170.68   26.00
   5  -5  -7  262.67   23.90
  -5   5   7  202.08   22.00
   4  -5  -7    3.60    4.40
   4  -5  -7    1.30    3.70
  -4   5   7   -5.20    3.80
   3  -5  -7  971.60   45.60
   3  -5  -7  992.60   48.80
  -3   5   7 1048.10   47.70
   2  -5  -7   33.20    8.60
  -2   5   7   23.70    7.60
  -1   5   7  134.59   14.60
   0   5   7  242.48   20.50
  -1  -5  -7 1348.27   64.49
   1   5   7 1528.95   60.09
   2   5   7    9.80    5.10
  -3  -5  -7  147.19   25.50
  -4  -5  -7  131.99   25.70
   6   5   7    5.30    9.70
  14  -6  -7   -2.10   12.60
 -14   6   7   11.80   17.50
  13  -6  -7   11.80   10.10
 -13   6   7   -2.10   11.10
  12  -6  -7  167.98   32.10
 -12   6   7  194.28   38.70
  11  -6  -7    3.90   11.20
 -11   6   7  -12.70    9.40
  10  -6  -7  231.18   28.30
 -10   6   7  234.48   38.30
 -10   6   7  175.78   30.10
   9  -6  -7   13.00   11.20
   9  -6  -7   -8.50    5.10
  -9   6   7    3.20    9.30
  -9   6   7    0.70    9.20
   8  -6  -7  185.58   22.60
   8  -6  -7  216.78   25.80
  -8   6   7  234.18   28.30
  -8   6   7  139.79   24.70
   7  -6  -7  261.77   27.50
   7  -6  -7  257.17   25.70
  -7   6   7  241.38   26.40
  -7   6   7  236.08   26.60
   6  -6  -7  173.58   20.60
   6  -6  -7  137.49   21.60
  -6   6   7  172.38   21.40
   5  -6  -7 1525.55   64.39
   5  -6  -7 1506.95   66.89
  -5   6   7 1514.55   66.09
   4  -6  -7 2173.38   84.99
   4  -6  -7 2219.18   78.39
  -4   6   7 2205.48   80.79
   3  -6  -7   10.00    6.40
   3  -6  -7    4.60    4.90
  -3   6   7   14.60    7.10
   2  -6  -7    2.50    3.90
  -2   6   7    7.50    4.40
  -1   6   7  142.39   15.10
   0   6   7  194.58   18.40
  -1  -6  -7  218.88   24.80
   1   6   7  252.57   21.70
  -2  -6  -7   16.00   10.80
   2   6   7   23.20    9.80
  -3  -6  -7   76.69   18.80
   3   6   7   62.79   14.00
   5   6   7   -6.10   13.50
   6   6   7  190.78   31.10
  15  -7  -7    3.20   14.30
  14  -7  -7  105.29   24.80
 -14   7   7  116.89   37.90
  13  -7  -7   48.30   20.00
 -13   7   7   77.59   25.60
  12  -7  -7   20.30   11.40
 -12   7   7   23.20   15.70
  11  -7  -7   -0.40   10.00
 -11   7   7   28.70   16.10
  10  -7  -7  842.92   55.99
 -10   7   7  907.01   61.29
 -10   7   7  818.92   63.29
   9  -7  -7  380.16   36.00
   9  -7  -7  363.16   35.20
  -9   7   7  347.87   36.30
  -9   7   7  343.57   37.90
   8  -7  -7   29.50   11.70
   8  -7  -7   33.00   11.80
  -8   7   7   27.20   13.80
  -8   7   7   12.70   10.20
   7  -7  -7   26.70    9.60
   7  -7  -7   18.80    7.30
  -7   7   7   15.60    7.50
   6  -7  -7  237.38   23.70
   6  -7  -7  260.27   26.90
  -6   7   7  294.97   27.30
   5  -7  -7    9.00    5.00
   5  -7  -7   12.80    5.80
  -5   7   7    0.10    4.30
   4  -7  -7  739.43   38.50
   4  -7  -7  709.13   46.40
  -4   7   7  715.63   39.60
   3  -7  -7  216.58   23.20
  -3   7   7  268.67   21.60
  -2   7   7 1218.28   50.59
  -1   7   7  247.08   19.70
   0   7   7   20.00    7.10
  -1  -7  -7  549.95   45.30
   1   7   7  592.94   34.10
  -2  -7  -7   45.20   18.10
   2   7   7   48.10   11.80
   3   7   7   34.80   11.60
   4   7   7   10.70    8.90
   5   7   7  267.67   44.70
   6   7   7   10.10   16.90
  15  -8  -7   74.49   26.10
  14  -8  -7   59.19   19.00
 -14   8   7   97.89   28.80
  13  -8  -7  141.19   31.60
 -13   8   7  109.39   32.30
  12  -8  -7  193.88   32.70
 -12   8   7  186.58   39.80
  11  -8  -7  876.51   60.59
 -11   8   7  831.62   64.59
  10  -8  -7   13.30   11.10
  10  -8  -7    9.80   11.10
 -10   8   7    8.20   10.90
   9  -8  -7  260.67   28.70
   9  -8  -7  274.77   31.30
  -9   8   7  281.67   33.40
  -9   8   7  306.77   34.50
   8  -8  -7  103.29   21.80
   8  -8  -7   88.59   19.00
  -8   8   7   85.39   20.90
   7  -8  -7  617.14   45.50
   7  -8  -7  520.45   37.70
  -7   8   7  581.14   42.50
   6  -8  -7   38.80   13.00
   6  -8  -7   21.50    7.30
  -6   8   7   22.50    9.50
   5  -8  -7  114.99   22.10
   5  -8  -7  138.89   16.00
  -5   8   7  116.39   18.40
   4  -8  -7   62.09   12.30
   4  -8  -7   48.50   14.70
  -4   8   7   66.19   13.00
   3  -8  -7   74.49   12.20
  -3   8   7   65.69   12.20
  -2   8   7  190.58   17.30
  -1   8   7   38.20    9.20
   0  -8  -7   70.49   18.30
   0   8   7   98.69   15.00
  -1  -8  -7  536.65   44.50
   1   8   7  462.75   30.20
   2   8   7   95.79   16.80
   3   8   7  566.24   37.50
   3   8   7  466.25   37.30
   4   8   7  635.54   43.80
   4   8   7  611.24   46.10
   5   8   7   -4.80   17.50
   5   8   7   15.30   11.30
   6   8   7   38.70   20.60
  14  -9  -7    4.20   16.60
 -14   9   7  -21.70   15.50
  13  -9  -7    2.00   11.70
 -13   9   7   -9.30   13.90
  12  -9  -7   14.00   11.50
 -12   9   7   14.20   17.90
  11  -9  -7  488.55   45.00
 -11   9   7  505.45   49.10
  10  -9  -7  283.57   32.80
  10  -9  -7  299.87   35.50
 -10   9   7  384.06   40.70
   9  -9  -7  274.27   31.10
   9  -9  -7  294.37   30.40
  -9   9   7  245.48   37.20
   8  -9  -7  399.46   38.90
   8  -9  -7  414.36   34.40
  -8   9   7  398.46   36.90
   7  -9  -7   38.40   14.40
   7  -9  -7   32.80   11.10
  -7   9   7   37.30   12.80
   6  -9  -7   74.49   19.50
   6  -9  -7   97.59   17.10
  -6   9   7   90.29   16.60
   5  -9  -7  108.29   16.60
   5  -9  -7  137.99   25.60
  -5   9   7  121.79   24.50
   4  -9  -7  182.98   31.60
  -4   9   7  137.49   16.40
  -3   9   7    2.80    4.90
  -2   9   7  389.36   24.80
  -1   9   7  315.97   22.00
   0   9   7  298.37   21.70
   1   9   7   11.30    7.00
   2   9   7  214.78   25.40
   2   9   7  238.78   22.50
   3   9   7  -13.40    6.60
   3   9   7   -8.30   10.10
   4   9   7  495.95   40.90
   4   9   7  597.74   40.50
   5   9   7  147.39   25.10
   5   9   7  158.88   32.00
  13 -10  -7   86.89   22.00
 -13  10   7   91.99   26.70
  12 -10  -7   30.30   17.10
 -12  10   7   20.40   18.80
  11 -10  -7  134.89   27.70
 -11  10   7   78.39   24.40
  10 -10  -7   52.09   16.90
  10 -10  -7   39.80   15.20
 -10  10   7   36.90   15.00
   9 -10  -7    8.10   10.70
  -9  10   7   16.40   10.90
   8 -10  -7  167.88   37.70
   8 -10  -7  116.59   21.20
  -8  10   7  118.49   23.30
   7 -10  -7   31.20   10.40
   7 -10  -7   17.30   10.20
  -7  10   7    4.00    6.80
   6 -10  -7  185.98   32.10
   6 -10  -7  182.68   19.10
  -6  10   7  156.08   20.20
   5 -10  -7  906.91   42.60
   5 -10  -7  900.61   63.29
  -5  10   7  905.11   46.50
   4 -10  -7  165.88   32.30
  -4  10   7  185.38   18.40
  -3  10   7  802.42   37.50
  -2  10   7   11.00    6.10
  -1  10   7  330.47   21.20
   0  10   7   29.00    7.90
   1  10   7  134.49   14.60
   1  10   7  133.49   22.10
   2  10   7   74.89   16.30
   2  10   7   41.80   18.60
   3  10   7  240.08   27.40
   3  10   7  236.68   23.00
   4  10   7  -35.60   16.20
   4  10   7   19.70   11.30
  14 -11  -7   50.39   21.30
  13 -11  -7   74.59   25.10
 -13  11   7   33.70   21.90
  12 -11  -7   -4.30   14.30
 -12  11   7   42.60   18.40
  11 -11  -7  128.59   27.70
 -11  11   7  166.08   43.40
  10 -11  -7  124.69   27.40
  10 -11  -7  112.09   21.10
 -10  11   7   81.19   23.00
   9 -11  -7  195.98   23.70
   9 -11  -7  229.08   37.90
  -9  11   7  200.18   30.90
   8 -11  -7  515.85   36.40
   8 -11  -7  480.75   47.90
  -8  11   7  525.95   42.40
   7 -11  -7    0.00    6.00
   7 -11  -7   -1.10    8.10
  -7  11   7    8.30    7.90
   6 -11  -7   33.00   15.80
   6 -11  -7   48.00   10.30
   5 -11  -7    4.20   11.10
  -5  11   7   12.90    7.30
   4 -11  -7   -2.60    8.70
  -4  11   7    7.10    5.70
  -3  11   7  851.41   35.30
  -2  11   7  473.05   22.60
  -1  11   7   80.89   10.20
  -1  11   7   89.29    9.00
   0  11   7  150.48   12.40
   0  11   7  133.59   13.30
   1  11   7   13.00    8.20
   1  11   7   26.80    7.00
   2  11   7  -14.60    9.30
   2  11   7    4.10    6.50
  13 -12  -7   26.50   16.60
  12 -12  -7  272.57   43.00
 -12  12   7  254.07   42.10
  11 -12  -7    5.90   12.00
 -11  12   7   36.30   21.50
  10 -12  -7   38.20   19.40
  10 -12  -7   51.09   17.70
 -10  12   7   74.99   21.60
   9 -12  -7  -18.50    9.80
   9 -12  -7   -6.30    8.50
  -9  12   7   22.50   12.80
   8 -12  -7  671.73   56.69
   8 -12  -7  648.14   39.70
  -8  12   7  576.54   42.80
   7 -12  -7  260.17   22.30
   7 -12  -7  235.48   40.40
  -7  12   7  254.07   25.90
   6 -12  -7  216.88   40.50
   6 -12  -7  213.38   24.20
  -6  12   7  192.68   19.50
   5 -12  -7   20.50   14.80
  -5  12   7   20.00    6.20
   4 -12  -7  128.89   31.40
  -4  12   7  181.58   11.90
  13 -13  -7  109.29   29.60
  12 -13  -7   23.50   15.50
  11 -13  -7   -0.80   12.80
  10 -13  -7  246.18   27.20
  10 -13  -7  203.08   37.60
   9 -13  -7  519.15   53.99
   9 -13  -7  506.45   35.70
   8 -13  -7   15.70   14.50
   8 -13  -7   -9.50    6.50
   7 -13  -7   17.70   11.90
   6 -13  -7   49.80   18.30
   5 -13  -7  119.79   33.60
   4 -13  -7   27.00   14.60
  11 -14  -7   30.90   25.70
  10 -14  -7   23.40   15.70
  10 -14  -7   -8.80   12.80
   9 -14  -7  205.58   21.00
   8 -14  -7    1.50   12.40
   7 -14  -7   73.09   27.30
   6 -14  -7   39.10   19.20
   4 -14  -7  180.88   39.20
   8 -15  -7   18.20   20.10
   7 -15  -7  111.59   32.80
   4 -14   8  188.98   39.90
   5 -14   8  124.69   32.00
   6 -14   8   28.20   13.50
   7 -14   8  286.47   45.60
   8 -14   8   -0.40   15.40
   8 -14   8   16.30    7.10
   9 -14   8   45.10   16.60
   9 -14   8    0.60    9.10
  10 -14   8   32.90   21.40
  10 -14   8   44.40   10.80
  11 -14   8  238.48   27.00
  11 -14   8  254.67   43.60
   3 -13   8   45.40   21.20
   4 -13   8   57.39   23.70
   5 -13   8  289.67   44.60
   6 -13   8  675.33   28.80
   6 -13   8  680.53   26.80
   6 -13   8  813.92   64.59
   7 -13   8   26.60    7.40
   7 -13   8   37.80   16.90
   8 -13   8   66.09   21.10
   8 -13   8   78.79   14.60
   8 -13   8   87.59   17.20
   9 -13   8   -2.60   12.90
   9 -13   8   28.10   10.70
   9 -13   8   -1.10    9.30
  10 -13   8   19.90   13.20
  10 -13   8    7.50    8.80
  10 -13   8  -21.60   12.90
  11 -13   8  162.58   33.20
   3 -12   8    6.50   11.60
   4 -12   8  -13.60    9.10
   4 -12   8   20.00    4.00
   4 -12   8   14.50    3.20
   5 -12   8   11.80    6.70
   5 -12   8    7.90    4.20
   5 -12   8    0.40   10.40
   6 -12   8  289.87   44.80
   6 -12   8  352.16   23.20
   7 -12   8    6.40    9.00
   7 -12   8   -4.30    6.80
   7 -12   8   21.50   14.50
   8 -12   8   18.80    9.50
   8 -12   8   37.60   17.70
   8 -12   8   39.80   15.10
   9 -12   8   22.80   13.70
   9 -12   8   47.10   13.80
   9 -12   8   28.00   14.80
  10 -12   8   31.40   15.90
  10 -12   8   11.90   17.00
  11 -12   8  553.14   51.99
  12 -12   8  163.88   34.10
  13 -12   8   49.10   19.20
   1 -11   8   77.99    9.00
   2 -11   8    1.80    4.00
   3 -11   8   41.00    7.10
   3 -11   8   21.00   16.20
   4 -11   8    9.20    4.70
   5 -11   8   44.20   17.50
   5 -11   8   30.00    8.30
   6 -11   8  302.47   50.59
   7 -11   8   -7.20    4.80
   8 -11   8   -3.50    5.60
   8 -11   8   -3.20   10.90
   8 -11   8   20.60   12.70
   9 -11   8    4.30   10.80
  10 -11   8  209.28   33.10
  10 -11   8  232.28   37.20
  11 -11   8   29.50   14.90
  12 -11   8  149.49   32.10
  13 -11   8  257.97   42.30
  14 -11   8  414.46   48.40
   3  10  -8   -4.40    9.30
   2  10  -8   -8.50    7.80
  -1 -10   8  254.67   22.10
   0 -10   8  127.59   14.90
   1 -10   8    1.80    3.60
   2 -10   8  228.98   17.50
   3 -10   8   22.00    6.10
   3 -10   8   13.50   10.30
   4 -10   8  266.67   32.40
   4 -10   8  270.77   20.50
   5 -10   8  509.15   31.00
   5 -10   8  510.05   45.30
   6 -10   8   58.99   16.20
   6 -10   8   91.39   15.70
   7 -10   8   62.69   13.60
   7 -10   8   59.79   18.10
   8 -10   8  240.78   36.40
   9 -10   8  209.08   36.80
   9 -10   8  278.17   33.80
  10 -10   8  169.98   31.80
  10 -10   8  133.79   27.20
  11 -10   8   79.59   22.50
  12 -10   8   32.40   14.90
  13 -10   8  -14.60   13.40
  14 -10   8  176.58   32.80
   5   9  -8   42.80   19.20
   4   9  -8   -1.20   12.00
   3   9  -8    4.10    9.70
  -3  -9   8   22.50   10.80
   2   9  -8    1.20    6.40
  -2  -9   8    0.80    7.20
   1   9  -8  279.67   22.90
  -1  -9   8  237.38   21.80
   0  -9   8  126.09   15.10
   0  -9   8  114.59   21.20
   1  -9   8    8.30    5.30
   2  -9   8   55.79   10.30
   3  -9   8  111.19   13.30
   3  -9   8  115.79   25.20
   4  -9   8   -2.60    3.90
   4  -9   8   10.80   10.70
   5  -9   8  998.10   60.69
   5  -9   8 1107.29   49.90
   6  -9   8  526.55   42.60
   6  -9   8  527.35   34.80
   7  -9   8 1041.20   62.19
   8  -9   8  114.59   23.00
   9  -9   8   89.89   21.30
  10  -9   8   -2.70    6.90
  11  -9   8   18.90   11.70
  12  -9   8   -0.50    9.80
  13  -9   8   73.39   20.50
   5   8  -8   53.89   17.20
  -5  -8   8   63.69   18.30
   4   8  -8   34.10   14.40
  -4  -8   8   15.70   13.60
   3   8  -8    4.10    7.70
  -3  -8   8   -7.30    5.10
   2   8  -8  189.98   20.90
  -2  -8   8  211.28   22.70
  -2  -8   8  213.98   27.00
   1   8  -8   84.09   15.80
  -1  -8   8   96.49   16.90
  -1  -8   8  101.99   21.20
   0   8  -8  608.14   33.70
   0  -8   8  574.04   42.20
   0  -8   8  578.74   33.50
   1  -8   8  388.96   25.60
   2  -8   8  701.43   35.20
   3  -8   8   84.99   19.90
   3  -8   8   85.19   13.70
   4  -8   8  248.38   21.00
   4  -8   8  330.67   31.20
   5  -8   8   14.30    6.70
   6  -8   8   -3.00    3.60
   6  -8   8    8.90    5.70
   7  -8   8  677.13   46.60
  -8   8  -8  585.34   47.50
   8  -8   8  543.55   42.50
  -9   8  -8   25.00   11.40
   9  -8   8   -8.30    7.10
  10  -8   8  238.78   30.00
  11  -8   8   52.89   18.40
  12  -8   8   11.90   10.90
  13  -8   8  360.46   39.50
  14  -8   8   39.40   13.90
   6   7  -8   24.70   15.80
  -6  -7   8   48.00   17.80
   5   7  -8   17.90   11.20
  -5  -7   8   15.30   11.20
   4   7  -8   -1.10    8.10
  -4  -7   8    0.10    5.70
   3   7  -8   24.60   11.80
  -3  -7   8   22.50   13.60
  -3  -7   8   12.60   10.50
   2   7  -8 1061.89   51.39
  -2  -7   8  957.70   68.79
  -2  -7   8 1029.00   52.79
   1   7  -8  745.33   39.70
  -1  -7   8  716.23   47.00
   0   7  -8  148.79   15.90
   0  -7   8  142.99   16.00
   0  -7   8  147.79   23.00
   1  -7   8   33.90    9.30
   2  -7   8  784.82   49.00
   2  -7   8  838.52   40.70
   3  -7   8  256.27   25.20
   3  -7   8  179.38   18.10
   4  -7   8  224.88   23.70
   5  -7   8  190.58   22.00
   5  -7   8  227.68   22.00
   6  -7   8   10.10    6.90
  -7   7  -8  143.49   24.90
   7  -7   8  195.68   22.70
  -8   7  -8  402.56   36.50
   8  -7   8  362.96   33.20
  -9   7  -8   51.19   13.80
   9  -7   8   57.49   15.80
  10  -7   8   20.70   11.70
  11  -7   8    2.10    8.60
  12  -7   8    2.70    8.20
  13  -7   8  662.03   57.19
  14  -7   8  191.58   36.80
  -7  -6   8  814.72   61.99
   6   6  -8  302.07   33.80
  -6  -6   8  377.96   37.40
   5   6  -8  245.18   40.40
  -5  -6   8  336.57   33.80
   4   6  -8   78.79   16.50
  -4  -6   8   77.59   17.80
  -4  -6   8   62.89   18.70
   3   6  -8  517.25   36.30
  -3  -6   8  512.45   40.70
  -3  -6   8  584.14   39.70
   2   6  -8    0.90    4.80
  -2  -6   8   -8.40    4.60
  -2  -6   8   32.80   10.30
   1   6  -8    8.20    5.70
  -1  -6   8   12.00    7.50
  -1  -6   8    8.90    7.20
   0   6  -8   68.49   12.70
   0  -6   8   63.29   12.50
  -1   6  -8 1033.40   47.30
   1  -6   8 1052.09   46.80
   2  -6   8   25.30    8.80
   2  -6   8   38.70    9.30
   3  -6   8   59.49   13.70
   3  -6   8   44.40   10.50
   4  -6   8   62.99   13.40
   5  -6   8    3.30    3.60
  -6   6  -8   66.89   15.20
   6  -6   8   52.49   12.50
  -7   6  -8   47.70   14.40
   7  -6   8   53.29   14.40
  -8   6  -8  683.43   47.90
   8  -6   8  750.72   47.70
  -9   6  -8  102.89   22.40
   9  -6   8  142.89   26.50
 -10   6  -8  257.57   32.30
  10  -6   8  257.17   30.40
  11  -6   8   23.60   12.60
  12  -6   8  302.67   44.40
  13  -6   8   17.10   12.30
  14  -6   8    1.60   11.40
  -9  -5   8  127.29   34.20
  -8  -5   8  355.86   42.30
  -7  -5   8   24.80   12.70
   6   5  -8   20.10   11.90
  -6  -5   8   32.80   13.70
   5   5  -8  391.96   35.50
  -5  -5   8  435.66   39.30
  -5  -5   8  435.86   39.90
   4   5  -8 1071.99   57.89
  -4  -5   8 1088.19   59.89
  -4  -5   8 1072.59   61.29
  -3  -5   8   -6.30    5.30
  -3  -5   8    1.20    4.80
   2   5  -8  238.08   21.90
  -2  -5   8  183.88   20.10
  -2  -5   8  213.58   22.40
  -1  -5   8   16.80    6.30
  -1  -5   8    2.70    5.50
   0   5  -8    1.20    4.80
   0  -5   8    6.10    4.20
  -1   5  -8  830.22   41.90
   1  -5   8  882.61   41.90
   2  -5   8    6.50    4.40
   2  -5   8    0.70    3.20
   3  -5   8   40.20   10.10
   3  -5   8   23.40    8.00
   4  -5   8   10.40    6.40
   4  -5   8   28.10    8.50
  -5   5  -8    2.40    5.20
   5  -5   8    3.70    5.40
  -6   5  -8 1051.39   53.59
   6  -5   8 1024.90   51.29
  -7   5  -8  851.71   49.99
   7  -5   8  804.22   47.40
  -8   5  -8   45.70   14.70
   8  -5   8   78.39   16.80
  -9   5  -8   22.40    9.70
   9  -5   8    5.50    8.10
 -10   5  -8  506.85   44.50
  10  -5   8  521.25   43.40
  11  -5   8  266.57   31.70
  12  -5   8   25.30   14.40
  13  -5   8   52.79   15.20
  14  -5   8    2.40   19.60
  -9  -4   8  102.19   29.90
  -8  -4   8   23.80   11.40
   6   4  -8  253.77   28.60
  -6  -4   8  140.69   25.70
  -6  -4   8  220.88   33.70
   5   4  -8    1.60    8.60
  -5  -4   8   -7.70    7.70
  -5  -4   8   14.50    9.50
   4   4  -8  284.97   27.50
  -4  -4   8  287.97   28.80
  -4  -4   8  237.88   25.60
   3   4  -8  199.58   21.30
  -3  -4   8  204.78   22.20
  -3  -4   8  244.48   23.30
   2   4  -8   39.60   11.00
  -2  -4   8   46.80   11.60
  -2  -4   8   37.20   10.10
   1   4  -8   41.40   10.90
  -1  -4   8   14.60    6.90
  -1  -4   8   20.70    7.60
   0   4  -8   45.50   10.30
   0  -4   8   62.59   12.10
  -1   4  -8 2500.95   84.19
   1  -4   8 2353.66   82.09
   1  -4   8 2468.95   78.79
   2  -4   8  942.71   44.40
   2  -4   8  890.81   38.60
   3  -4   8  292.27   20.10
   3  -4   8  247.08   23.30
  -4   4  -8   42.10    9.30
   4  -4   8   32.80    8.40
  -5   4  -8  870.11   44.10
   5  -4   8  865.41   43.00
  -6   4  -8   30.80   10.80
   6  -4   8    8.00    7.30
  -7   4  -8  183.48   21.60
   7  -4   8  208.38   22.70
  -8   4  -8  289.17   28.50
   8  -4   8  246.58   27.10
  -9   4  -8 1162.78   65.99
   9  -4   8 1062.99   62.29
  10  -4   8  101.49   22.70
  11  -4   8   -9.70    8.40
  12  -4   8   33.40   15.40
  13  -4   8   40.30   15.60
  14  -4   8    9.40   13.80
  10   3  -8   -3.40   12.70
 -10  -3   8   28.60   18.40
   9   3  -8    1.10    8.80
  -9  -3   8    6.70   13.20
   8   3  -8   43.70   15.80
  -8  -3   8   38.30   13.90
   7   3  -8   35.80   11.60
   7   3  -8    0.40   10.40
  -7  -3   8   -7.20    8.50
  -7  -3   8   10.40   10.60
   6   3  -8  122.59   24.10
   6   3  -8  140.89   28.20
  -6  -3   8  109.69   23.90
  -6  -3   8  147.59   25.00
   5   3  -8   90.09   18.90
  -5  -3   8   60.49   15.40
  -5  -3   8  102.59   20.80
   4   3  -8  201.58   23.60
  -4  -3   8  215.88   22.50
  -4  -3   8  195.78   23.60
   3   3  -8   88.29   16.60
  -3  -3   8   58.29   12.60
  -3  -3   8   54.19   13.70
   2   3  -8   46.20   11.20
  -2  -3   8   24.50    8.20
  -2  -3   8   47.10   11.40
   1   3  -8  282.47   23.00
  -1  -3   8  272.57   22.70
   0   3  -8 1225.28   52.59
   0  -3   8 1225.18   52.49
  -1   3  -8  125.49   14.80
   1  -3   8   92.59   15.00
   1  -3   8   99.59   10.00
   2  -3   8  187.68   13.40
   2  -3   8  165.38   17.50
  -3   3  -8 1210.18   46.30
   3  -3   8 1261.77   45.40
  -4   3  -8 2457.55   80.89
   4  -3   8 2542.95   80.19
  -5   3  -8    3.50    3.50
   5  -3   8    5.10    3.80
  -6   3  -8   59.69   14.30
   6  -3   8   61.79   13.90
  -7   3  -8  214.48   23.10
   7  -3   8  176.08   21.40
  -8   3  -8    5.40    6.10
   8  -3   8    3.80    5.80
  -9   3  -8  571.74   44.90
   9  -3   8  507.05   41.90
  10  -3   8   16.70   12.30
  11  -3   8   -6.50   10.40
  12  -3   8   33.30   17.90
  13  -3   8   -1.40   10.30
  14  -3   8  215.58   40.20
  11   2  -8  312.77   46.10
 -11  -2   8  380.46   48.30
  10   2  -8   47.70   17.60
 -10  -2   8   55.59   22.10
   9   2  -8   33.20   16.30
   8   2  -8  306.67   35.00
  -8  -2   8  325.07   53.89
  -8  -2   8  305.67   33.30
   7   2  -8   69.89   18.80
   7   2  -8   19.10   12.40
  -7  -2   8   41.80   23.10
  -7  -2   8   67.09   18.80
   6   2  -8  641.94   45.40
   6   2  -8  670.33   49.10
  -6  -2   8  667.93   44.90
  -6  -2   8  710.53   50.39
   5   2  -8  882.71   48.60
   5   2  -8  774.62   49.30
  -5  -2   8  793.52   46.40
  -5  -2   8  760.42   50.19
   4   2  -8   29.40    9.70
   4   2  -8   21.30    7.90
  -4  -2   8   26.80    9.40
  -4  -2   8   24.50    8.90
   3   2  -8    2.70    4.50
  -3  -2   8   12.20    6.20
  -3  -2   8    1.50    4.30
   2   2  -8  893.51   45.70
  -2  -2   8  823.92   55.49
  -2  -2   8  932.41   38.10
   1   2  -8  196.58   18.90
  -1  -2   8  172.88   12.40
  -1  -2   8  175.88   18.00
   0   2  -8  529.85   31.90
   0  -2   8  542.15   20.90
   0  -2   8  551.04   32.70
   0  -2   8  520.65   20.30
  -1   2  -8   67.09   12.60
   1  -2   8   75.39    6.40
   1  -2   8   78.19   13.60
  -2   2  -8  491.35   22.30
   2  -2   8  523.65   32.30
   2  -2   8  551.84   22.70
  -3   2  -8  107.29   11.00
   3  -2   8   96.69   10.50
   3  -2   8   96.79   16.50
  -4   2  -8  895.21   40.00
   4  -2   8  884.81   40.10
  -5   2  -8   47.60   11.70
   5  -2   8   39.00   10.00
  -6   2  -8   29.60    9.90
   6  -2   8   41.60   10.50
  -7   2  -8  226.48   23.90
   7  -2   8  177.48   21.50
  -8   2  -8   15.00    6.10
   8  -2   8    7.10    7.40
  -9   2  -8  938.21   60.69
   9  -2   8 1074.39   64.89
  10  -2   8  213.78   36.60
  11  -2   8   -2.40    8.30
  12  -2   8    9.30   14.50
  13  -2   8   27.50   21.00
  12   1  -8  -18.00   14.40
 -12  -1   8   15.80   21.70
  11   1  -8  207.98   36.40
 -11  -1   8  163.48   35.50
  10   1  -8   79.29   21.50
 -10  -1   8  140.89   33.40
   9   1  -8   11.10    9.60
   8   1  -8   -2.40    9.30
  -8  -1   8   13.00   11.10
  -8  -1   8   20.30   10.60
   7   1  -8  372.76   36.50
   7   1  -8  293.27   29.80
  -7  -1   8  295.97   30.70
  -7  -1   8  287.97   33.60
   6   1  -8   71.59   17.20
   6   1  -8   32.20   11.10
  -6  -1   8   43.70   12.40
  -6  -1   8   38.80   13.30
   5   1  -8  951.70   60.89
   5   1  -8  964.70   55.49
  -5  -1   8 1064.19   58.99
  -5  -1   8 1037.80   51.09
   4   1  -8  878.21   42.70
   4   1  -8  836.62   48.20
  -4  -1   8  862.21   41.60
  -4  -1   8  888.01   49.60
   3   1  -8 2463.45   78.29
   3   1  -8 2665.23   92.59
  -3  -1   8 2478.05   77.19
  -3  -1   8 2498.35   91.09
   2   1  -8  103.99   17.00
  -2  -1   8  110.99    9.70
   1   1  -8   69.59   13.20
  -1  -1   8   65.69   13.10
  -1  -1   8   69.19    5.10
   0   1  -8   12.30    5.80
   0  -1   8   17.50    5.80
  -1   1  -8    2.10    3.80
  -1   1  -8   14.80    2.80
   1  -1   8   11.80    2.60
   1  -1   8    7.50    4.10
  -2   1  -8   75.09    7.70
   2  -1   8   77.99    8.20
   2  -1   8   62.29   12.70
  -3   1  -8  185.28   14.90
   3  -1   8  169.68   15.00
  -4   1  -8  278.47   21.40
   4  -1   8  274.77   21.90
  -5   1  -8   21.50    8.50
   5  -1   8   46.80   12.00
  -6   1  -8    7.80    6.60
   6  -1   8   -0.30    4.20
  -7   1  -8   28.20    8.20
   7  -1   8   11.00    6.50
  -8   1  -8  838.52   59.99
   8  -1   8  759.52   53.09
  -9   1  -8   60.79   19.50
   9  -1   8  109.09   24.40
  10  -1   8  244.88   37.90
  11  -1   8  180.38   33.50
  12  -1   8  475.75   49.99
  13  -1   8   -2.00   11.00
  12   0  -8  155.78   32.20
 -12   0   8  153.68   35.80
  11   0  -8   40.80   17.60
 -11   0   8   35.30   15.60
  10   0  -8  100.29   23.50
 -10   0   8  123.29   28.10
   9   0  -8  108.19   23.40
  -9   0   8   98.59   24.30
  -9   0   8  133.79   25.00
   8   0  -8  600.64   47.80
   8   0  -8  619.14   45.30
  -8   0   8  529.85   48.30
  -8   0   8  593.54   44.40
   7   0  -8  175.88   26.80
   7   0  -8  142.59   25.70
  -7   0   8  195.58   27.80
  -7   0   8  185.48   30.90
   6   0  -8   68.59   14.60
   6   0  -8   73.09   17.10
  -6   0   8   89.79   20.60
  -6   0   8   52.99   13.20
   5   0  -8    8.50    5.30
   5   0  -8   15.50    6.80
  -5   0   8    5.50    4.90
  -5   0   8   10.70    7.00
   4   0  -8   34.90    8.60
   4   0  -8   35.60   10.50
  -4   0   8   58.89   13.70
  -4   0   8   49.30    9.80
   3   0  -8 1209.98   55.59
   3   0  -8 1195.38   43.40
  -3   0   8 1186.68   41.90
  -3   0   8 1216.48   56.19
   2   0  -8  510.65   20.80
   2   0  -8  523.75   33.00
  -2   0   8  547.65   34.00
  -2   0   8  550.74   20.70
   1   0  -8    4.70    4.10
  -1   0   8    9.40    5.70
   0   0  -8   20.10    6.90
   0   0   8   30.60    8.60
  -1   0  -8   14.30    3.30
   1   0   8    9.20    4.80
  -2   0  -8  555.34   25.30
   2   0   8  511.75   25.10
   2   0   8  497.85   34.60
  -3   0  -8 1266.37   49.10
   3   0   8 1215.98   49.30
  -4   0  -8   36.40   12.00
   4   0   8   40.20   10.20
  -5   0  -8   -1.70    4.70
   5   0   8    7.10    5.20
  -6   0  -8   56.99   15.30
   6   0   8   55.99   14.60
  -7   0  -8  144.09   25.10
   7   0   8  137.29   25.10
  -8   0  -8  595.14   47.60
   8   0   8  603.54   47.80
  10   0   8  113.99   26.80
  11   0   8   42.90   16.30
  12   0   8  100.09   30.00
  13  -1  -8  -19.50   16.00
 -13   1   8   21.00   15.80
  12  -1  -8  584.64   55.99
 -12   1   8  536.65   58.29
  11  -1  -8  243.08   38.90
 -11   1   8  309.87   39.50
  10  -1  -8  274.17   41.50
 -10   1   8  212.28   38.10
   9  -1  -8  106.79   22.20
  -9   1   8   92.79   22.00
  -9   1   8   90.69   24.30
   8  -1  -8  733.83   54.29
   8  -1  -8  661.33   46.90
  -8   1   8  729.23   48.20
  -8   1   8  771.62   56.49
   7  -1  -8   24.80   11.50
   7  -1  -8   17.00    7.50
  -7   1   8    3.10    4.80
  -7   1   8    4.60    4.90
   6  -1  -8    9.00    6.40
   6  -1  -8   -1.90    3.70
  -6   1   8   -3.80    4.50
  -6   1   8    0.20    3.70
   5  -1  -8   20.60    7.30
   5  -1  -8   15.20    7.50
  -5   1   8   22.80    8.80
  -5   1   8   31.00    8.50
   4  -1  -8  293.67   26.00
   4  -1  -8  262.87   19.00
  -4   1   8  282.27   19.20
  -4   1   8  273.97   25.60
   3  -1  -8  162.58   12.40
   3  -1  -8  204.48   19.90
  -3   1   8  172.08   12.90
  -3   1   8  154.08   18.20
   2  -1  -8   91.49   15.10
   2  -1  -8   77.89    6.70
  -2   1   8   85.09   15.20
   1  -1  -8   12.80    2.70
   1  -1  -8   14.50    6.40
  -1   1   8    6.70    4.80
   0  -1  -8   10.80    5.80
   0  -1  -8   11.50    3.00
   0   1   8   14.50    6.00
  -1  -1  -8   72.09    8.60
   1   1   8   84.09   14.60
  -2  -1  -8   95.99   11.90
  -3  -1  -8 2521.05   84.89
   3   1   8 2558.34   86.19
  -4  -1  -8  813.32   44.60
   4   1   8  862.81   49.99
  -5  -1  -8 1077.89   56.39
   5   1   8 1045.20   56.79
  -6  -1  -8   59.79   15.50
   6   1   8   35.40   12.80
  -7  -1  -8  388.06   35.50
   7   1   8  358.66   35.40
  -8  -1  -8    5.20   13.00
   8   1   8   14.60   13.00
  10   1   8  117.69   28.30
  11   1   8  213.98   38.20
  12   1   8    1.60   16.80
  13  -2  -8  136.99   29.30
 -13   2   8   90.69   25.80
  12  -2  -8   20.00   15.60
 -12   2   8   32.60   15.70
  11  -2  -8    2.30    9.00
 -11   2   8  -19.30    7.90
  10  -2  -8  153.18   29.00
 -10   2   8  153.38   34.10
 -10   2   8  203.38   37.90
   9  -2  -8 1035.30   60.99
  -9   2   8  989.40   60.19
  -9   2   8 1035.80   70.59
   8  -2  -8   -3.50    6.70
   8  -2  -8    7.10    7.30
  -8   2   8   -9.50    6.20
  -8   2   8    1.80    7.50
   7  -2  -8  219.68   22.90
   7  -2  -8  214.98   31.80
  -7   2   8  186.38   30.00
  -7   2   8  192.58   21.20
   6  -2  -8   36.90   13.70
   6  -2  -8   47.80   13.80
  -6   2   8   48.00   11.10
  -6   2   8   48.10   14.40
   5  -2  -8   48.20   13.20
   5  -2  -8   25.30    8.50
  -5   2   8   31.60   10.70
  -5   2   8   22.60    7.70
   4  -2  -8  933.61   49.10
   4  -2  -8  953.10   38.80
  -4   2   8  832.42   47.10
  -4   2   8  880.41   38.70
   3  -2  -8   96.59   16.60
   3  -2  -8  100.29    9.80
  -3   2   8   87.49   15.80
  -3   2   8   94.69   10.50
   2  -2  -8  496.85   22.60
   2  -2  -8  534.55   32.60
  -2   2   8  551.64   33.40
   1  -2  -8   68.69    7.90
   1  -2  -8   69.89   12.70
  -1   2   8   61.09   12.40
   0  -2  -8  513.05   31.60
   0  -2  -8  547.75   25.50
   0   2   8  504.25   31.60
  -1  -2  -8  172.28   15.40
   1   2   8  193.28   19.00
  -2  -2  -8  941.41   43.80
   2   2   8  893.81   46.90
  -3  -2  -8    5.90    4.50
  -4  -2  -8   16.90    7.80
   4   2   8   21.60    8.60
  -5  -2  -8  786.12   49.50
   5   2   8  770.62   49.60
  -6  -2  -8  676.43   48.80
   6   2   8  785.52   52.99
  -7  -2  -8   89.89   20.70
   7   2   8   69.99   17.60
   8   2   8  302.97   34.80
   9   2   8   12.60    9.30
  10   2   8  -17.30   12.70
  14  -3  -8  157.08   36.20
 -14   3   8  212.68   39.50
  13  -3  -8    3.20   15.90
 -13   3   8  -21.50   18.90
  12  -3  -8   20.90   14.50
 -12   3   8   22.80   16.50
  11  -3  -8   12.20   11.40
 -11   3   8    5.90    7.90
  10  -3  -8   38.90   13.70
 -10   3   8   19.50   11.40
 -10   3   8   21.70   11.00
   9  -3  -8  538.65   41.70
  -9   3   8  502.15   50.39
  -9   3   8  474.45   45.80
   8  -3  -8   17.70    7.60
   8  -3  -8   -0.70    4.80
  -8   3   8   -6.30    6.70
  -8   3   8   15.30    7.30
   7  -3  -8  229.58   22.90
   7  -3  -8  258.57   28.60
  -7   3   8  240.18   24.20
  -7   3   8  166.98   28.10
   6  -3  -8   70.09   17.80
   6  -3  -8   58.99   15.00
  -6   3   8   63.39   12.90
  -6   3   8   77.69   18.50
   5  -3  -8   -2.00    3.00
   5  -3  -8    7.70    4.00
  -5   3   8    4.00    4.10
  -5   3   8    9.40    5.20
   4  -3  -8 2663.33   80.59
   4  -3  -8 2490.85   90.89
  -4   3   8 2481.85   81.99
  -4   3   8 2416.76   91.09
   3  -3  -8 1240.28   54.89
   3  -3  -8 1187.58   45.60
  -3   3   8 1169.48   58.09
   2  -3  -8  172.78   14.60
   2  -3  -8  193.68   18.50
  -2   3   8  159.18   17.40
   1  -3  -8   83.29   13.90
  -1   3   8  114.39   14.20
   0  -3  -8 1288.27   49.70
   0   3   8 1211.18   53.69
  -1  -3  -8  255.07   21.50
   1   3   8  260.77   22.90
  -2  -3  -8   39.00   10.70
   2   3   8   31.90    9.60
  -3  -3  -8   64.49   15.30
  -4  -3  -8  171.98   26.20
  -5  -3  -8   59.59   15.70
  -6  -3  -8  126.99   23.30
   6   3   8  103.59   22.70
   7   3   8   13.60   12.80
   8   3   8   31.50   16.40
   9   3   8  -10.90    7.10
  10   3   8   13.90   19.60
  14  -4  -8   45.10   18.00
 -14   4   8   13.50   21.30
  13  -4  -8   22.80   16.10
 -13   4   8    7.90   17.60
  12  -4  -8   32.80   16.40
 -12   4   8   12.70   14.50
  11  -4  -8   -8.90    6.40
 -11   4   8    1.50    8.10
  10  -4  -8  129.29   24.20
 -10   4   8   64.49   18.80
 -10   4   8   92.99   22.80
   9  -4  -8 1092.59   60.59
   9  -4  -8 1053.69   71.99
  -9   4   8 1040.60   69.09
  -9   4   8 1008.30   60.69
   8  -4  -8  280.27   27.80
   8  -4  -8  322.87   32.40
  -8   4   8  264.37   27.80
  -8   4   8  246.98   30.10
   7  -4  -8  213.88   22.30
   7  -4  -8  165.88   26.50
  -7   4   8  206.58   22.80
  -7   4   8  216.18   26.60
   6  -4  -8   16.90    7.80
   6  -4  -8   28.70   10.20
  -6   4   8   35.40   12.20
  -6   4   8   26.10    9.00
   5  -4  -8  816.62   47.10
   5  -4  -8  850.11   42.40
  -5   4   8  854.61   44.80
  -5   4   8  920.61   50.79
   4  -4  -8   44.40    9.90
   4  -4  -8   27.10    9.30
  -4   4   8   34.40   10.10
   3  -4  -8  278.97   21.60
   3  -4  -8  248.18   22.30
   2  -4  -8  950.40   44.10
   2  -4  -8  894.31   44.00
  -2   4   8  885.71   44.60
   1  -4  -8 2446.86   83.39
  -1   4   8 2424.46   84.19
   0   4   8   40.80   10.20
  -1  -4  -8   26.50    8.90
  -2  -4  -8   67.49   14.80
   2   4   8   41.40   11.60
  -3  -4  -8  222.88   25.00
  -4  -4  -8  307.57   31.40
  -5  -4  -8   -2.10    7.70
  14  -5  -8   15.90   16.00
 -14   5   8    7.50   16.00
  13  -5  -8   81.29   24.00
 -13   5   8   52.79   23.50
  12  -5  -8   -3.50    7.90
 -12   5   8    5.40   13.40
  11  -5  -8  244.78   45.00
 -11   5   8  338.47   41.70
  10  -5  -8  503.45   41.80
 -10   5   8  548.75   50.79
 -10   5   8  438.86   41.40
   9  -5  -8    9.50   10.00
   9  -5  -8   14.90    9.20
  -9   5   8   13.40   10.40
  -9   5   8  -11.80    6.60
   8  -5  -8   70.49   16.90
   8  -5  -8   94.29   20.00
  -8   5   8   79.39   17.80
  -8   5   8   83.09   20.80
   7  -5  -8  787.72   45.30
   7  -5  -8  740.33   48.90
  -7   5   8  815.72   52.99
  -7   5   8  729.13   46.50
   6  -5  -8  950.90   49.30
   6  -5  -8  942.61   52.99
  -6   5   8 1022.20   56.69
  -6   5   8 1000.10   53.39
   5  -5  -8    8.90    6.60
  -5   5   8    4.40    5.70
   4  -5  -8   20.50    7.80
   4  -5  -8   15.80    7.20
  -4   5   8   14.20    7.30
   3  -5  -8   20.40    7.90
   3  -5  -8   19.90    7.90
   2  -5  -8    4.80    4.90
  -2   5   8    3.50    3.80
  -1   5   8  828.72   42.20
   0   5   8    8.50    4.70
  -1  -5  -8   -5.90    3.90
   1   5   8    3.10    4.60
  -2  -5  -8  230.58   25.20
   2   5   8  193.68   21.00
  -3  -5  -8    9.00    6.70
  -4  -5  -8 1026.40   63.29
   6   5   8   21.50   13.90
  14  -6  -8    1.80   13.00
 -14   6   8  -28.10   15.50
  13  -6  -8   25.50   15.20
 -13   6   8   -1.70   13.10
  12  -6  -8  332.37   36.90
 -12   6   8  271.27   46.20
  11  -6  -8   46.80   15.90
 -11   6   8   29.50   16.20
  10  -6  -8  192.98   31.60
 -10   6   8  235.88   49.70
 -10   6   8  246.28   35.80
   9  -6  -8  136.19   23.60
   9  -6  -8  135.79   26.90
  -9   6   8  150.38   26.50
  -9   6   8  147.89   28.70
   8  -6  -8  707.53   45.80
   8  -6  -8  729.73   60.49
  -8   6   8  677.63   51.39
  -8   6   8  682.73   48.30
   7  -6  -8   44.70   13.00
   7  -6  -8   42.50   12.70
  -7   6   8   28.80   11.40
  -7   6   8   12.80    8.00
   6  -6  -8   58.89   14.00
   6  -6  -8   61.29   14.20
  -6   6   8   69.39   16.60
   5  -6  -8    5.90    6.20
   5  -6  -8    2.40    4.70
  -5   6   8    1.00    4.60
   4  -6  -8   36.30   11.40
   4  -6  -8   46.70   11.30
  -4   6   8   57.99   13.20
   3  -6  -8   64.99   12.90
   3  -6  -8   55.39   13.90
  -3   6   8   57.89   16.40
   2  -6  -8   11.80    5.90
  -2   6   8   33.20    9.60
  -1   6   8  970.10   46.30
   0   6   8   51.19   11.60
  -1  -6  -8   18.70    9.10
   1   6   8   -4.80    3.20
  -2  -6  -8   12.00    8.90
   2   6   8   -6.00    4.90
  -3  -6  -8  546.15   44.30
   3   6   8  512.15   37.00
   6   6   8  355.46   39.40
  14  -7  -8  282.97   40.80
 -14   7   8  184.28   42.00
  13  -7  -8  681.83   57.09
 -13   7   8  822.82   73.29
  12  -7  -8   -6.10   10.50
 -12   7   8   26.50   13.00
  11  -7  -8   -1.30    8.30
 -11   7   8    4.90   11.90
  10  -7  -8    2.60    7.30
 -10   7   8   -7.10    9.60
 -10   7   8    9.00   10.70
   9  -7  -8   43.70   13.60
   9  -7  -8   46.60   14.60
  -9   7   8   56.29   16.60
  -9   7   8   41.10   15.50
   8  -7  -8  366.76   32.70
  -8   7   8  300.07   32.80
  -8   7   8  324.17   34.10
   7  -7  -8  175.68   26.40
   7  -7  -8  155.68   24.70
  -7   7   8  166.18   28.00
   6  -7  -8   18.60    7.40
   6  -7  -8    4.70    6.50
  -6   7   8   10.40    7.90
   5  -7  -8  234.08   24.90
   5  -7  -8  208.18   21.30
  -5   7   8  207.58   22.30
   4  -7  -8  209.38   24.30
   4  -7  -8  214.08   20.70
  -4   7   8  233.88   22.60
   3  -7  -8  189.98   23.90
   3  -7  -8  250.27   20.80
  -3   7   8  195.68   21.20
  -2   7   8  787.12   40.60
  -1   7   8   46.50   10.20
   0  -7  -8  157.78   25.50
   0   7   8  151.28   18.30
  -1  -7  -8  659.73   49.00
   1   7   8  775.42   41.80
  -2  -7  -8  997.50   62.49
   2   7   8  977.50   51.09
   3   7   8   39.80   12.40
   4   7   8    4.10   10.30
   5   7   8   56.49   17.50
  14  -8  -8   37.80   17.30
  13  -8  -8  343.77   41.50
 -13   8   8  327.17   53.09
  12  -8  -8   39.50   14.80
 -12   8   8   29.80   17.10
  11  -8  -8   36.60   13.30
 -11   8   8   57.39   20.40
  10  -8  -8  250.07   29.80
 -10   8   8  293.67   36.50
   9  -8  -8   -8.20   10.30
   9  -8  -8   24.80   11.30
  -9   8   8   15.80   10.40
  -9   8   8   17.90    9.20
   8  -8  -8  549.35   42.50
   8  -8  -8  577.14   44.10
  -8   8   8  546.45   44.40
   7  -8  -8  730.53   49.60
   7  -8  -8  768.52   47.40
  -7   8   8  763.32   50.39
   6  -8  -8   12.00    7.80
   6  -8  -8   -3.70    6.30
  -6   8   8    1.70    5.00
   5  -8  -8  -10.30    3.70
   5  -8  -8    5.00    6.40
  -5   8   8    2.00    4.60
   4  -8  -8  258.17   30.40
   4  -8  -8  280.37   22.90
  -4   8   8  291.87   24.60
   3  -8  -8   61.09   11.50
  -3   8   8   63.19   12.80
  -2   8   8  682.63   37.50
  -1   8   8  385.36   26.90
   0  -8  -8  612.34   45.80
   0   8   8  582.54   36.90
   1   8   8  106.39   17.60
   2   8   8  171.38   20.70
   3   8   8   -5.30    7.40
   4   8   8   69.39   18.50
   4   8   8   46.10   15.20
   5   8   8   88.09   21.90
   5   8   8   87.99   20.80
   6   8   8   14.10   12.20
  14  -9  -8  140.09   29.30
 -14   9   8  175.28   65.09
  13  -9  -8  108.29   25.30
 -13   9   8   77.89   26.40
  12  -9  -8   -1.50   11.00
 -12   9   8    5.70   10.20
  11  -9  -8  -19.20    8.00
 -11   9   8    7.70   10.30
  10  -9  -8   -7.70    5.30
 -10   9   8   -2.90    8.80
   9  -9  -8  116.09   22.80
   9  -9  -8  104.19   24.30
  -9   9   8   93.29   22.70
   8  -9  -8  125.79   22.80
   8  -9  -8   89.09   19.80
  -8   9   8   93.19   21.00
   7  -9  -8 1048.00   63.59
   7  -9  -8 1067.59   55.29
  -7   9   8  994.60   58.09
   6  -9  -8  562.94   44.80
   6  -9  -8  492.25   34.10
  -6   9   8  521.45   37.90
   5  -9  -8 1067.99   50.59
   5  -9  -8 1179.88   68.79
  -5   9   8 1092.39   55.19
   4  -9  -8   -0.90    8.20
   4  -9  -8    9.20    6.30
  -3   9   8  159.28   17.80
  -2   9   8   34.00   10.10
  -1   9   8   20.30    7.50
   0   9   8   87.59   14.60
   1   9   8  267.67   24.30
   2   9   8  -14.10    6.40
   3   9   8   25.10   13.30
   3   9   8   34.20   12.20
   4   9   8   12.50   10.30
   4   9   8   22.90   15.60
   5   9   8   -0.80   13.20
   5   9   8   74.09   23.20
  14 -10  -8  138.79   41.00
 -14  10   8  207.08   43.70
  13 -10  -8   25.00   16.90
 -13  10   8   26.40   20.30
  12 -10  -8   51.59   16.80
 -12  10   8   11.30   15.50
  11 -10  -8   99.09   24.00
 -11  10   8   75.79   21.60
  10 -10  -8  139.09   27.20
 -10  10   8   95.09   25.00
   9 -10  -8  284.07   30.10
   9 -10  -8  265.97   33.20
  -9  10   8  268.97   32.50
   8 -10  -8  183.78   27.00
  -8  10   8  160.68   28.10
   7 -10  -8   42.70   11.90
   7 -10  -8   32.30   14.10
  -7  10   8   64.49   15.20
   6 -10  -8   85.99   14.70
   6 -10  -8   97.19   23.60
  -6  10   8  107.49   20.40
   5 -10  -8  516.45   47.40
   5 -10  -8  502.15   31.70
  -5  10   8  438.06   32.70
   4 -10  -8  226.08   36.50
  -4  10   8  252.07   22.50
  -3  10   8   20.20    7.90
  -2  10   8  251.47   20.80
  -1  10   8   -3.80    5.30
   0  10   8  128.69   15.00
   1  10   8  200.48   22.50
   2  10   8    9.50   10.50
   2  10   8   27.90   10.10
   3  10   8    3.40    8.50
   3  10   8   10.50   14.30
   4  10   8   63.69   14.90
  14 -11  -8  317.17   47.10
  13 -11  -8  303.47   44.90
 -13  11   8  308.57   50.19
  12 -11  -8  195.48   35.00
 -12  11   8  230.98   41.80
  11 -11  -8   43.50   20.00
 -11  11   8   29.50   14.30
  10 -11  -8  280.87   33.60
  10 -11  -8  217.08   36.10
 -10  11   8  294.47   36.80
   9 -11  -8    2.40    9.60
   9 -11  -8  -10.10    5.20
  -9  11   8    0.30   10.90
   8 -11  -8   -0.20    6.60
   8 -11  -8  -12.30    6.90
  -8  11   8    4.20    8.30
   7 -11  -8   10.80    7.50
   7 -11  -8    4.90   10.60
  -7  11   8  -16.10    6.90
   6 -11  -8  202.08   36.10
   6 -11  -8  316.17   25.50
  -6  11   8  271.57   26.60
   5 -11  -8   19.70   13.00
  -5  11   8   11.30    8.50
   4 -11  -8   10.40   12.20
  -4  11   8   -5.80    6.40
  -3  11   8   32.50    8.70
  -2  11   8   11.60    5.90
  -1  11   8   96.99   11.80
   0  11   8   19.70    7.60
   0  11   8   19.60    9.70
   1  11   8  517.05   29.20
   2  11   8  -22.90   11.00
   3  11   8   12.70   12.20
  13 -12  -8   22.30   18.10
 -13  12   8   -5.70   19.60
  12 -12  -8  215.98   37.90
 -12  12   8  150.98   33.00
  11 -12  -8  524.95   50.89
 -11  12   8  503.25   50.09
  10 -12  -8   16.30   14.10
  10 -12  -8   21.40   15.70
 -10  12   8   13.30   14.40
   9 -12  -8   19.30   16.50
  -9  12   8   13.60   13.20
   8 -12  -8   46.90   12.00
   8 -12  -8   22.00   14.00
  -8  12   8   14.30   10.10
   7 -12  -8   -3.30    5.20
   7 -12  -8   -7.40    7.00
  -7  12   8  -17.20    6.40
   6 -12  -8  347.87   50.49
   6 -12  -8  302.47   23.60
   5 -12  -8   -8.50   11.40
  -5  12   8    6.90    6.60
   4 -12  -8   28.10   16.00
  -4  12   8   13.50    7.40
  -3  12   8    6.90    4.90
  -2  12   8   42.30    5.50
  -2  12   8   33.10    5.00
  12 -13  -8   14.10   14.60
  11 -13  -8   68.49   25.90
 -11  13   8  137.89   37.40
  10 -13  -8   15.90   14.40
  10 -13  -8  -21.90   11.60
 -10  13   8  -11.90   12.20
   9 -13  -8    2.70   10.40
   9 -13  -8   23.10   13.70
  -9  13   8   35.70   13.90
   8 -13  -8   96.09   15.90
  -8  13   8   51.79   15.80
   7 -13  -8   -4.80   12.40
   7 -13  -8   30.50    8.90
  -7  13   8   37.00   13.70
   6 -13  -8  774.72   67.19
  -6  13   8  656.53   35.10
   5 -13  -8  371.86   45.50
   4 -13  -8   63.59   26.00
  11 -14  -8  191.48   38.10
  10 -14  -8   68.09   24.60
   9 -14  -8   62.69   26.80
   9 -14  -8   41.80   13.90
   8 -14  -8    4.90    7.70
   7 -14  -8  235.88   51.19
   5 -14  -8   98.39   28.40
   4 -14  -8  135.79   35.50
   4 -14   9  592.54   59.89
   5 -14   9  418.06   48.10
   6 -14   9 1221.08   84.39
   7 -14   9  253.67   15.80
   7 -14   9  345.67   42.00
   8 -14   9  179.08   36.00
   9 -14   9   64.09   18.40
   9 -14   9   21.50   11.20
  10 -14   9   36.40   13.40
   2 -13   9  330.17   52.89
   3 -13   9 1145.89   84.29
   4 -13   9  324.57   48.00
   5 -13   9  682.43   22.20
   5 -13   9  795.52   64.89
   6 -13   9   22.30    7.90
   6 -13   9   -0.20   13.40
   6 -13   9   28.20    7.70
   7 -13   9  316.17   26.50
   7 -13   9  416.86   46.70
   8 -13   9    7.10    8.90
   8 -13   9   18.10   12.50
   8 -13   9   -3.60   10.50
   9 -13   9  610.14   40.40
   9 -13   9  581.54   44.40
   9 -13   9  602.04   55.49
  10 -13   9  121.39   21.30
  10 -13   9   56.19   22.50
  10 -13   9   98.89   22.20
  11 -13   9  -14.90   12.30
  11 -13   9  -21.70   10.00
  12 -13   9  459.65   49.90
   2 -12   9   19.10   15.70
   3 -12   9   33.90    5.70
   3 -12   9   23.10   15.60
   4 -12   9    5.70   10.60
   4 -12   9   20.20    6.60
   5 -12   9  789.02   36.20
   5 -12   9  858.41   64.79
   6 -12   9  256.17   40.30
   7 -12   9   52.69   12.80
   7 -12   9   18.10   13.30
   7 -12   9   58.09   16.40
   8 -12   9  854.61   47.90
   8 -12   9  836.82   55.09
   8 -12   9  842.02   63.29
   9 -12   9   -0.40    8.30
   9 -12   9   -4.20    6.90
   9 -12   9    8.30   12.10
  10 -12   9   14.00   10.60
  10 -12   9   24.00   16.10
  10 -12   9   -3.20   12.50
  11 -12   9   22.70   14.90
  12 -12   9  882.21   69.29
  13 -12   9  140.69   34.40
   0 -11   9 1734.43   61.09
   1 -11   9  306.97   21.20
   2 -11   9  612.54   29.90
   3 -11   9  656.53   31.90
   3 -11   9  660.23   55.99
   4 -11   9    1.60    4.90
   5 -11   9  555.14   52.09
   6 -11   9  108.59   16.70
   7 -11   9   95.09   17.30
   7 -11   9  122.99   26.00
   8 -11   9  308.57   35.70
   8 -11   9  298.17   28.80
   9 -11   9   -2.20   13.50
   9 -11   9    3.90   11.90
   9 -11   9   12.40    9.30
  10 -11   9  398.66   41.70
  11 -11   9 1846.22   98.69
  12 -11   9  185.28   33.60
  13 -11   9  315.57   47.90
   3  10  -9  129.19   21.40
   2  10  -9   39.50   12.00
  -2 -10   9   18.20   12.10
   0 -10   9  146.49   16.90
   1 -10   9  250.17   20.70
   2 -10   9    3.50    5.10
   3 -10   9  440.76   42.60
   3 -10   9  499.95   29.40
   4 -10   9    9.10    6.20
   4 -10   9    9.60    9.80
   5 -10   9 1876.11   72.69
   5 -10   9 2064.29   95.39
   6 -10   9 2208.58   83.69
   6 -10   9 2314.37  103.39
   7 -10   9  362.56   29.90
   7 -10   9  353.86   37.00
   8 -10   9  806.12   57.69
   8 -10   9  899.81   53.89
   9 -10   9  196.88   32.80
  10 -10   9  156.38   30.80
  11 -10   9  301.77   38.30
  12 -10   9   17.60   15.00
  13 -10   9 1182.28   80.29
  14 -10   9  645.34   59.29
   5   9  -9   57.89   23.40
   4   9  -9  534.95   41.80
  -4  -9   9  675.93   48.20
   3   9  -9   35.80   12.20
  -3  -9   9   11.60   10.10
   2   9  -9   -7.20    8.20
  -2  -9   9    8.10    8.30
   1   9  -9  264.87   24.20
  -1  -9   9  283.07   24.80
   0  -9   9  524.55   39.90
   0  -9   9  590.44   45.80
   1  -9   9   13.10    6.90
   2  -9   9   44.40    9.60
   3  -9   9    8.00    9.20
   3  -9   9    6.10    6.60
   4  -9   9 2808.32  113.99
   4  -9   9 2938.21   96.49
   5  -9   9   91.59   16.00
   5  -9   9  104.59   21.80
   6  -9   9  218.78   23.40
   6  -9   9  233.88   28.40
   7  -9   9  225.28   27.80
   7  -9   9  235.78   25.60
   8  -9   9 3407.86  130.39
   9  -9   9  617.84   48.50
  10  -9   9  236.88   36.40
  11  -9   9  647.74   53.09
  12  -9   9   24.50   13.80
  13  -9   9  300.27   45.60
  14  -9   9  343.97   60.29
  -6  -8   9  151.68   52.19
   5   8  -9   30.80   18.00
  -5  -8   9    7.80   12.90
   4   8  -9  873.91   52.69
  -4  -8   9  891.41   55.79
   3   8  -9  273.77   28.40
  -3  -8   9  273.67   28.70
   2   8  -9  883.91   47.10
  -2  -8   9  834.12   47.40
  -2  -8   9  761.02   54.49
   1   8  -9 3160.78  107.89
  -1  -8   9 3424.66  112.09
  -1  -8   9 3459.45  126.89
   0   8  -9  204.58   20.30
   0  -8   9  247.08   27.00
   0  -8   9  221.58   22.50
   1  -8   9  241.88   24.70
   2  -8   9   -0.70    5.70
   2  -8   9   -2.20    4.10
   3  -8   9 1663.23   69.39
   3  -8   9 1705.13   78.59
   4  -8   9  216.88   25.00
   4  -8   9  246.48   22.00
   5  -8   9   55.69   13.00
   5  -8   9   88.49   19.00
   6  -8   9  306.57   30.00
   6  -8   9  309.67   27.70
   7  -8   9 1896.01   84.89
  -8   8  -9  164.98   28.80
   8  -8   9  217.18   26.90
  -9   8  -9   17.10   10.90
   9  -8   9   14.00    9.00
  10  -8   9   -0.50    4.80
  11  -8   9  622.84   50.79
  12  -8   9   40.70   15.90
  13  -8   9  801.32   63.09
  -7  -7   9  290.97   44.40
  -6  -7   9  354.06   39.50
   5   7  -9   21.10   14.10
  -5  -7   9   42.10   15.80
   4   7  -9  124.49   21.30
  -4  -7   9  139.39   26.60
   3   7  -9  327.57   29.80
  -3  -7   9  303.67   33.00
  -3  -7   9  284.07   29.50
   2   7  -9  231.38   23.10
  -2  -7   9  246.28   29.00
  -2  -7   9  289.37   26.60
   1   7  -9 1817.62   72.19
  -1  -7   9 1754.22   79.89
  -1  -7   9 1858.11   73.69
   0   7  -9 1114.69   53.09
   0  -7   9 1298.87   62.09
   0  -7   9 1250.47   55.29
   2  -7   9 3276.37  116.49
   3  -7   9   13.70    7.10
   3  -7   9    6.60    4.80
   4  -7   9  551.04   34.70
   4  -7   9  532.15   37.60
   5  -7   9    3.90    5.60
   5  -7   9   10.00    6.20
   6  -7   9    0.60    5.10
   6  -7   9   17.00    8.00
  -7   7  -9 1219.58   66.39
   7  -7   9 1247.38   63.79
  -8   7  -9  255.27   29.80
   8  -7   9  255.97   28.10
  -9   7  -9   28.80   12.50
   9  -7   9   33.60   13.00
  10  -7   9  453.85   41.30
  11  -7   9  -16.80    6.30
  12  -7   9  806.12   60.59
  13  -7   9   46.90   18.00
  -8  -6   9 1111.29   77.99
  -7  -6   9    7.90   16.40
  -6  -6   9  300.17   34.50
   5   6  -9  107.79   21.50
  -5  -6   9  130.99   23.60
   4   6  -9 2286.97   94.99
  -4  -6   9 2270.07  100.69
  -4  -6   9 2265.87   96.09
   3   6  -9  265.97   26.10
  -3  -6   9  232.98   26.80
  -3  -6   9  260.67   27.10
   2   6  -9  222.58   23.40
  -2  -6   9  273.17   27.70
  -2  -6   9  337.57   28.30
   1   6  -9    3.00    4.90
  -1  -6   9    3.70    7.10
  -1  -6   9   20.60    7.70
   0   6  -9  595.94   36.10
   0  -6   9  608.54   36.40
   0  -6   9  637.64   38.60
  -1   6  -9  216.58   20.50
   1  -6   9  189.28   20.80
   2  -6   9 1922.41   75.19
   2  -6   9 1835.42   71.69
   3  -6   9   14.90    7.20
   3  -6   9   19.90    8.30
   4  -6   9 1849.61   86.89
   4  -6   9 1843.32   73.49
   5  -6   9 1051.49   54.19
   5  -6   9 1034.70   51.39
  -6   6  -9  666.23   43.70
   6  -6   9  691.73   41.90
  -7   6  -9 3161.08  117.69
   7  -6   9 3339.77  115.79
  -8   6  -9   29.70   11.30
   8  -6   9   22.30    9.80
  -9   6  -9   21.60    9.20
   9  -6   9   10.20    9.00
  10  -6   9  -12.90    6.80
  11  -6   9  520.45   46.00
  12  -6   9  294.87   36.60
  13  -6   9  442.66   46.80
  -9  -5   9  404.96   47.60
  -8  -5   9  771.42   64.09
  -7  -5   9  686.63   56.49
   6   5  -9  542.75   45.70
  -6  -5   9  530.15   47.20
   5   5  -9 1883.81   87.19
  -5  -5   9 1859.01   88.19
  -5  -5   9 1820.82   87.69
   4   5  -9   89.59   18.60
  -4  -5   9   96.69   19.20
  -4  -5   9  108.19   21.10
   3   5  -9   70.69   15.40
  -3  -5   9   74.09   15.70
  -3  -5   9   51.59   15.50
   2   5  -9    7.70    6.30
  -2  -5   9   -2.20    6.70
  -2  -5   9    6.80    5.60
   1   5  -9 1029.50   51.19
  -1  -5   9 1098.59   51.59
  -1  -5   9 1108.19   52.69
   0   5  -9    0.80    5.80
   0  -5   9    6.10    4.00
  -1   5  -9  166.18   17.80
   1  -5   9  174.08   19.30
   2  -5   9 1158.78   52.79
   2  -5   9 1131.79   49.40
   3  -5   9  972.30   48.70
   3  -5   9 1029.10   45.80
   4  -5   9   51.89   10.90
   4  -5   9   57.19   13.40
  -5   5  -9   -5.20    3.90
   5  -5   9   -0.40    3.60
  -6   5  -9  197.58   22.10
   6  -5   9  224.68   22.20
  -7   5  -9 3037.60  110.89
   7  -5   9 3077.69  108.79
  -8   5  -9 1516.85   73.99
   8  -5   9 1524.75   72.49
  -9   5  -9 2718.63  113.39
   9  -5   9 2949.41  113.39
 -10   5  -9 1832.82  110.89
  10  -5   9 2068.79   94.99
  11  -5   9  126.49   25.40
  12  -5   9   29.80   15.10
  13  -5   9    6.70   13.20
  14  -5   9    0.40   19.10
  -9  -4   9  279.67   44.70
  -8  -4   9   34.80   18.60
  -7  -4   9   19.80   12.80
   6   4  -9   18.00   10.70
  -6  -4   9   20.10   12.80
  -6  -4   9    2.00    9.60
   5   4  -9 2845.42  116.99
  -5  -4   9 2797.82  110.59
  -5  -4   9 2977.10  116.29
   4   4  -9  181.38   23.10
  -4  -4   9  194.78   24.60
  -4  -4   9  212.28   24.30
   3   4  -9  474.85   35.80
  -3  -4   9  524.65   38.10
  -3  -4   9  595.84   38.20
   2   4  -9 1916.61   75.59
  -2  -4   9 1702.23   68.69
  -2  -4   9 1795.62   74.39
   1   4  -9   80.99   15.60
  -1  -4   9   42.30   11.50
  -1  -4   9   62.59   12.00
   0   4  -9 1203.08   54.59
   0  -4   9 1176.48   46.60
   0  -4   9 1174.78   53.89
  -1   4  -9  108.69   17.60
   1  -4   9  127.29   13.00
   1  -4   9  115.69   18.50
   2  -4   9 2011.80   76.39
   2  -4   9 2102.89   67.19
   3  -4   9    9.90    5.80
   3  -4   9   16.40    5.80
  -4   4  -9 1189.28   50.99
   4  -4   9 1216.98   49.20
   4  -4   9 1220.68   58.39
  -5   4  -9  194.18   19.80
   5  -4   9  174.68   18.00
  -6   4  -9 1805.42   74.09
   6  -4   9 1864.11   73.19
  -7   4  -9   20.50    8.00
   7  -4   9   -0.30    5.10
  -8   4  -9  223.68   25.30
   8  -4   9  198.08   23.50
  -9   4  -9  101.09   21.90
   9  -4   9   89.49   21.20
  10  -4   9 2284.77  103.79
  11  -4   9   85.19   23.80
  12  -4   9  868.71   65.69
  13  -4   9  571.74   56.89
  14  -4   9    8.40   13.50
 -10  -3   9 1261.37   87.19
  -9  -3   9   11.20   18.20
  -8  -3   9  613.94   54.79
  -7  -3   9  416.76   39.30
  -7  -3   9  435.16   42.80
   6   3  -9  -14.80    8.10
  -6  -3   9    5.40    7.50
  -6  -3   9   28.20   11.90
   5   3  -9 1570.44   77.19
  -5  -3   9 1608.34   73.89
  -5  -3   9 1702.33   80.99
   4   3  -9   14.80    7.60
  -4  -3   9    4.60    6.60
  -4  -3   9    4.30    7.30
   3   3  -9    4.50    5.80
  -3  -3   9   23.10    8.30
  -3  -3   9   14.80    7.20
   2   3  -9  995.10   50.39
  -2  -3   9  973.90   50.29
  -2  -3   9  973.70   43.80
   1   3  -9   20.20    8.80
  -1  -3   9   22.80    6.70
  -1  -3   9   11.80    6.50
   0   3  -9 3828.32  119.69
   0  -3   9 3810.52  119.49
   0  -3   9 3839.92  102.19
  -1   3  -9 6515.35  179.08
   1  -3   9 6523.35  157.28
   1  -3   9 6089.69  178.88
   2  -3   9 1821.82   55.99
   2  -3   9 1854.71   72.09
  -3   3  -9 3702.23  106.49
   3  -3   9 3879.51  122.59
   3  -3   9 3903.11  105.89
  -4   3  -9  123.29   13.80
   4  -3   9  121.09   13.20
   4  -3   9   98.79   17.80
  -5   3  -9 1090.99   51.79
   5  -3   9 1070.99   48.80
  -6   3  -9    9.80    6.50
   6  -3   9    1.80    5.00
  -7   3  -9  505.05   36.70
   7  -3   9  466.45   35.90
  -8   3  -9   62.59   15.80
   8  -3   9   49.60   14.10
  -9   3  -9  191.18   31.50
   9  -3   9  287.97   31.70
  10  -3   9  298.67   36.60
  11  -3   9  273.87   41.50
  12  -3   9   24.40   16.20
  13  -3   9   63.69   23.50
  11   2  -9  335.67   41.80
 -11  -2   9  324.57   50.79
  10   2  -9   30.00   15.50
 -10  -2   9   67.79   21.30
   9   2  -9  608.84   51.29
  -9  -2   9  656.83   58.39
   8   2  -9    7.40    7.60
  -8  -2   9   33.80   12.80
  -8  -2   9   -2.90    9.60
   7   2  -9   66.89   17.40
   7   2  -9   52.39   16.40
  -7  -2   9   18.20   14.20
   6   2  -9   -7.40    4.00
   6   2  -9    2.20    8.10
  -6  -2   9    0.30    7.50
  -6  -2   9   -9.50    5.90
   5   2  -9 3070.79  117.79
   5   2  -9 3258.77  111.39
  -5  -2   9 3203.48  110.59
  -5  -2   9 3242.28  121.49
   4   2  -9 1844.02   72.49
   4   2  -9 1955.50   82.79
  -4  -2   9 1890.81   72.49
  -4  -2   9 1921.11   81.99
   3   2  -9 1139.19   56.39
  -3  -2   9 1076.19   46.10
  -3  -2   9 1015.90   53.99
   2   2  -9 1994.90   77.99
  -2  -2   9 2024.60   63.99
  -2  -2   9 1956.00   77.69
   1   2  -9 1823.92   71.89
  -1  -2   9 1795.52   53.69
  -1  -2   9 1884.71   72.79
   0   2  -9   26.10    9.60
   0  -2   9   24.10    4.00
   0  -2   9   24.00    4.10
   0  -2   9   18.70    7.70
  -1   2  -9  380.06   28.10
   1  -2   9  363.96   14.70
   1  -2   9  392.36   28.90
  -2   2  -9   25.80    5.20
   2  -2   9   24.50    5.10
   2  -2   9   21.90    8.30
  -3   2  -9 6419.26  163.68
   3  -2   9 6504.15  163.98
   3  -2   9 6458.55  184.28
  -4   2  -9 1982.00   68.89
   4  -2   9 2090.69   70.39
  -5   2  -9  964.00   46.70
   5  -2   9 1063.29   49.40
  -6   2  -9 1844.32   74.39
   6  -2   9 1771.72   74.09
  -7   2  -9    1.90    5.70
   7  -2   9   16.40    8.20
  -8   2  -9  284.37   29.70
   8  -2   9  233.68   28.00
  -9   2  -9  239.28   29.20
   9  -2   9  210.88   33.40
  10  -2   9  824.72   59.59
  11  -2   9  -14.00    8.90
  12  -2   9   34.30   17.70
  13  -2   9   14.80   12.90
  12   1  -9  108.09   28.90
 -12  -1   9  179.48   37.30
  11   1  -9  195.98   38.00
 -11  -1   9  151.88   32.40
  10   1  -9  260.57   40.20
 -10  -1   9  318.17   40.60
   9   1  -9  272.17   39.40
  -9  -1   9  248.98   41.00
   8   1  -9   10.60    9.50
  -8  -1   9   24.40   11.60
   7   1  -9  219.48   26.70
   7   1  -9  216.38   27.70
  -7  -1   9  228.78   26.50
  -7  -1   9  215.88   34.60
   6   1  -9 3285.87  115.59
  -6  -1   9 3408.06  115.99
  -6  -1   9 3148.08  124.79
   5   1  -9  187.58   28.00
  -5  -1   9  203.68   20.90
  -5  -1   9  194.68   24.30
   4   1  -9  179.88   18.00
   4   1  -9  170.88   20.70
  -4  -1   9  190.88   17.60
  -4  -1   9  184.28   21.90
   3   1  -9  128.09   20.90
   3   1  -9  128.39   12.40
  -3  -1   9  123.29   20.00
  -3  -1   9  108.79   11.70
   2   1  -9 6533.85  180.58
  -2  -1   9 6535.15  180.78
  -2  -1   9 5923.81  152.18
   1   1  -9  345.17   27.00
  -1  -1   9  376.26   11.60
  -1  -1   9  328.77   26.50
   0   1  -9  806.02   42.80
   0  -1   9  829.02   45.80
  -1   1  -9  791.82   42.50
   1  -1   9  768.12   42.00
  -2   1  -9  344.47   17.20
   2  -1   9  375.06   18.90
   2  -1   9  334.77   27.20
  -3   1  -9 1890.41   61.59
   3  -1   9 1932.71   77.79
   3  -1   9 1941.71   64.29
  -4   1  -9   12.70    5.70
   4  -1   9    7.10    5.80
  -5   1  -9   60.09   13.20
   5  -1   9   74.29   14.90
  -6   1  -9 1096.99   57.09
   6  -1   9 1212.08   59.89
  -7   1  -9    6.30    6.80
   7  -1   9    8.60    6.80
  -8   1  -9 1975.10   90.59
   8  -1   9 1896.21   90.19
   9  -1   9 3176.08  128.79
  10  -1   9  280.07   33.50
  11  -1   9  380.66   41.90
  12  -1   9   35.30   14.60
  13  -1   9  572.84   57.59
  12   0  -9  935.61   70.79
 -12   0   9  813.92   79.19
  11   0  -9 1820.82   98.39
 -11   0   9 1863.31  108.59
  10   0  -9  107.59   25.00
 -10   0   9  103.39   29.10
   9   0  -9  686.23   50.99
  -9   0   9  523.75   44.50
  -9   0   9  574.24   52.69
   8   0  -9  192.38   24.00
  -8   0   9  206.48   34.10
  -8   0   9  174.08   27.50
   7   0  -9 1159.58   69.69
   7   0  -9 1177.08   61.79
  -7   0   9 1200.08   61.89
  -7   0   9 1419.26   76.89
   6   0  -9  536.05   42.60
   6   0  -9  661.63   41.00
  -6   0   9  666.33   48.10
  -6   0   9  662.83   39.90
   5   0  -9   25.60    8.30
   5   0  -9    4.90    5.80
  -5   0   9   -7.00    4.50
  -5   0   9   10.70    6.10
   4   0  -9 1290.67   50.29
   4   0  -9 1240.18   61.49
  -4   0   9 1165.08   60.09
  -4   0   9 1258.57   48.10
   3   0  -9 3588.94  100.89
   3   0  -9 3749.02  122.59
  -3   0   9 3748.62  100.09
  -3   0   9 3910.81  124.39
   2   0  -9   29.50    4.70
   2   0  -9   28.20    8.70
  -2   0   9   24.10    9.10
  -2   0   9   22.90    4.10
   1   0  -9  793.82   42.70
  -1   0   9  799.52   43.10
   0   0  -9    0.20    3.30
   0   0   9    2.60    3.30
  -1   0  -9  819.02   26.50
   1   0   9  825.52   43.90
  -2   0  -9   28.50    6.30
   2   0   9   33.80    6.90
   2   0   9   35.10   10.40
  -3   0  -9 3834.72  109.69
   3   0   9 3857.61  125.69
   3   0   9 3711.33  110.59
   4   0   9 1255.27   55.29
  -5   0  -9   20.50    8.10
   5   0   9   11.40    6.20
  -6   0  -9  618.04   42.60
   6   0   9  657.83   44.40
  -7   0  -9 1276.07   67.89
   7   0   9 1220.18   67.19
  -8   0  -9  206.98   32.80
   8   0   9  247.58   30.60
   9   0   9  593.74   53.29
  10   0   9  154.88   31.30
  11   0   9 1788.92  100.79
  13  -1  -9  562.64   58.89
 -13   1   9  637.74   65.89
  12  -1  -9   34.30   19.30
 -12   1   9   27.50   12.80
  11  -1  -9  376.96   40.50
 -11   1   9  366.46   44.10
  10  -1  -9  299.67   36.90
 -10   1   9  294.67   46.00
   9  -1  -9 3029.50  122.29
  -9   1   9 3253.27  125.99
  -9   1   9 3266.77  139.49
   8  -1  -9 1889.51   84.39
  -8   1   9 1921.11   95.49
  -8   1   9 1750.72   81.89
   7  -1  -9   -1.40    7.80
   7  -1  -9   -2.00    7.00
  -7   1   9   -3.50    7.20
  -7   1   9   13.40   10.10
   6  -1  -9 1080.79   61.49
   6  -1  -9 1054.49   52.09
  -6   1   9 1098.29   51.99
  -6   1   9 1047.30   61.89
   5  -1  -9   64.89   15.80
   5  -1  -9   48.90   10.60
  -5   1   9   61.89   11.40
  -5   1   9   39.90   13.40
   4  -1  -9   14.90    5.40
   4  -1  -9   14.20    8.20
  -4   1   9   13.30    5.00
  -4   1   9   19.30    8.60
   3  -1  -9 1816.52   55.29
   3  -1  -9 1795.02   73.99
  -3   1   9 1841.22   74.99
  -3   1   9 1805.32   55.89
   2  -1  -9  394.56   28.90
   2  -1  -9  314.17   14.20
  -2   1   9  336.47   27.20
   1  -1  -9  890.01   24.30
   1  -1  -9  739.23   41.50
  -1   1   9  850.21   44.60
   0  -1  -9  822.62   43.50
   0  -1  -9  807.32   27.50
   0   1   9  852.01   44.30
  -1  -1  -9  376.66   19.90
   1   1   9  367.16   28.20
  -2  -1  -9 6466.85  168.08
   2   1   9 6471.35  183.98
  -3  -1  -9   96.69   15.70
   3   1   9  125.99   15.00
   3   1   9  116.79   20.30
  -4  -1  -9  152.68   18.00
  -5  -1  -9  230.78   24.00
   5   1   9  200.18   23.60
  -6  -1  -9 3268.27  119.99
   6   1   9 3281.27  122.29
  -7  -1  -9  233.28   29.40
   7   1   9  255.77   30.60
   8   1   9   10.10   10.10
   9   1   9  261.67   40.90
  10   1   9  334.37   42.40
  11   1   9  152.68   31.00
  12   1   9  143.49   34.00
  13  -2  -9   -3.40   15.00
 -13   2   9   -2.10   16.00
  12  -2  -9   -3.20   14.00
 -12   2   9  -10.90   13.80
  11  -2  -9   13.50   10.90
 -11   2   9   29.70   16.90
  10  -2  -9  795.42   55.99
 -10   2   9  856.91   66.79
 -10   2   9  646.14   65.59
   9  -2  -9  246.68   29.20
  -9   2   9  207.28   26.40
  -9   2   9  208.58   35.90
   8  -2  -9  256.07   31.00
   8  -2  -9  310.77   29.40
  -8   2   9  323.67   30.20
  -8   2   9  284.57   34.50
   7  -2  -9    7.70    6.80
   7  -2  -9    6.80    8.00
  -7   2   9    0.80    6.20
  -7   2   9   13.10    8.10
   6  -2  -9 1750.82   81.19
   6  -2  -9 1762.12   73.99
  -6   2   9 1811.02   69.89
  -6   2   9 1782.52   82.89
   5  -2  -9  924.01   42.40
   5  -2  -9 1015.70   55.69
  -5   2   9 1007.90   55.89
  -5   2   9  891.41   42.60
   4  -2  -9 2001.20   65.29
   4  -2  -9 1989.00   80.89
  -4   2   9 2005.70   82.09
  -4   2   9 2056.09   67.39
   3  -2  -9 6504.45  163.28
   3  -2  -9 6600.74  186.98
  -3   2   9 6711.13  188.58
   2  -2  -9   37.80   10.30
   2  -2  -9   35.30    6.20
  -2   2   9   38.50   10.70
   1  -2  -9  354.36   26.90
   1  -2  -9  363.46   18.80
  -1   2   9  356.36   27.50
   0  -2  -9    9.20    6.30
   0  -2  -9   22.40    5.90
   0   2   9   26.60    9.20
  -1  -2  -9 1884.01   64.09
   1   2   9 1945.21   75.39
  -2  -2  -9 2169.18   76.39
   2   2   9 2161.48   83.49
  -3  -2  -9 1147.79   53.79
   3   2   9 1134.49   58.69
  -4  -2  -9 1803.42   76.79
   4   2   9 1852.71   78.69
  -5  -2  -9 2959.10  111.49
   5   2   9 3034.00  114.29
  -6  -2  -9    5.90    8.50
   6   2   9   13.50    9.60
  -7  -2  -9    6.00   10.70
   7   2   9   22.80   13.10
   8   2   9    1.70    9.60
   9   2   9  615.14   55.29
  10   2   9   31.90   17.60
  11   2   9  292.57   49.40
  13  -3  -9   92.09   23.80
 -13   3   9  106.99   29.50
  12  -3  -9   -9.40    8.80
 -12   3   9    6.70   10.20
  11  -3  -9  247.08   36.80
 -11   3   9  212.18   40.70
  10  -3  -9  434.36   39.20
 -10   3   9  296.97   38.20
 -10   3   9  314.27   34.10
   9  -3  -9  243.28   27.70
  -9   3   9  241.08   39.90
   8  -3  -9   55.99   13.80
   8  -3  -9   54.09   15.70
  -8   3   9   58.69   15.10
  -8   3   9   51.89   16.80
   7  -3  -9  420.56   41.50
   7  -3  -9  508.55   34.90
  -7   3   9  539.95   43.80
  -7   3   9  517.55   35.90
   6  -3  -9   19.70    8.30
   6  -3  -9    4.90    7.00
  -6   3   9   16.70    7.60
  -6   3   9    9.20    5.60
   5  -3  -9 1132.89   59.29
   5  -3  -9 1148.39   48.70
  -5   3   9 1181.68   51.29
  -5   3   9 1088.29   58.89
   4  -3  -9  118.39   12.60
   4  -3  -9  132.19   20.70
  -4   3   9  116.89   14.30
  -4   3   9  130.69   20.80
   3  -3  -9 4020.10  127.69
   3  -3  -9 4051.99  111.99
  -3   3   9 4142.69  129.89
   2  -3  -9 1816.82   60.29
   2  -3  -9 1832.72   71.39
  -2   3   9 1772.72   71.79
   1  -3  -9 6829.62  183.88
  -1   3   9 6393.56  183.58
   0  -3  -9 3802.82  110.29
   0   3   9 3859.41  121.29
  -1  -3  -9    2.40    5.60
   1   3   9    7.20    3.90
  -2  -3  -9  932.91   47.50
   2   3   9  902.61   49.30
  -3  -3  -9   19.30    8.40
   3   3   9   24.90    9.60
  -4  -3  -9    7.70    7.30
  -5  -3  -9 1635.44   79.99
  -6  -3  -9   -7.80    8.50
   8   3   9  561.34   53.19
   9   3   9   42.30   17.70
  14  -4  -9   11.60   24.30
 -14   4   9    2.50   20.60
  13  -4  -9  668.23   57.89
  12  -4  -9  891.21   64.99
 -12   4   9  833.92   70.89
  11  -4  -9   98.69   21.60
 -11   4   9  108.09   26.70
  10  -4  -9 2331.37   99.79
 -10   4   9 1932.21   95.59
 -10   4   9 2273.97  113.99
   9  -4  -9  127.59   22.70
  -9   4   9   85.99   18.80
  -9   4   9   94.89   23.30
   8  -4  -9  208.18   33.40
   8  -4  -9  228.68   24.50
  -8   4   9  171.48   26.00
  -8   4   9  172.78   29.60
   7  -4  -9   -9.60    4.10
   7  -4  -9   -0.40    5.10
  -7   4   9   10.30    9.50
  -7   4   9   14.50    7.90
   6  -4  -9 1839.52   70.49
   6  -4  -9 1707.53   78.69
  -6   4   9 1740.83   72.09
  -6   4   9 1789.92   81.69
   5  -4  -9  169.88   20.30
   5  -4  -9  189.18   18.50
  -5   4   9  174.28   19.60
  -5   4   9  179.88   21.60
   4  -4  -9 1287.27   59.79
   4  -4  -9 1288.67   51.99
  -4   4   9 1148.79   58.19
   3  -4  -9   14.50    5.60
   3  -4  -9   19.40    6.70
  -3   4   9   15.80    7.30
   2  -4  -9 2010.00   76.09
   2  -4  -9 2058.09   72.89
  -2   4   9 2021.20   78.09
   1  -4  -9  100.39   16.00
  -1   4   9  107.69   17.30
   0  -4  -9 1275.17   57.09
   0   4   9 1241.18   56.99
  -1  -4  -9   51.29   11.70
   1   4   9   68.49   14.50
  -2  -4  -9 1784.22   76.29
   2   4   9 1952.80   78.49
  -3  -4  -9  585.44   41.70
   3   4   9  557.44   40.30
  -4  -4  -9  225.28   27.70
  -5  -4  -9 2944.21  119.69
  14  -5  -9   70.59   21.40
 -14   5   9   17.20   17.40
  13  -5  -9   29.80   13.40
 -13   5   9   27.20   17.80
  12  -5  -9   32.40   13.80
 -12   5   9   55.29   20.10
  11  -5  -9  152.38   28.40
 -11   5   9   79.29   23.60
  10  -5  -9 1909.71   88.59
 -10   5   9 1730.53   87.69
 -10   5   9 1821.52   99.79
   9  -5  -9 3046.30  112.99
  -9   5   9 2708.43  128.89
  -9   5   9 2896.91  125.19
   8  -5  -9 1724.13   74.79
   8  -5  -9 1495.15   79.39
  -8   5   9 1611.84   84.49
  -8   5   9 1505.45   74.09
   7  -5  -9 3045.70  116.09
   7  -5  -9 2917.51  103.99
  -7   5   9 2878.51  117.09
  -7   5   9 3128.89  111.19
   6  -5  -9  209.68   21.60
   6  -5  -9  196.78   23.80
  -6   5   9  197.48   24.00
  -6   5   9  218.88   23.50
   5  -5  -9    7.00    5.90
   5  -5  -9   15.20    8.30
  -5   5   9    4.70    6.10
   4  -5  -9   67.19   13.80
   4  -5  -9   79.79   14.80
  -4   5   9   62.49   14.20
   3  -5  -9 1007.00   49.10
   3  -5  -9 1011.70   49.99
  -3   5   9 1066.59   52.59
   2  -5  -9 1136.49   52.39
  -2   5   9 1120.49   53.79
  -1   5   9  183.58   20.00
   0  -5  -9   11.10    5.90
   0   5   9    3.50    3.80
  -1  -5  -9 1043.90   55.79
   1   5   9 1198.08   56.19
  -2  -5  -9   22.40    9.10
   2   5   9   20.70    8.20
  -3  -5  -9   40.30   14.30
   3   5   9   68.49   15.80
  -4  -5  -9  132.69   24.60
   4   5   9   72.89   17.70
  14  -6  -9  161.68   31.70
 -14   6   9  152.88   39.70
  13  -6  -9  413.86   43.40
 -13   6   9  340.97   54.29
  12  -6  -9  373.16   38.60
 -12   6   9  306.97   49.80
  11  -6  -9  555.64   45.50
 -11   6   9  470.65   49.30
  10  -6  -9   11.10    9.60
 -10   6   9   31.00   15.30
 -10   6   9   -2.30    9.90
   9  -6  -9    6.20    7.40
  -9   6   9  -10.90    5.60
  -9   6   9   -7.20    5.20
   8  -6  -9  -12.40    7.30
   8  -6  -9    8.20    6.90
  -8   6   9   -1.70    8.50
  -8   6   9   19.00   10.80
   7  -6  -9 3317.57  115.69
   7  -6  -9 3272.67  121.99
  -7   6   9 3334.87  126.89
  -7   6   9 3321.97  122.19
   6  -6  -9  727.33   43.10
   6  -6  -9  673.13   44.70
  -6   6   9  624.64   44.30
   5  -6  -9 1061.29   54.99
   5  -6  -9 1130.09   55.49
  -5   6   9 1056.49   56.69
   4  -6  -9 1822.62   74.09
   4  -6  -9 1828.12   75.59
  -4   6   9 1862.51   76.49
   3  -6  -9    8.50    5.20
   3  -6  -9    4.40    5.60
  -3   6   9   10.70    6.40
   2  -6  -9 1877.61   72.19
  -2   6   9 1859.71   73.49
  -1   6   9  222.88   21.60
   0  -6  -9  614.94   41.30
   0   6   9  612.34   37.70
  -1  -6  -9   17.90   10.90
   1   6   9   14.50    7.20
  -2  -6  -9  265.17   44.00
   2   6   9  287.17   27.00
  -3  -6  -9  267.67   30.50
   3   6   9  273.37   27.70
   4   6   9 2475.45  102.89
  14  -7  -9  278.47   44.60
 -14   7   9  268.97   51.79
  13  -7  -9   56.89   17.90
 -13   7   9   21.90   18.80
  12  -7  -9  821.42   59.79
 -12   7   9  858.51   70.19
  11  -7  -9    9.80   10.00
 -11   7   9   12.70    9.80
  10  -7  -9  461.25   40.10
 -10   7   9  451.65   46.20
   9  -7  -9   54.29   15.90
   9  -7  -9   49.70   15.00
  -9   7   9   11.20   11.20
  -9   7   9   39.20   15.20
   8  -7  -9  242.38   28.00
   8  -7  -9  269.17   27.80
  -8   7   9  206.38   31.80
  -8   7   9  191.68   31.10
   7  -7  -9 1148.69   63.49
   7  -7  -9 1225.88   63.09
  -7   7   9 1280.87   69.19
   6  -7  -9    2.90    6.90
   6  -7  -9    5.70    6.50
  -6   7   9   17.80   10.20
   5  -7  -9    4.00    6.10
   5  -7  -9    8.80    6.80
  -5   7   9   10.70    6.50
   4  -7  -9  540.85   35.20
   4  -7  -9  524.15   39.00
  -4   7   9  562.24   37.30
   3  -7  -9   10.00    7.30
   3  -7  -9    7.00    4.80
  -3   7   9   11.70    4.70
  -2   7   9 3008.70  101.69
  -1   7   9 3386.16  110.09
   0  -7  -9 1187.08   64.49
   0   7   9 1209.08   56.09
  -1  -7  -9 1742.83   84.99
   1   7   9 1883.71   75.19
  -2  -7  -9  225.38   33.90
   2   7   9  226.98   24.40
   3   7   9  350.26   31.60
   4   7   9  129.29   24.70
   5   7   9   29.80   19.60
   5   7   9    4.10   11.70
   6   7   9  312.17   49.50
  14  -8  -9 1034.20   73.49
 -14   8   9 1079.89   87.99
  13  -8  -9  818.52   62.29
 -13   8   9  686.03   66.89
  12  -8  -9   23.70   14.40
 -12   8   9   48.50   20.00
  11  -8  -9  709.53   52.89
 -11   8   9  636.84   57.89
  10  -8  -9    7.00    7.40
 -10   8   9   35.30   13.60
   9  -8  -9    6.00   10.40
   9  -8  -9   24.40   10.60
  -9   8   9   10.90   11.60
   8  -8  -9  203.48   31.00
   8  -8  -9  156.88   25.80
  -8   8   9  206.58   32.90
   7  -8  -9 1895.51   82.59
   7  -8  -9 1858.51   85.29
  -7   8   9 1828.12   85.89
   6  -8  -9  286.17   26.80
   6  -8  -9  284.57   29.20
  -6   8   9  322.27   30.50
   5  -8  -9   21.60   10.40
   5  -8  -9   47.00   14.60
  -5   8   9   37.40   11.40
   4  -8  -9  178.08   19.70
   4  -8  -9  180.48   29.10
  -4   8   9  186.48   20.70
   3  -8  -9 1550.44   63.99
  -3   8   9 1576.94   66.29
  -2   8   9   16.20    7.10
  -1   8   9  218.38   22.10
   0  -8  -9  214.28   32.40
   0   8   9  236.88   22.30
   1   8   9 3215.08  109.39
   2   8   9  887.31   49.99
   3   8   9  240.48   26.50
   4   8   9  853.81   55.29
   4   8   9  870.91   61.39
   5   8   9   34.40   16.90
   5   8   9    4.90   12.30
   6   8   9  259.77   33.00
  14  -9  -9  310.27   47.20
 -14   9   9  275.17   50.99
  13  -9  -9  250.57   39.20
 -13   9   9  341.67   52.79
  12  -9  -9   24.60   14.60
 -12   9   9   26.90   16.10
  11  -9  -9  657.83   52.49
 -11   9   9  666.63   58.29
  10  -9  -9  241.98   30.80
 -10   9   9  272.87   51.69
   9  -9  -9  545.05   45.30
   9  -9  -9  642.14   49.30
  -9   9   9  699.63   53.89
   8  -9  -9 3342.37  128.09
   8  -9  -9 3106.59  118.29
  -8   9   9 3117.09  124.29
   7  -9  -9  230.98   24.70
   7  -9  -9  226.88   28.20
  -7   9   9  232.58   27.70
   6  -9  -9  260.27   25.50
   6  -9  -9  280.57   31.30
  -6   9   9  231.98   26.70
   5  -9  -9   95.29   22.00
   5  -9  -9  112.09   18.10
  -5   9   9   72.49   15.70
   4  -9  -9 2806.12  120.39
   4  -9  -9 2817.22   96.99
  -4   9   9 2984.00  102.49
  -3   9   9    5.60    6.10
  -2   9   9   57.29   12.70
  -1   9   9    0.20    5.80
   0   9   9  627.74   37.20
   1   9   9  295.77   27.30
   2   9   9    6.10    7.40
   3   9   9   -0.60    8.80
   3   9   9   10.30   14.50
   4   9   9  584.64   48.60
   5   9   9  -35.40   21.80
   5   9   9   24.90   17.10
 -14  10   9  443.56   52.89
 -13  10   9 1055.89   83.79
  12 -10  -9   30.60   16.30
 -12  10   9   17.90   18.30
  11 -10  -9  330.17   39.10
 -11  10   9  345.47   40.60
  10 -10  -9  211.38   34.60
   9 -10  -9  292.27   32.20
   9 -10  -9  271.57   33.90
  -9  10   9  313.37   36.80
   8 -10  -9  727.93   59.69
  -8  10   9  841.32   56.69
   7 -10  -9  360.96   37.60
   7 -10  -9  364.66   29.60
  -7  10   9  301.77   31.70
   6 -10  -9 2134.09  102.19
   6 -10  -9 2107.69   82.69
  -6  10   9 2172.18   89.19
   5 -10  -9 1923.21   97.29
   5 -10  -9 2031.20   75.79
  -5  10   9 1861.21   78.59
   4 -10  -9   13.70   10.40
  -4  10   9   15.40    8.00
  -3  10   9  487.25   37.40
   0  10   9  177.78   19.10
   1  10   9  429.66   30.50
   2  10   9   23.90   12.10
   2  10   9   64.79   18.10
   3  10   9  135.89   24.80
   3  10   9  103.29   18.70
   4  10   9   70.49   18.70
  13 -11  -9  269.87   41.40
 -13  11   9  354.26   52.99
  12 -11  -9  169.18   30.80
 -12  11   9  180.18   35.40
  11 -11  -9 1736.33   94.89
 -11  11   9 1732.23   97.59
  10 -11  -9  395.46   43.30
 -10  11   9  430.06   48.50
   9 -11  -9    5.90   10.40
   9 -11  -9   -1.30    9.80
  -9  11   9   10.90   11.10
   8 -11  -9  259.17   40.40
   8 -11  -9  312.47   29.20
  -8  11   9  279.57   32.00
   7 -11  -9  107.79   23.60
   7 -11  -9  118.19   19.60
  -7  11   9  135.59   24.00
   6 -11  -9   95.09   24.40
   6 -11  -9  113.89   18.70
  -6  11   9  144.79   22.80
   5 -11  -9  497.65   48.80
  -5  11   9  475.75   35.20
   4 -11  -9   -8.60    7.20
  -3  11   9  640.74   36.50
  -2  11   9  613.24   34.50
  -1  11   9  303.67   23.00
   1  11   9   15.20   12.60
   2  11   9  -10.30    8.40
  13 -12  -9  159.08   33.80
 -13  12   9  149.88   34.50
  12 -12  -9  799.82   65.89
 -12  12   9  894.01   73.29
  11 -12  -9   31.90   15.10
 -11  12   9   30.40   19.40
  10 -12  -9   39.90   18.60
 -10  12   9   54.79   20.00
   9 -12  -9   15.30   12.10
   9 -12  -9   14.80   12.40
  -9  12   9   21.30   13.60
   8 -12  -9  812.02   65.39
   8 -12  -9  879.01   49.90
  -8  12   9  863.01   56.09
   7 -12  -9   33.90   16.20
   7 -12  -9    8.90   10.20
  -7  12   9   43.10   15.80
   6 -12  -9  253.97   41.70
   6 -12  -9  255.97   23.20
  -6  12   9  320.87   29.30
   5 -12  -9  812.92   66.39
   4 -12  -9   17.50   13.10
  -4  12   9   37.00   10.10
  -3  12   9    9.00    7.00
  -2  12   9   21.20    7.40
  -1  12   9    3.20    7.80
  -1  12   9    7.50    5.70
   0  12   9   -6.10    6.00
   0  12   9    0.90    9.20
  12 -13  -9  617.64   58.99
 -12  13   9  524.35   55.49
  11 -13  -9    2.50   16.50
 -11  13   9   -7.40   14.40
  10 -13  -9   79.19   23.80
  10 -13  -9  113.59   27.90
 -10  13   9   79.49   25.40
   9 -13  -9  622.04   57.69
   9 -13  -9  578.84   42.10
  -9  13   9  556.24   45.10
   8 -13  -9   19.10    9.10
   8 -13  -9   20.90   15.70
  -8  13   9   14.40   11.90
   7 -13  -9  328.37   26.30
   7 -13  -9  412.36   47.60
  -7  13   9  339.67   30.40
   6 -13  -9  -12.40   13.60
  -5  13   9  619.24   32.50
   4 -13  -9  231.38   44.20
  10 -14  -9   43.00   20.70
 -10  14   9   -8.30   16.60
   9 -14  -9   52.59   23.20
  -9  14   9   46.40   16.10
   8 -14  -9  152.18   42.20
  -8  14   9  112.59   22.00
   6 -14  -9 1092.79   83.69
   5 -14  -9  516.25   58.29
   4 -14  -9  633.54   68.29
   5 -14  10   77.39   28.00
   6 -14  10   13.60   18.00
   7 -14  10  216.08   38.80
   7 -14  10  226.38   18.10
   8 -14  10    5.10    7.70
   8 -14  10   -4.80   14.10
   9 -14  10   42.30   14.00
   9 -14  10   80.79   21.10
   2 -13  10  298.57   47.90
   3 -13  10    3.30   17.50
   4 -13  10  154.58   32.80
   5 -13  10  288.57   20.90
   5 -13  10  265.07   17.80
   5 -13  10  284.67   44.70
   6 -13  10  539.25   30.30
   6 -13  10  526.25   50.39
   6 -13  10  488.65   33.70
   7 -13  10   -2.40   12.10
   7 -13  10   41.20   14.60
   7 -13  10   -7.70    6.90
   8 -13  10   57.09   16.20
   8 -13  10   22.40   16.20
   8 -13  10   37.50   14.60
   9 -13  10   31.30   18.70
   9 -13  10   20.10   17.20
   9 -13  10   25.90   13.40
  10 -13  10  -21.80   10.40
  10 -13  10   22.30   15.60
  11 -13  10  101.69   23.90
  11 -13  10   88.99   23.00
   1 -12  10  177.38   14.00
   2 -12  10   54.99   22.50
   2 -12  10   21.70    6.20
   3 -12  10   -0.50    5.30
   4 -12  10  103.89   24.90
   4 -12  10   83.49   13.00
   5 -12  10   20.90   16.20
   6 -12  10  353.36   41.00
   6 -12  10  318.77   25.90
   7 -12  10   -4.70    7.30
   7 -12  10   11.90   11.00
   8 -12  10   54.49   19.90
   8 -12  10   44.30   18.60
   8 -12  10   34.20   12.40
   9 -12  10  176.88   32.00
   9 -12  10  140.39   29.00
   9 -12  10  199.88   24.50
  10 -12  10   14.90   13.50
  10 -12  10    1.90    7.20
  11 -12  10  405.66   42.60
  12 -12  10  224.68   38.50
   0 -11  10   11.50    8.80
   1 -11  10   51.79   10.80
   2 -11  10    7.50    6.20
   2 -11  10   18.50   11.40
   3 -11  10  124.39   27.30
   3 -11  10   94.49   14.80
   5 -11  10    8.00   11.30
   5 -11  10   10.00    6.40
   6 -11  10  302.07   26.00
   7 -11  10   15.00   11.40
   7 -11  10   34.80   14.10
   8 -11  10   12.20   10.60
   8 -11  10    4.10    8.60
   9 -11  10    2.50    8.20
   9 -11  10   12.90    9.30
  10 -11  10  251.27   39.20
  11 -11  10   -3.50   12.70
  12 -11  10  120.19   28.10
  13 -11  10  322.17   50.19
   3  10 -10   -7.80   15.20
  -3 -10  10   16.40   12.90
   2  10 -10   -0.60    9.20
  -2 -10  10   14.70   10.20
  -1 -10  10  279.47   25.90
   0 -10  10  149.59   18.30
   2 -10  10  268.07   33.00
   3 -10  10   26.90   12.40
   3 -10  10   26.70    9.00
   4 -10  10  174.38   30.60
   4 -10  10  197.18   20.60
   5 -10  10  432.36   31.70
   5 -10  10  473.35   41.60
   6 -10  10    8.60    7.40
   7 -10  10   28.90   11.80
   7 -10  10   48.00   15.40
   8 -10  10  301.37   29.70
   8 -10  10  304.67   34.30
   9 -10  10  255.67   37.70
  10 -10  10  129.29   28.10
  11 -10  10   93.39   24.70
  12 -10  10   13.20   14.60
  13 -10  10   12.60   15.90
  -5  -9  10   80.99   20.60
   4   9 -10   61.39   19.70
  -4  -9  10   32.60   14.90
   3   9 -10  120.69   22.40
  -3  -9  10  171.08   26.10
   2   9 -10    0.00    9.90
  -2  -9  10   10.00    8.50
   1   9 -10  263.57   25.40
  -1  -9  10  287.47   26.10
   0  -9  10  259.07   24.20
   0  -9  10  244.18   34.50
   1  -9  10   20.80    9.30
   2  -9  10   37.00   13.20
   2  -9  10   27.50    9.70
   3  -9  10   53.49   12.50
   3  -9  10   65.19   17.20
   4  -9  10    5.50    6.60
   4  -9  10   -0.70    5.40
   5  -9  10 1074.19   62.89
   5  -9  10 1065.29   53.49
   6  -9  10  727.83   50.29
   6  -9  10  697.13   44.40
   7  -9  10  980.10   55.19
   7  -9  10  884.21   56.99
   8  -9  10   26.40   10.90
   8  -9  10   13.00    6.90
   9  -9  10  254.27   29.80
  10  -9  10    2.70    8.50
  11  -9  10  -18.30    6.60
  12  -9  10    9.50   10.30
  13  -9  10  116.39   29.00
  14  -9  10   49.80   23.90
  -6  -8  10   16.70   18.40
   5   8 -10    3.80   19.50
  -5  -8  10   15.70   12.30
   4   8 -10   41.90   16.10
  -4  -8  10   15.90   12.90
   3   8 -10   17.80   10.80
  -3  -8  10    4.40    7.70
   2   8 -10  250.07   25.90
  -2  -8  10  240.88   25.70
  -2  -8  10  257.27   35.30
   1   8 -10   36.60   11.70
  -1  -8  10   33.30   12.80
  -1  -8  10   11.40    7.90
   0   8 -10  530.85   35.60
   0  -8  10  529.75   35.90
   0  -8  10  572.44   40.90
   1  -8  10  331.17   26.60
   2  -8  10  937.11   56.49
   2  -8  10  903.51   46.70
   3  -8  10   -2.50    5.60
   3  -8  10   16.70    7.80
   4  -8  10  356.86   28.90
   4  -8  10  395.46   33.30
   5  -8  10   61.49   15.00
   5  -8  10   47.90   11.80
   6  -8  10  -12.50    4.30
   6  -8  10    2.60    6.40
   7  -8  10  527.45   41.20
   7  -8  10  507.45   39.70
  -8   8 -10  510.45   43.70
   8  -8  10  507.55   41.00
  -9   8 -10   28.40   14.10
   9  -8  10   50.59   16.10
  11  -8  10   82.09   24.00
  12  -8  10   56.69   21.70
  13  -8  10  243.88   40.80
  14  -8  10   37.50   21.10
  -7  -7  10  182.78   33.60
  -6  -7  10   29.60   16.10
   5   7 -10   18.70   16.00
  -5  -7  10   16.40   12.20
   4   7 -10   32.20   13.40
  -4  -7  10   44.80   15.90
   3   7 -10   47.80   15.00
  -3  -7  10   54.29   16.50
  -3  -7  10   56.39   16.80
   2   7 -10  940.51   51.89
  -2  -7  10  853.91   51.39
  -2  -7  10  919.91   56.39
   1   7 -10  550.74   37.10
  -1  -7  10  531.15   36.80
  -1  -7  10  569.04   41.00
   0   7 -10   59.79   13.30
   0  -7  10   75.49   15.70
   0  -7  10   58.39   12.80
   1  -7  10   45.10   11.30
   2  -7  10  950.50   48.50
   2  -7  10  977.80   53.39
   3  -7  10  385.66   29.70
   3  -7  10  413.26   32.40
   4  -7  10    6.70    5.80
   4  -7  10   14.10    7.20
   5  -7  10   98.99   17.50
   5  -7  10   92.19   17.80
   6  -7  10   71.19   16.30
   6  -7  10   80.99   16.30
  -7   7 -10   37.20   13.60
   7  -7  10   87.99   17.80
  -8   7 -10  342.57   33.30
   8  -7  10  296.37   31.30
  -9   7 -10   64.49   17.90
   9  -7  10   64.69   18.10
  10  -7  10   38.40   14.70
  11  -7  10    3.30   10.60
  12  -7  10   10.50    9.70
  13  -7  10  496.95   48.20
  -8  -6  10  -10.80   16.50
  -7  -6  10  500.35   49.30
   5   6 -10  326.37   34.70
  -5  -6  10  321.57   34.10
  -4  -6  10    4.00   10.60
  -4  -6  10  -10.20    8.10
   3   6 -10  642.04   44.20
  -3  -6  10  697.23   47.00
  -3  -6  10  688.83   46.60
   2   6 -10    4.30    5.80
  -2  -6  10  -19.30    6.60
  -2  -6  10   -5.10    5.20
   1   6 -10   95.29   16.60
  -1  -6  10   68.49   14.20
  -1  -6  10   57.59   14.30
   0   6 -10  222.78   21.20
   0  -6  10  169.08   19.40
   0  -6  10  169.08   19.20
   1  -6  10 1077.69   52.79
   2  -6  10    9.90    5.40
   2  -6  10   -0.40    4.80
   3  -6  10    9.40    5.10
   3  -6  10   13.60    6.50
   4  -6  10   42.50   11.90
   4  -6  10   43.50   11.30
   5  -6  10   35.90   11.50
   5  -6  10   35.10    9.60
  -6   6 -10  171.68   21.30
   6  -6  10  181.38   20.90
   6  -6  10  205.18   24.20
  -7   6 -10   23.30   11.10
   7  -6  10   34.10   11.30
  -8   6 -10  838.42   54.69
   8  -6  10  935.71   54.29
  -9   6 -10   37.90   13.70
   9  -6  10   64.99   17.20
  10  -6  10  179.28   29.80
  11  -6  10   -5.60   10.40
  12  -6  10  362.96   38.80
  13  -6  10    7.00   15.00
  14  -6  10   13.20   20.50
  -9  -5  10   56.89   24.00
  -8  -5  10  279.07   44.10
  -7  -5  10  -25.30    9.70
  -6  -5  10  -13.10    8.50
   5   5 -10  444.66   40.80
  -5  -5  10  455.65   40.70
  -5  -5  10  437.16   39.10
   4   5 -10 1004.30   59.49
  -4  -5  10 1160.08   62.39
  -4  -5  10 1095.19   62.89
   3   5 -10   17.60    9.40
  -3  -5  10   30.80   10.90
  -3  -5  10   34.40   12.20
   2   5 -10   75.39   16.40
  -2  -5  10   87.59   16.90
  -2  -5  10   53.69   15.10
   1   5 -10   36.30   10.50
  -1  -5  10   45.70   12.40
  -1  -5  10   32.10    9.60
   0   5 -10   28.80    9.00
   0  -5  10   18.40    7.50
   0  -5  10   26.60    7.30
  -1   5 -10  433.06   32.10
   1  -5  10  499.75   30.70
   1  -5  10  488.85   33.20
   2  -5  10  114.09   18.70
   2  -5  10  119.89   14.40
   3  -5  10   93.89   17.00
   3  -5  10   64.79   12.10
   4  -5  10   30.40   10.20
   4  -5  10   29.00    8.50
  -5   5 -10   30.40    9.40
   5  -5  10   17.00    8.00
   5  -5  10   25.40    8.00
  -6   5 -10 1045.70   54.19
   6  -5  10 1052.79   52.29
  -7   5 -10  953.90   53.19
   7  -5  10  898.81   50.79
  -8   5 -10    2.50    6.10
   8  -5  10    6.50    7.10
  -9   5 -10   -8.80    6.20
   9  -5  10   23.00   11.10
  10  -5  10  540.35   44.70
  11  -5  10  316.07   37.00
  12  -5  10    9.70   14.00
  13  -5  10   51.99   18.80
  14  -5  10   60.59   22.60
  -9  -4  10  179.38   34.60
  -8  -4  10   68.89   21.10
  -7  -4  10    3.90   11.20
   6   4 -10  242.48   36.70
  -6  -4  10  257.97   38.20
  -6  -4  10  225.28   27.10
   5   4 -10    6.50    9.40
  -5  -4  10    6.00    5.70
  -5  -4  10   16.50    8.50
   4   4 -10  462.85   37.20
  -4  -4  10  371.26   32.00
  -4  -4  10  408.66   35.90
   3   4 -10   -3.90    4.00
  -3  -4  10   -3.10    4.90
  -3  -4  10   -1.00    4.60
   2   4 -10   55.39   13.20
  -2  -4  10   60.19   14.10
  -2  -4  10   68.19   13.20
   1   4 -10   19.40    8.40
  -1  -4  10   38.80   10.90
  -1  -4  10   38.00    8.70
   0   4 -10  251.77   23.40
   0  -4  10  248.88   23.60
   0  -4  10  223.78   17.90
  -1   4 -10 1911.61   76.79
   1  -4  10 1964.20   77.09
   1  -4  10 1959.40   63.99
   2  -4  10  426.46   23.60
   2  -4  10  413.96   31.10
   3  -4  10  162.18   14.40
   3  -4  10  135.09   21.10
  -4   4 -10  225.78   19.80
   4  -4  10  220.28   18.40
   4  -4  10  240.18   25.00
  -5   4 -10  439.96   30.00
   5  -4  10  451.25   29.40
   5  -4  10  497.95   37.90
  -6   4 -10    2.20    3.90
   6  -4  10   -1.80    4.60
  -7   4 -10  339.77   31.00
   7  -4  10  387.76   31.20
  -8   4 -10  395.26   35.00
   8  -4  10  349.07   32.40
  -9   4 -10 1002.80   61.59
   9  -4  10 1041.80   61.69
  10  -4  10   10.00    9.70
  11  -4  10   27.50   14.80
  12  -4  10   39.40   16.20
  13  -4  10   64.39   24.20
 -10  -3  10   54.69   19.20
  -9  -3  10   10.90   11.20
  -8  -3  10   53.29   21.60
  -7  -3  10   29.50   12.80
   6   3 -10   46.90   18.90
  -6  -3  10   56.79   13.10
  -6  -3  10   40.30   16.90
   5   3 -10    4.00    8.90
  -5  -3  10   -1.30    5.40
  -5  -3  10   -5.50    6.80
   4   3 -10  361.96   32.70
  -4  -3  10  395.96   34.70
  -4  -3  10  445.26   32.50
   3   3 -10   -3.60    4.20
  -3  -3  10   14.60    8.40
  -3  -3  10    6.30    4.60
   2   3 -10   55.89   13.60
  -2  -3  10   59.89   14.60
  -2  -3  10   76.89   12.50
   1   3 -10  189.98   20.80
  -1  -3  10  160.98   13.80
  -1  -3  10  158.88   19.20
   0   3 -10 1363.46   61.89
   0  -3  10 1425.26   47.00
   0  -3  10 1421.26   62.79
   0  -3  10 1426.76   46.30
  -1   3 -10   60.19   13.40
   1  -3  10   33.10   10.60
   1  -3  10   50.89    6.30
   2  -3  10  395.56   19.80
   2  -3  10  419.66   31.30
  -3   3 -10 1428.06   50.49
   3  -3  10 1347.87   62.89
   3  -3  10 1336.97   47.80
  -4   3 -10 1886.01   66.99
   4  -3  10 1996.20   66.99
   4  -3  10 1924.21   80.99
  -5   3 -10  145.99   15.70
   5  -3  10  109.09   13.90
  -6   3 -10   12.20    4.80
   6  -3  10   -0.20    4.80
  -7   3 -10    7.70    6.30
   7  -3  10   -4.40    4.10
  -8   3 -10   50.49   13.00
   8  -3  10   11.10    9.80
  -9   3 -10  640.44   47.60
   9  -3  10  715.33   50.79
  11  -3  10    4.20   11.80
  12  -3  10  220.38   38.70
  13  -3  10   30.40   20.70
  11   2 -10  272.07   43.50
  10   2 -10   23.80   15.60
 -10  -2  10   68.69   22.90
   9   2 -10    0.10    9.90
  -9  -2  10   -5.30    9.20
   8   2 -10  285.47   32.30
  -8  -2  10  295.97   36.40
  -8  -2  10  186.88   29.60
   7   2 -10   65.89   17.00
  -7  -2  10   41.10   15.10
  -7  -2  10   33.10   15.30
   6   2 -10  934.31   59.59
   6   2 -10  897.21   52.89
  -6  -2  10  881.81   52.29
  -6  -2  10  909.11   59.69
   5   2 -10  870.01   66.99
   5   2 -10  905.91   49.70
  -5  -2  10  845.42   47.70
  -5  -2  10  847.82   55.19
   4   2 -10    8.90    6.80
  -4  -2  10   -1.00    6.20
  -4  -2  10   11.30    5.90
   3   2 -10  131.39   22.00
  -3  -2  10  120.69   21.40
  -3  -2  10  129.89   14.20
   2   2 -10  413.46   32.00
  -2  -2  10  392.76   31.60
  -2  -2  10  426.56   22.40
   1   2 -10  402.06   31.10
  -1  -2  10  467.35   33.20
  -1  -2  10  445.46   18.90
   0   2 -10  590.24   37.40
   0  -2  10  563.84   17.10
   0  -2  10  560.64   16.90
   0  -2  10  668.73   39.80
  -1   2 -10  307.17   26.70
   1  -2  10  364.06   12.90
   1  -2  10  338.37   28.00
   2  -2  10  626.74   39.60
   2  -2  10  650.63   25.20
  -3   2 -10   41.40    7.80
   3  -2  10   46.40    8.70
   3  -2  10   37.10   11.40
  -4   2 -10  393.36   25.10
   4  -2  10  435.76   34.70
   4  -2  10  420.66   26.40
  -5   2 -10   93.99   15.20
   5  -2  10   73.79   15.20
  -6   2 -10   35.90   11.90
   6  -2  10   47.60   12.70
  -7   2 -10   76.29   16.90
   7  -2  10   77.29   17.60
  -8   2 -10   -0.30    8.30
   8  -2  10  -13.10    5.30
  -9   2 -10  906.51   59.59
   9  -2  10 1004.30   62.69
  10  -2  10  302.27   36.00
  11  -2  10   -0.20   10.70
  12  -2  10   39.10   15.70
  13  -2  10   77.59   28.60
  11   1 -10  225.48   38.00
 -11  -1  10  239.18   44.90
  10   1 -10   49.50   20.40
 -10  -1  10   81.99   24.20
   9   1 -10   -6.30    9.10
  -9  -1  10    9.50   12.60
   8   1 -10    1.70    9.80
  -8  -1  10   35.90   18.10
  -8  -1  10   -1.80   10.90
   7   1 -10  410.46   35.20
  -7  -1  10  311.67   31.60
  -7  -1  10  318.77   35.40
   6   1 -10   50.69   15.80
   6   1 -10   55.19   13.30
  -6  -1  10   23.00   11.10
  -6  -1  10   38.60   10.20
   5   1 -10 1071.19   54.89
   5   1 -10 1114.19   63.09
  -5  -1  10 1121.59   63.19
  -5  -1  10 1061.09   50.49
   4   1 -10  444.46   28.30
   4   1 -10  410.26   34.50
  -4  -1  10  459.95   36.50
  -4  -1  10  439.46   26.70
   3   1 -10 2037.70   82.49
  -3  -1  10 1777.92   60.09
  -3  -1  10 2049.59   82.79
   2   1 -10   21.90    7.50
  -2  -1  10   37.20    5.60
  -2  -1  10   34.70   11.00
   1   1 -10  339.37   27.80
  -1  -1  10  325.47   27.50
   0   1 -10   28.50    9.00
   0  -1  10   12.30    6.90
  -1   1 -10   24.80    8.80
   1  -1  10   20.80    7.80
  -2   1 -10  338.77   16.70
   2  -1  10  351.26   17.50
   2  -1  10  316.27   27.70
  -3   1 -10  399.26   22.40
   3  -1  10  386.66   32.00
   3  -1  10  440.46   24.90
  -4   1 -10  167.28   16.70
   4  -1  10  166.08   17.30
   4  -1  10  221.78   24.70
  -5   1 -10   33.30    9.60
   5  -1  10   16.60    7.50
  -6   1 -10   42.80   10.80
   6  -1  10   19.30    9.60
  -7   1 -10   45.90   14.20
   7  -1  10   84.19   19.40
  -8   1 -10  565.04   43.90
   8  -1  10  532.05   44.20
   9  -1  10    7.30    6.30
  10  -1  10  219.08   35.50
  11  -1  10  216.18   37.40
  12  -1  10  409.36   45.60
  12   0 -10  254.77   40.80
 -12   0  10  222.58   42.30
  11   0 -10   47.40   21.30
 -11   0  10   38.20   16.30
  10   0 -10  120.79   27.20
 -10   0  10  156.58   32.60
   9   0 -10  262.17   30.90
  -9   0  10  240.58   41.70
  -9   0  10  255.87   29.80
   8   0 -10  543.45   41.70
  -8   0  10  494.35   40.80
  -8   0  10  525.85   48.10
   7   0 -10   88.29   17.80
   7   0 -10   52.89   17.20
  -7   0  10   48.00   18.00
  -7   0  10   88.59   17.80
   6   0 -10  201.58   25.40
   6   0 -10  201.58   21.20
  -6   0  10  163.48   19.20
  -6   0  10  159.68   27.50
   5   0 -10    4.30    9.40
   5   0 -10   35.30    9.10
  -5   0  10   14.30    9.00
   4   0 -10  186.68   22.00
   4   0 -10  219.28   17.70
  -4   0  10  249.58   18.10
  -4   0  10  252.47   26.30
   3   0 -10 1490.85   67.79
   3   0 -10 1438.56   48.10
  -3   0  10 1493.85   47.40
  -3   0  10 1423.86   66.99
   2   0 -10  667.13   41.20
  -2   0  10  691.53   42.00
  -2   0  10  693.53   22.00
   1   0 -10   24.10    8.90
  -1   0  10   43.10   11.70
   0   0 -10  285.37   25.10
   0   0  10  253.97   23.90
  -1   0 -10   18.50    3.50
   1   0  10   31.50   10.40
  -2   0 -10  640.84   28.00
   2   0  10  739.63   43.40
  -3   0 -10 1435.96   53.69
   3   0  10 1426.76   54.69
   3   0  10 1428.26   67.39
   4   0  10  241.18   22.00
  -5   0 -10   29.50   10.20
   5   0  10   36.30   10.80
  -6   0 -10  184.18   26.90
   6   0  10  181.08   27.60
  -7   0 -10   65.69   18.60
   7   0  10  111.59   22.20
  -8   0 -10  530.45   44.30
   8   0  10  550.54   46.30
   9   0  10  239.48   39.00
  10   0  10  136.49   29.60
  11   0  10   26.90   16.20
  12   0  10  202.18   47.00
  12  -1 -10  382.46   43.40
 -12   1  10  315.07   62.59
  11  -1 -10  296.37   36.10
 -11   1  10  256.17   44.90
  10  -1 -10  241.18   44.00
 -10   1  10  261.77   42.80
   9  -1 -10   46.50   14.70
  -9   1  10   20.10   12.20
  -9   1  10   16.60    8.80
   8  -1 -10  592.04   42.70
  -8   1  10  556.24   41.20
  -8   1  10  597.74   54.89
   7  -1 -10  106.69   18.80
   7  -1 -10   73.89   19.90
  -7   1  10   90.09   22.50
  -7   1  10   82.79   17.70
   6  -1 -10   32.90   12.10
   6  -1 -10   57.39   14.50
  -6   1  10   41.10   14.80
  -6   1  10   44.60   10.50
   5  -1 -10   29.70   10.10
   5  -1 -10   27.50    8.30
  -5   1  10   17.50    7.50
  -5   1  10   50.29   15.50
   4  -1 -10  128.99   21.50
   4  -1 -10  159.58   13.90
  -4   1  10  172.88   22.00
  -4   1  10  185.38   14.90
   3  -1 -10  404.06   20.00
   3  -1 -10  460.55   33.90
  -3   1  10  395.76   20.40
  -3   1  10  466.35   34.70
   2  -1 -10  307.77   12.90
   2  -1 -10  321.97   27.20
  -2   1  10  305.67   27.40
   1  -1 -10   21.30    1.90
   1  -1 -10   16.10    6.30
  -1   1  10   19.00    8.10
   0  -1 -10   20.40    4.10
   0  -1 -10   32.00   10.00
   0   1  10   17.10    7.50
  -1  -1 -10  353.06   18.90
   1   1  10  285.17   26.20
  -2  -1 -10   34.60    8.00
   2   1  10   23.40    9.60
  -3  -1 -10 1977.70   72.69
   3   1  10 2208.38   87.79
   3   1  10 2035.00   74.39
  -4  -1 -10  458.95   32.40
   4   1  10  427.56   38.60
  -5  -1 -10 1097.39   57.09
   5   1  10 1027.00   56.69
  -6  -1 -10   28.20   10.90
   6   1  10   55.39   15.00
  -7  -1 -10  312.17   32.60
   7   1  10  342.97   35.20
   8   1  10   36.30   13.90
   9   1  10   -7.00    9.90
  10   1  10   54.29   21.50
  11   1  10  225.48   43.80
  13  -2 -10   49.70   25.90
 -13   2  10  108.19   34.70
  12  -2 -10   33.20   16.80
 -12   2  10  -21.90   13.30
 -11   2  10   23.00   11.20
  10  -2 -10  312.87   33.80
 -10   2  10  221.58   50.79
 -10   2  10  288.87   45.60
   9  -2 -10  938.51   57.89
  -9   2  10  886.01   65.29
  -9   2  10  964.00   60.99
   8  -2 -10    9.80    7.10
  -8   2  10    9.60    7.10
  -8   2  10    9.10    6.30
   7  -2 -10   85.29   16.90
   7  -2 -10   48.90   15.20
  -7   2  10   80.99   16.20
  -7   2  10   60.49   18.00
   6  -2 -10   58.89   12.70
   6  -2 -10   24.20   13.60
  -6   2  10   67.39   17.10
  -6   2  10   68.49   14.10
   5  -2 -10   80.79   13.00
   5  -2 -10   78.49   18.00
  -5   2  10   54.39   14.90
  -5   2  10   89.29   13.90
   4  -2 -10  365.66   31.70
   4  -2 -10  378.86   22.50
  -4   2  10  401.46   33.00
  -4   2  10  410.06   24.40
   3  -2 -10   42.40   10.70
   3  -2 -10   33.40    6.40
  -3   2  10   54.89   13.40
   2  -2 -10  641.54   39.90
   2  -2 -10  672.23   26.00
  -2   2  10  665.23   41.30
   1  -2 -10  307.87   16.80
   1  -2 -10  297.07   25.60
  -1   2  10  276.97   25.30
   0  -2 -10  661.13   28.90
   0  -2 -10  623.74   39.00
   0   2  10  662.43   40.40
  -1  -2 -10  434.76   25.70
   1   2  10  472.35   33.90
  -2  -2 -10  436.66   28.40
   2   2  10  419.36   32.50
  -3  -2 -10  117.59   18.90
   3   2  10  147.59   24.40
  -4  -2 -10   21.40    8.70
  -5  -2 -10  868.31   53.19
   5   2  10  864.21   53.69
   6   2  10  858.71   57.09
  -7  -2 -10   43.50   14.70
   7   2  10   16.20   12.00
   8   2  10  237.98   39.30
   9   2  10   -6.30   11.20
  10   2  10   23.10   14.70
  11   2  10  338.37   51.49
  13  -3 -10   41.20   20.80
 -13   3  10   25.70   18.30
  12  -3 -10  192.48   34.00
 -12   3  10  235.78   43.80
  11  -3 -10   -1.90   12.10
 -11   3  10    9.00   10.10
  10  -3 -10   34.50   13.00
 -10   3  10   81.89   24.50
 -10   3  10   39.30   14.40
   9  -3 -10  724.83   48.80
  -9   3  10  683.83   55.99
  -9   3  10  696.83   50.79
   8  -3 -10   57.39   14.00
  -8   3  10   62.29   14.60
  -8   3  10   15.80   12.20
   7  -3 -10    1.10    6.50
   7  -3 -10    1.80    5.00
  -7   3  10    0.40    3.20
  -7   3  10   -7.10    5.20
   6  -3 -10   14.60    8.10
   6  -3 -10    8.20    6.20
  -6   3  10    2.80    5.10
  -6   3  10    5.70    5.30
   5  -3 -10   90.29   17.80
   5  -3 -10  113.09   13.40
  -5   3  10  139.29   23.90
  -5   3  10  102.09   16.30
   4  -3 -10 1921.71   80.99
   4  -3 -10 1981.10   65.29
  -4   3  10 1947.01   82.39
   3  -3 -10 1458.05   65.59
   3  -3 -10 1455.25   50.99
  -3   3  10 1399.96   65.39
   2  -3 -10  427.66   23.60
   2  -3 -10  388.46   30.30
  -2   3  10  456.65   33.20
   1  -3 -10   27.20    8.70
  -1   3  10   37.70   11.50
   0  -3 -10 1462.55   54.99
   0   3  10 1468.55   65.19
  -1  -3 -10  146.69   16.20
   1   3  10  165.48   19.90
  -2  -3 -10   69.99   14.80
   2   3  10   60.39   14.70
  -3  -3 -10    8.20    6.90
   3   3  10   17.20    8.90
  -4  -3 -10  428.76   35.20
   4   3  10  399.06   36.20
  -5  -3 -10  -14.00    5.70
  -6  -3 -10   79.99   17.60
  13  -4 -10   40.40   19.30
 -13   4  10   81.39   27.00
  12  -4 -10    6.00   12.60
 -12   4  10   13.80   13.90
  11  -4 -10    6.40   12.50
 -11   4  10   70.09   18.90
  10  -4 -10   12.40    8.90
 -10   4  10  -24.50    8.50
 -10   4  10   19.50   12.50
   9  -4 -10  956.50   56.79
  -9   4  10 1030.60   60.69
  -9   4  10 1119.49   72.29
   8  -4 -10  368.76   37.40
   8  -4 -10  379.36   31.80
  -8   4  10  419.36   40.80
  -8   4  10  374.56   31.80
   7  -4 -10  370.96   29.50
   7  -4 -10  394.66   35.90
  -7   4  10  327.67   28.80
  -7   4  10  354.26   35.80
   6  -4 -10   -6.70    4.50
   6  -4 -10    1.70    4.50
  -6   4  10    3.20    6.40
  -6   4  10   -6.40    4.00
   5  -4 -10  428.16   34.90
   5  -4 -10  506.15   31.10
  -5   4  10  465.05   37.50
   4  -4 -10  226.18   23.70
   4  -4 -10  231.78   19.10
  -4   4  10  239.08   24.90
   3  -4 -10  171.78   19.70
   3  -4 -10  186.28   16.80
  -3   4  10  151.08   19.00
   2  -4 -10  431.16   31.30
   2  -4 -10  404.56   26.70
  -2   4  10  379.76   30.60
   1  -4 -10 2073.29   79.99
  -1   4  10 2042.70   80.99
   0  -4 -10  264.07   22.10
   0   4  10  222.78   22.80
  -1  -4 -10   29.30    8.90
   1   4  10   28.50   10.50
  -2  -4 -10   86.29   16.90
   2   4  10   53.39   14.00
  -3  -4 -10    9.10    7.90
   3   4  10    3.70    5.80
  -4  -4 -10  416.16   37.40
   4   4  10  454.65   38.90
  -5  -4 -10   -2.60    7.50
  14  -5 -10   65.39   24.80
 -14   5  10   83.79   28.40
  13  -5 -10   36.80   16.20
 -13   5  10   47.50   29.60
  12  -5 -10   38.80   14.90
 -12   5  10   25.60   11.60
  11  -5 -10  308.47   35.20
 -11   5  10  307.97   39.50
  10  -5 -10  515.55   41.40
 -10   5  10  406.96   38.50
 -10   5  10  418.56   46.10
   9  -5 -10   -1.40    6.10
  -9   5  10    3.00   14.90
  -9   5  10   12.10   12.10
   8  -5 -10    6.70    6.50
   8  -5 -10   -2.30    5.40
  -8   5  10   13.80    9.40
  -8   5  10   -1.10    7.60
   7  -5 -10  872.11   48.60
   7  -5 -10  942.61   58.29
  -7   5  10  898.31   52.39
  -7   5  10  931.01   59.49
   6  -5 -10 1135.89   53.19
   6  -5 -10  914.61   56.39
  -6   5  10  988.00   58.69
   5  -5 -10   13.70    9.10
   5  -5 -10   13.10    6.70
  -5   5  10   23.80   11.00
   4  -5 -10   44.60   10.60
   4  -5 -10   45.40   12.60
  -4   5  10   20.90    9.20
   3  -5 -10   89.19   15.30
   3  -5 -10   88.49   16.30
  -3   5  10   63.89   15.00
   2  -5 -10  149.79   17.80
  -2   5  10  143.89   18.30
  -1   5  10  465.15   33.60
   0  -5 -10   33.70   10.70
   0   5  10    7.50    7.10
  -1  -5 -10   45.10   13.10
   1   5  10   45.80   12.80
  -2  -5 -10  109.59   20.80
   2   5  10   72.79   16.50
  -3  -5 -10   19.80   11.30
   3   5  10   21.10   11.60
  -4  -5 -10 1072.29   66.39
   4   5  10 1146.89   64.99
   5   5  10  503.25   43.70
  14  -6 -10  -22.00   13.70
 -14   6  10    6.40   16.90
  13  -6 -10   11.30   13.90
 -13   6  10   10.00   18.90
  12  -6 -10  267.57   33.70
 -12   6  10  201.78   41.60
  11  -6 -10   -2.80    8.20
 -11   6  10   -2.40   11.90
  10  -6 -10  189.78   29.40
 -10   6  10  220.58   33.70
 -10   6  10  197.78   35.70
   9  -6 -10   52.89   14.70
  -9   6  10   52.09   14.30
  -9   6  10   62.59   23.50
   8  -6 -10  819.92   50.19
   8  -6 -10  826.22   56.19
  -8   6  10  874.61   60.49
  -8   6  10  892.41   56.39
   7  -6 -10   15.20    9.80
   7  -6 -10   44.80   15.00
  -7   6  10   25.00   11.10
   6  -6 -10  187.38   26.70
   6  -6 -10  179.78   22.90
  -6   6  10  200.58   25.10
   5  -6 -10   34.30   11.60
   5  -6 -10   23.70    8.00
  -5   6  10   50.79   14.80
   4  -6 -10   74.69   16.10
   4  -6 -10   34.20   10.80
  -4   6  10   54.89   14.70
   3  -6 -10   13.20    6.90
   3  -6 -10    3.20    4.70
  -3   6  10   13.30    7.20
   2  -6 -10    0.60    3.80
  -2   6  10   10.90    5.80
  -1   6  10 1099.89   54.69
   0  -6 -10  171.98   21.80
   0   6  10  221.18   23.90
  -1  -6 -10  105.59   20.80
   1   6  10   86.79   16.20
   2   6  10   15.30    6.60
  -3  -6 -10  732.33   52.89
   3   6  10  645.34   45.30
   4   6  10   12.10    8.90
   5   6  10  336.47   35.90
   6   6  10  309.87   37.80
  14  -7 -10  258.87   43.30
 -14   7  10  204.78   45.60
  13  -7 -10  534.75   51.79
 -13   7  10  546.95   60.39
  12  -7 -10    8.90   11.90
 -12   7  10   26.30   16.40
  11  -7 -10  -15.50    8.10
 -11   7  10   13.00   13.60
  10  -7 -10   -9.10    7.20
 -10   7  10    7.70   10.20
   9  -7 -10   71.49   18.20
  -9   7  10   54.69   19.50
  -9   7  10   19.50   13.50
   8  -7 -10  317.17   30.80
   8  -7 -10  374.86   36.40
  -8   7  10  389.86   38.00
   7  -7 -10   67.49   16.20
   7  -7 -10   74.79   19.60
  -7   7  10   69.49   18.30
   6  -7 -10   88.09   18.30
   6  -7 -10   88.19   18.50
  -6   7  10   94.29   19.10
   5  -7 -10   70.59   15.50
   5  -7 -10   77.49   16.60
  -5   7  10   99.49   20.10
   4  -7 -10    2.40    4.90
   4  -7 -10    7.40    5.90
  -4   7  10    2.80    5.10
   3  -7 -10  355.06   28.90
   3  -7 -10  372.56   34.00
  -3   7  10  428.06   32.30
  -2   7  10  908.01   49.00
  -1   7  10   27.70    8.30
   0  -7 -10   79.69   18.20
   0   7  10   58.79   13.60
  -1  -7 -10  580.84   44.70
   1   7  10  561.44   38.80
  -2  -7 -10 1009.60   62.59
   2   7  10  882.91   52.19
   3   7  10   34.50   13.30
   4   7  10   55.69   16.80
   5   7  10    1.80    9.50
   6   7  10    5.70   11.10
   7   7  10  233.78   37.20
  14  -8 -10   37.70   18.00
 -14   8  10   -0.70   13.50
  13  -8 -10  278.07   35.30
 -13   8  10  331.97   51.99
  12  -8 -10   81.59   22.00
 -12   8  10   80.79   24.40
  11  -8 -10  105.69   22.50
 -11   8  10   60.29   22.60
 -10   8  10  277.57   42.50
   9  -8 -10   42.70   14.10
  -9   8  10   21.80   12.60
   8  -8 -10  572.74   43.90
   8  -8 -10  530.45   42.50
  -8   8  10  552.14   47.10
   7  -8 -10  498.55   40.40
  -7   8  10  442.36   39.20
   6  -8 -10   -6.20    6.80
   6  -8 -10    4.50    7.70
  -6   8  10    3.60    7.20
   5  -8 -10   48.00   12.00
   5  -8 -10   38.20   12.60
  -5   8  10   75.09   16.20
   4  -8 -10  378.26   29.70
   4  -8 -10  392.16   36.60
  -4   8  10  410.26   32.40
   3  -8 -10   -9.30    5.00
   3  -8 -10   -1.60    5.40
  -3   8  10   -6.90    4.20
  -2   8  10  895.01   48.30
  -1   8  10  345.97   29.10
   0  -8 -10  512.35   43.00
   0   8  10  514.15   35.90
   1   8  10   31.60   10.80
   2   8  10  229.68   25.40
   3   8  10   -2.30    8.00
   4   8  10   14.10   12.50
   5   8  10   47.00   16.70
   6   8  10   16.50   14.30
 -14   9  10   62.89   25.90
  13  -9 -10  157.98   30.50
 -13   9  10  116.09   29.20
  12  -9 -10   -1.80   10.50
 -12   9  10   35.30   17.40
  11  -9 -10    7.80   10.40
 -11   9  10   19.30   14.80
  10  -9 -10   -0.40   10.20
 -10   9  10    4.50   11.30
   9  -9 -10  224.68   35.50
  -9   9  10  315.77   35.60
   8  -9 -10   15.30    9.20
   8  -9 -10   25.50   12.30
  -8   9  10   10.00   10.60
   7  -9 -10  908.61   58.49
   7  -9 -10  723.93   59.09
  -7   9  10  889.61   56.39
   6  -9 -10  710.83   50.79
   6  -9 -10  648.04   43.80
  -6   9  10  607.04   44.20
   5  -9 -10 1099.99   65.49
   5  -9 -10  970.90   52.19
  -5   9  10 1091.09   58.09
   4  -9 -10    2.20    6.10
   4  -9 -10   12.60    9.90
  -4   9  10   -3.80    4.80
  -3   9  10   45.50   12.80
  -2   9  10   46.00   12.70
  -1   9  10   19.10   10.00
   0   9  10  231.28   23.10
   1   9  10  252.47   25.60
   2   9  10    9.10    7.40
   3   9  10  165.68   26.30
   4   9  10   68.69   20.20
   4   9  10    6.00   20.30
  13 -10 -10   54.69   21.40
 -13  10  10  -10.70   13.00
  12 -10 -10   39.80   17.60
 -12  10  10   47.60   20.50
  11 -10 -10  107.49   26.10
 -11  10  10   66.29   19.40
  10 -10 -10  130.69   25.60
 -10  10  10  123.19   28.10
   9 -10 -10  315.37   35.60
  -9  10  10  228.58   36.30
   8 -10 -10  210.88   34.30
   8 -10 -10  253.17   28.40
  -8  10  10  251.97   30.80
   7 -10 -10   49.30   14.00
   7 -10 -10   17.90   12.40
  -7  10  10   55.19   15.50
   6 -10 -10   23.60    8.40
   6 -10 -10    5.20   10.40
  -6  10  10   -0.70    7.10
   5 -10 -10  443.76   44.10
   5 -10 -10  478.15   33.60
  -5  10  10  528.45   38.20
   4 -10 -10  146.09   29.70
  -4  10  10  180.18   21.40
  -3  10  10   19.00    9.90
  -2  10  10  260.27   24.50
  -1  10  10    0.20    6.80
   0  10  10  136.19   20.30
   1  10  10  241.98   23.70
   2  10  10    7.30   10.70
   3  10  10   10.70   11.00
   3  10  10  -36.60   21.80
  13 -11 -10  259.97   42.30
 -13  11  10  271.07   47.40
  12 -11 -10  227.38   38.70
 -12  11  10  103.29   29.80
  11 -11 -10   28.50   15.30
 -11  11  10  -10.80   19.10
  10 -11 -10  229.68   38.40
 -10  11  10  302.37   38.10
   9 -11 -10   -2.60   14.10
   9 -11 -10   32.20   13.60
   8 -11 -10   14.00   10.20
   8 -11 -10  -10.00    9.10
  -8  11  10  -16.30    8.00
   7 -11 -10   15.40   14.40
   7 -11 -10   40.40   13.60
  -7  11  10   38.90   13.40
   6 -11 -10  287.57   35.50
   6 -11 -10  324.67   28.10
  -6  11  10  352.56   33.30
   5 -11 -10   11.00   10.60
  -5  11  10   17.40   10.20
   4 -11 -10    3.30   10.60
  -4  11  10    7.20    7.80
  -3  11  10  100.69   16.80
  -2  11  10    7.90    6.90
  -1  11  10   64.19   13.60
   0  11  10   27.50    9.40
   1  11  10  244.98   29.50
   1  11  10  347.67   28.20
   2  11  10   67.19   15.80
  12 -12 -10  156.58   34.80
 -12  12  10  153.28   33.00
  11 -12 -10  363.76   42.90
 -11  12  10  481.45   49.80
  10 -12 -10   12.40   15.30
 -10  12  10   24.20   16.90
   9 -12 -10  147.39   29.60
   9 -12 -10  202.68   25.90
  -9  12  10  190.88   33.80
   8 -12 -10   35.40   19.20
   8 -12 -10   29.30   12.90
  -8  12  10   30.40   16.00
   7 -12 -10   10.80   13.30
   7 -12 -10   12.10    8.90
  -7  12  10   17.20   10.90
   6 -12 -10  239.28   40.50
  -6  12  10  304.77   29.40
   5 -12 -10   29.50   13.40
  -5  12  10   28.40    9.70
   4 -12 -10   76.49   24.60
  -4  12  10  138.89   17.20
  -3  12  10    7.30    7.00
  -2  12  10   22.90    8.70
  -1  12  10   11.70    8.10
   0  12  10   17.40    9.20
 -11  13  10  103.49   29.40
  10 -13 -10  -13.40   12.10
 -10  13  10   19.80   32.20
   9 -13 -10   40.60   20.40
   9 -13 -10   33.70   15.20
  -9  13  10   45.80   19.10
   8 -13 -10   43.90   14.40
   8 -13 -10   86.19   22.80
  -8  13  10   18.30   15.70
   7 -13 -10   14.10   11.70
   7 -13 -10    0.30    8.00
  -7  13  10   -0.90   10.70
   6 -13 -10  570.94   56.19
  -6  13  10  507.95   36.20
   5 -13 -10  252.37   44.20
   4 -13 -10  129.79   32.70
   3 -13 -10    7.10    9.90
  -3  13  10   -2.30    6.80
   9 -14 -10   50.09   23.50
  -9  14  10   73.79   22.90
   8 -14 -10   32.90   15.80
  -8  14  10   12.30   13.50
   7 -14 -10  223.38   41.70
   6 -14 -10   27.70   17.60
  -6  14  10   -8.30   10.20
   5 -14 -10   59.69   26.40
   3 -13  11   21.60   20.50
   4 -13  11   29.40   16.30
   4 -13  11   14.20    6.30
   5 -13  11  173.58   17.00
   5 -13  11  144.79   31.30
   6 -13  11   83.69   14.20
   6 -13  11   50.49   22.30
   7 -13  11    2.20   14.50
   7 -13  11   11.00   13.10
   7 -13  11   17.90    9.70
   8 -13  11   16.10    9.20
   8 -13  11   56.69   18.20
   8 -13  11   21.80   13.80
   9 -13  11  414.76   35.70
   9 -13  11  416.96   48.90
   9 -13  11  453.05   42.90
  10 -13  11  163.58   34.90
  10 -13  11  166.98   26.50
   1 -12  11    9.40    7.00
   2 -12  11   32.30    9.50
   2 -12  11   38.30   20.90
   3 -12  11   29.10   18.30
   3 -12  11   18.70    8.30
   4 -12  11   98.19   24.30
   5 -12  11   22.10    8.40
   5 -12  11   46.10   16.30
   6 -12  11  119.49   26.00
   6 -12  11  138.89   20.50
   7 -12  11  198.48   23.10
   7 -12  11  201.48   35.70
   8 -12  11  401.56   41.70
   8 -12  11  288.67   30.00
   9 -12  11  -11.10   10.70
   9 -12  11  -14.90    8.70
  10 -12  11    7.00   12.30
  10 -12  11   -0.70   10.90
  11 -12  11   10.20   14.10
  11 -12  11   35.80   17.50
  12 -12  11  270.57   43.80
  -1 -11  11   11.10   10.00
   0 -11  11  133.99   20.10
   1 -11  11   21.80   10.60
   2 -11  11  300.27   38.00
   2 -11  11  394.16   28.20
   3 -11  11  535.25   49.70
   3 -11  11  479.25   31.70
   4 -11  11    7.90    7.50
   5 -11  11    1.70    6.60
   5 -11  11   13.50   13.10
   6 -11  11   11.70   10.80
   7 -11  11   -3.80    6.70
   8 -11  11  241.48   37.80
   8 -11  11  270.47   28.20
   9 -11  11   89.79   22.30
   9 -11  11   77.49   18.90
  10 -11  11  180.28   32.60
  10 -11  11  124.49   25.50
  11 -11  11  194.98   37.40
  12 -11  11    6.20   11.80
  -3 -10  11  157.28   26.30
   2  10 -11    5.10   12.60
  -2 -10  11   22.10   10.70
  -1 -10  11  180.38   21.80
   0 -10  11   24.80   10.20
   1 -10  11  264.67   24.20
   2 -10  11   15.20   11.10
   2 -10  11   -6.40    5.60
   3 -10  11  333.37   36.10
   3 -10  11  306.27   26.40
   4 -10  11   81.59   19.60
   4 -10  11   72.49   16.20
   5 -10  11  477.15   34.50
   5 -10  11  494.65   43.00
   6 -10  11   33.30   11.50
   6 -10  11   46.90   15.60
   7 -10  11   29.50   13.10
   7 -10  11   -1.00    7.50
   8 -10  11  102.49   22.40
   8 -10  11  117.39   21.70
   9 -10  11    4.10   12.10
  10 -10  11   22.30   12.50
  11 -10  11   75.19   21.00
  12 -10  11   49.10   20.30
  13 -10  11   33.70   13.90
   4   9 -11  405.86   40.00
  -4  -9  11  378.66   37.40
   3   9 -11  -11.90   13.20
  -3  -9  11  -13.90    9.80
   2   9 -11   68.79   15.70
   1   9 -11   10.00   10.80
  -1  -9  11   -7.10    8.70
   0  -9  11  190.98   22.10
   0  -9  11  192.78   30.80
   1  -9  11  192.48   28.00
   1  -9  11  165.18   19.50
   2  -9  11  327.67   35.20
   2  -9  11  275.27   25.20
   3  -9  11   33.70   11.80
   3  -9  11   31.50    8.70
   4  -9  11  236.78   24.60
   4  -9  11  261.17   28.90
   5  -9  11  137.79   22.00
   5  -9  11   94.89   20.80
   6  -9  11   25.50   11.70
   6  -9  11   27.20    9.80
   7  -9  11   51.39   15.10
   7  -9  11   68.29   17.70
   8  -9  11  268.37   30.60
   8  -9  11  240.48   28.40
   9  -9  11  211.48   32.60
  10  -9  11  256.57   31.50
  11  -9  11  405.26   41.30
  12  -9  11    2.80   11.80
  13  -9  11  -14.30   11.20
  -5  -8  11    6.50   26.00
   4   8 -11  428.36   39.70
  -4  -8  11  382.06   37.40
   3   8 -11  233.18   29.10
  -3  -8  11  206.68   25.50
   2   8 -11  106.69   19.50
  -2  -8  11   91.49   21.30
  -2  -8  11  127.29   22.60
   1   8 -11  293.37   28.00
  -1  -8  11  220.48   24.90
  -1  -8  11  221.98   27.90
   0   8 -11   21.00   10.00
   0  -8  11   39.30   13.30
   0  -8  11   20.00   10.40
   1  -8  11   30.20    9.20
   2  -8  11   94.19   19.70
   2  -8  11  106.39   17.90
   3  -8  11   41.30   14.30
   3  -8  11   40.80   12.10
   4  -8  11   63.39   15.90
   4  -8  11   76.89   15.60
   5  -8  11  200.58   23.50
   5  -8  11  212.28   24.50
   6  -8  11   60.49   15.50
   6  -8  11  119.19   21.60
   7  -8  11  252.87   28.80
   7  -8  11  313.87   30.50
   8  -8  11   41.90   14.50
   8  -8  11   48.70   14.50
  -9   8 -11  121.09   26.10
   9  -8  11  160.48   27.70
  11  -8  11  504.45   45.10
  12  -8  11  100.99   24.00
  13  -8  11  176.78   33.20
  -6  -7  11  -27.10   11.30
  -5  -7  11  172.78   31.20
   4   7 -11   -8.90   12.20
  -4  -7  11   14.30    8.60
   3   7 -11   46.50   24.30
  -3  -7  11   68.79   18.90
   2   7 -11   90.19   19.30
  -2  -7  11   91.09   17.80
  -2  -7  11   93.89   20.30
   1   7 -11  267.87   26.10
  -1  -7  11  237.18   27.10
  -1  -7  11  278.97   27.20
   0   7 -11   13.70    6.60
   0  -7  11    2.60    8.10
   0  -7  11    1.00    5.00
   1  -7  11  224.08   24.60
   1  -7  11  266.47   25.40
   2  -7  11  889.21   48.90
   2  -7  11  939.51   51.19
   3  -7  11  290.27   26.20
   3  -7  11  292.37   26.60
   4  -7  11  576.04   38.20
   4  -7  11  588.54   39.70
   5  -7  11   -1.50    5.10
   5  -7  11   14.40    7.20
   6  -7  11  295.97   30.20
   6  -7  11  246.38   24.80
  -7   7 -11   -6.80    5.50
   7  -7  11    2.10    6.60
   7  -7  11    7.30    8.10
  -8   7 -11    0.10    8.40
   8  -7  11   -3.10    6.90
  -9   7 -11  318.57   34.10
   9  -7  11  322.87   33.30
  10  -7  11  321.07   33.20
  11  -7  11    8.20    9.60
  12  -7  11   -4.00   10.00
  13  -7  11   83.79   23.10
  -7  -6  11   52.59   23.40
  -6  -6  11  134.49   27.10
  -5  -6  11   10.50   12.00
   4   6 -11   45.90   15.40
  -4  -6  11   65.29   17.40
  -4  -6  11   37.20   15.90
   3   6 -11   17.40   12.80
  -3  -6  11   41.20   12.60
  -3  -6  11    7.10   10.00
   2   6 -11   82.39   16.70
  -2  -6  11   92.29   18.10
  -2  -6  11   80.29   17.10
   1   6 -11  273.97   26.60
  -1  -6  11  283.27   27.00
  -1  -6  11  251.97   24.80
   0   6 -11   56.19   13.60
   0  -6  11   80.29   16.30
   0  -6  11  102.09   17.80
   1  -6  11   34.40   11.00
   1  -6  11   37.80    9.40
   2  -6  11   21.70    8.90
   2  -6  11   10.60    7.20
   3  -6  11   12.50    8.40
   3  -6  11   20.30    7.00
   4  -6  11 1140.09   52.19
   4  -6  11 1096.19   57.79
   5  -6  11  949.51   48.40
   5  -6  11 1080.49   58.09
  -6   6 -11   86.99   17.00
   6  -6  11   74.29   18.10
   6  -6  11  114.19   19.50
  -7   6 -11  254.87   27.30
   7  -6  11  232.08   24.30
  -8   6 -11  106.99   21.00
   8  -6  11   86.39   19.40
  -9   6 -11   36.00   15.30
   9  -6  11   26.00   12.40
  10  -6  11   81.89   21.40
  11  -6  11   19.00    9.20
  12  -6  11  133.29   29.60
  13  -6  11  -13.80    9.30
  -8  -5  11  120.69   27.80
  -7  -5  11   19.40   14.50
  -6  -5  11    7.10   12.70
   5   5 -11  497.25   42.90
  -5  -5  11  524.75   43.40
  -5  -5  11  435.86   41.80
   4   5 -11  124.59   25.40
  -4  -5  11  104.89   21.30
  -4  -5  11  138.69   26.00
   3   5 -11  221.58   24.70
  -3  -5  11  172.48   21.90
  -3  -5  11  211.58   25.00
   2   5 -11    8.20    6.80
  -2  -5  11   14.70    8.10
  -2  -5  11    2.10    6.90
   1   5 -11  963.70   52.59
  -1  -5  11  946.91   46.60
  -1  -5  11  927.31   51.69
   0   5 -11   42.80   12.50
   0  -5  11   37.90   10.80
   0  -5  11   45.20   10.80
  -1   5 -11   -4.40    5.60
   1  -5  11    2.00    3.50
   1  -5  11   -0.60    4.50
   2  -5  11   11.10    5.30
   2  -5  11    8.30    7.70
   3  -5  11  447.96   33.70
   3  -5  11  444.26   27.10
   4  -5  11    7.80    6.70
   4  -5  11   19.60    6.70
  -5   5 -11   57.49   13.10
   5  -5  11   60.29   15.70
  -6   5 -11   19.80    8.60
   6  -5  11   12.50    9.40
   6  -5  11   40.10   10.90
  -7   5 -11  857.61   51.29
   7  -5  11  933.91   51.49
  -8   5 -11   31.80   12.80
   8  -5  11   38.50   12.50
  -9   5 -11  248.18   29.70
   9  -5  11  214.38   32.40
  10  -5  11  523.15   43.80
  11  -5  11    1.20   12.90
  12  -5  11  179.18   33.60
  13  -5  11  -17.50   11.60
  -9  -4  11    5.30   13.80
  -8  -4  11   67.19   20.90
  -7  -4  11   13.00   13.00
  -6  -4  11   57.79   17.30
  -6  -4  11   49.80   19.70
   5   4 -11  241.18   29.00
  -5  -4  11  247.78   30.10
  -5  -4  11  195.28   29.00
   4   4 -11   48.60   15.30
  -4  -4  11   43.70   13.30
  -4  -4  11   70.39   17.80
   3   4 -11  623.94   44.60
  -3  -4  11  672.23   45.60
  -3  -4  11  583.94   38.10
   2   4 -11 1108.49   58.99
  -2  -4  11 1191.58   60.89
   1   4 -11    5.70    6.60
  -1  -4  11   20.80    7.90
  -1  -4  11   18.10    6.10
   0   4 -11   13.00    7.40
   0  -4  11    8.70    6.20
   0  -4  11    6.30    4.60
  -1   4 -11   15.80    9.50
   1  -4  11   15.40    8.00
   1  -4  11   20.90    5.90
   2  -4  11  196.18   14.60
   2  -4  11  185.98   21.80
   3  -4  11  299.87   19.60
   3  -4  11  280.57   26.90
  -4   4 -11    2.60    4.90
   4  -4  11   12.90    5.50
   4  -4  11   -1.00    3.70
  -5   4 -11    3.30    4.80
   5  -4  11   -3.50    3.80
   5  -4  11   -6.00    4.80
  -6   4 -11   30.90   10.10
   6  -4  11   21.80    9.20
  -7   4 -11  294.37   27.60
   7  -4  11  297.57   27.40
  -8   4 -11   80.29   19.10
   8  -4  11   70.59   16.40
  -9   4 -11  141.79   25.20
   9  -4  11  155.48   27.30
  10  -4  11   54.99   16.80
  11  -4  11    9.90   13.60
  12  -4  11  381.16   44.00
  13  -4  11  381.76   44.70
 -10  -3  11   14.50   20.10
  -9  -3  11   11.70   10.60
  -8  -3  11  582.54   55.19
  -7  -3  11  321.47   34.10
  -7  -3  11  378.76   40.70
  -6  -3  11   28.30   13.10
  -6  -3  11   62.59   19.10
   5   3 -11   23.30   11.70
  -5  -3  11   29.90   12.70
  -5  -3  11    9.00    8.30
  -4  -3  11  308.57   31.10
  -4  -3  11  262.37   24.70
   3   3 -11   11.60    7.20
  -3  -3  11   30.30   10.60
  -3  -3  11    3.40    6.30
   2   3 -11  448.96   34.80
  -2  -3  11  404.76   25.30
  -2  -3  11  437.16   34.40
   1   3 -11  281.17   26.40
  -1  -3  11  284.57   17.60
  -1  -3  11  289.07   27.40
   0   3 -11  758.42   45.10
   0  -3  11  733.73   28.10
   0  -3  11  717.33   27.70
   0  -3  11  748.53   44.80
  -1   3 -11  529.55   37.10
   1  -3  11  476.95   35.30
   1  -3  11  467.05   19.40
   2  -3  11   16.90    4.10
   2  -3  11    9.00    5.60
   3  -3  11  722.43   31.50
   3  -3  11  764.42   46.30
  -4   3 -11    9.70    5.40
   4  -3  11   21.50    6.40
   4  -3  11   13.30    7.40
  -5   3 -11   11.70    5.20
   5  -3  11   11.10    5.40
   5  -3  11   -3.40    4.40
  -6   3 -11   21.80    8.50
   6  -3  11   18.10    8.40
  -7   3 -11  574.54   40.30
   7  -3  11  649.83   42.30
  -8   3 -11  193.58   29.40
   8  -3  11  200.08   24.00
  -9   3 -11   18.40   12.30
   9  -3  11   26.80   14.30
  10  -3  11    7.40   13.40
  11  -3  11  225.18   36.50
  12  -3  11    6.10   14.20
  13  -3  11  201.58   41.20
  10   2 -11   43.60   18.80
 -10  -2  11   52.99   23.30
   9   2 -11  411.36   41.20
  -9  -2  11  427.56   47.10
   8   2 -11    7.20    9.10
  -8  -2  11   -6.30    6.00
  -8  -2  11   -0.20   10.70
   7   2 -11  290.17   31.20
  -7  -2  11  258.77   30.60
  -7  -2  11  289.57   43.00
   6   2 -11  101.19   19.10
   6   2 -11  116.39   24.00
  -6  -2  11   87.79   21.70
  -6  -2  11   70.49   17.80
   5   2 -11  903.41   58.09
  -5  -2  11  870.11   47.90
  -5  -2  11  970.00   60.29
   4   2 -11   43.60   13.80
  -4  -2  11   17.80   10.20
  -4  -2  11   31.90    9.50
   3   2 -11   -8.30    6.20
  -3  -2  11   -1.90    4.80
  -3  -2  11   12.00    6.60
   2   2 -11  210.78   22.90
  -2  -2  11  186.58   22.30
  -2  -2  11  203.88   13.90
   1   2 -11    5.60    5.70
  -1  -2  11   12.80    7.50
  -1  -2  11   11.40    2.90
   0   2 -11  132.69   21.00
   0  -2  11  138.39   21.60
  -1   2 -11   -0.10    3.80
   1  -2  11    7.00    4.50
   2  -2  11  136.39    9.90
   2  -2  11  157.88   19.30
  -3   2 -11  540.55   26.00
   3  -2  11  544.25   26.70
   3  -2  11  520.65   38.40
  -4   2 -11  205.38   17.40
   4  -2  11  213.68   18.10
   4  -2  11  158.88   25.40
  -5   2 -11  441.76   29.40
   5  -2  11  509.55   32.70
   5  -2  11  446.06   38.30
  -6   2 -11 1244.38   58.59
   6  -2  11 1148.09   57.79
  -7   2 -11    8.90    7.10
   7  -2  11   -1.50    6.70
  -8   2 -11   88.99   19.80
   8  -2  11   62.09   17.40
  -9   2 -11   77.09   21.00
   9  -2  11   89.09   22.00
  10  -2  11   75.39   21.50
  11  -2  11   86.89   22.60
  12  -2  11   13.20   15.30
  11   1 -11    5.40   17.30
  10   1 -11   43.10   17.20
 -10  -1  11   59.19   22.30
   9   1 -11  224.18   36.10
  -9  -1  11  245.28   43.90
   8   1 -11  170.18   28.50
  -8  -1  11  110.09   26.40
  -8  -1  11  152.48   26.60
   7   1 -11   34.90   11.70
  -7  -1  11   14.10    9.60
   6   1 -11  207.18   23.30
   6   1 -11  226.88   29.00
  -6  -1  11  241.88   29.60
  -6  -1  11  206.48   22.90
   5   1 -11   23.20   10.50
   5   1 -11   30.70    9.50
  -5  -1  11   21.30   11.40
  -5  -1  11   24.90    9.00
   4   1 -11    8.20    4.10
   4   1 -11   16.10    7.50
  -4  -1  11    2.20    5.00
   3   1 -11   17.10    7.90
  -3  -1  11   25.70    9.80
  -3  -1  11   16.10    5.00
   2   1 -11  489.35   36.40
  -2  -1  11  528.35   19.10
  -2  -1  11  543.65   38.40
   1   1 -11   15.70    7.60
  -1  -1  11    6.90    5.60
   0   1 -11 1393.46   64.29
   0  -1  11 1363.56   64.39
   1  -1  11 1300.37   62.39
  -2   1 -11    2.50    2.30
   2  -1  11    9.00    3.60
   2  -1  11    9.40    6.00
   3  -1  11   10.00    4.90
   3  -1  11   10.40    6.50
  -4   1 -11  262.67   20.50
   4  -1  11  269.77   21.70
   4  -1  11  304.27   30.20
  -5   1 -11   30.20    9.70
   5  -1  11   21.50   10.30
  -6   1 -11 1024.30   53.69
   6  -1  11 1002.40   54.69
  -7   1 -11  265.97   28.50
   7  -1  11  277.47   28.30
  -8   1 -11  281.37   30.90
   8  -1  11  289.57   31.00
   9  -1  11  252.97   30.90
  10  -1  11   -8.80   10.70
  11  -1  11  103.29   26.90
  12  -1  11   27.80   15.70
  12   0 -11  196.48   36.00
 -12   0  11  208.68   41.20
  11   0 -11  213.98   36.30
 -11   0  11  123.79   31.10
  10   0 -11   38.80   15.70
 -10   0  11    4.00   12.60
   9   0 -11  179.18   30.70
  -9   0  11  140.69   30.10
  -9   0  11  186.28   31.20
  -8   0  11   34.90   16.00
  -8   0  11   15.10   10.90
   7   0 -11    3.80    6.00
  -7   0  11    7.10    9.50
  -7   0  11   12.40    8.90
   6   0 -11   51.69   13.20
   6   0 -11   81.79   19.40
  -6   0  11   67.49   19.30
  -6   0  11   80.79   15.50
   5   0 -11   54.19   10.90
   5   0 -11   43.00   14.60
  -5   0  11   46.60   14.30
  -5   0  11   48.90   10.50
   4   0 -11   15.10    9.30
   4   0 -11   20.00    5.90
  -4   0  11   13.40    7.10
   3   0 -11  761.62   29.30
   3   0 -11  703.43   45.60
  -3   0  11  659.93   44.90
  -3   0  11  781.12   28.90
   2   0 -11  156.58   19.70
  -2   0  11  148.89   23.10
   1   0 -11 1408.06   64.99
  -1   0  11 1428.76   66.19
   0   0 -11   -2.30    2.10
   0   0  11    0.20    3.00
  -1   0 -11 1355.86   36.60
   1   0  11 1431.36   65.89
  -2   0 -11  133.39   11.40
   2   0  11  138.69   22.50
  -3   0 -11  714.63   34.20
   3   0  11  735.23   35.60
   3   0  11  705.33   46.30
  -4   0 -11   -6.60    4.00
   4   0  11    2.50    5.30
   4   0  11   -1.30    4.10
  -5   0 -11   56.29   13.00
   5   0  11   56.79   14.10
  -6   0 -11   97.09   17.90
   6   0  11   87.89   18.20
  -7   0 -11   35.40   10.00
   7   0  11    5.90    7.40
  -8   0 -11   50.89   13.90
   8   0  11   65.39   19.30
   9   0  11  187.98   32.90
  10   0  11   10.90   15.20
  11   0  11  113.29   28.20
  12   0  11  279.67   45.40
  12  -1 -11   49.00   19.80
 -12   1  11   35.70   19.90
  11  -1 -11  154.08   30.50
 -11   1  11  101.79   28.20
  10  -1 -11   20.00   13.90
 -10   1  11   14.60   11.00
   9  -1 -11  216.38   27.30
  -9   1  11  246.18   29.70
  -9   1  11  250.77   40.60
   8  -1 -11  298.17   29.80
  -8   1  11  275.87   28.00
  -8   1  11  303.97   35.00
   7  -1 -11  245.58   25.80
  -7   1  11  298.67   26.50
  -7   1  11  318.57   35.90
   6  -1 -11 1069.19   63.99
  -6   1  11 1003.90   62.49
  -6   1  11 1014.10   49.20
   5  -1 -11   17.10    6.00
   5  -1 -11   18.00   12.90
  -5   1  11   19.90    7.20
  -5   1  11    3.60    7.70
   4  -1 -11  299.27   29.30
   4  -1 -11  275.17   18.50
  -4   1  11  252.07   27.40
  -4   1  11  286.77   18.80
   3  -1 -11    8.60    3.30
   3  -1 -11   12.80    7.80
  -3   1  11   17.60    9.90
   2  -1 -11   13.90    8.10
   2  -1 -11    7.90    1.70
  -2   1  11    4.20    6.00
   1  -1 -11 1426.76   64.79
  -1   1  11 1374.46   64.99
   0  -1 -11 1484.35   38.80
   0  -1 -11 1350.56   38.50
   0  -1 -11 1401.66   64.89
   0   1  11 1361.36   64.69
  -1  -1 -11   10.80    3.50
   1   1  11    2.20    4.50
  -2  -1 -11  531.05   27.90
   2   1  11  506.05   37.60
  -3  -1 -11   20.70    7.50
   3   1  11    4.90    6.00
  -4  -1 -11    4.40    4.30
   4   1  11    8.00    5.40
   4   1  11    5.10    7.70
  -5  -1 -11   34.10   10.40
   5   1  11   33.70   10.90
  -6  -1 -11  252.67   27.40
   6   1  11  229.18   33.10
  -7  -1 -11   58.49   15.00
   7   1  11   29.00   13.50
   8   1  11  212.08   34.50
   9   1  11  257.07   40.50
  10   1  11   33.90   18.60
  11   1  11   67.79   16.20
  12  -2 -11   11.20   16.70
 -12   2  11   -8.70   16.50
  11  -2 -11   82.99   23.60
 -11   2  11   71.19   21.30
  10  -2 -11   85.59   21.20
 -10   2  11  125.59   29.30
 -10   2  11   98.09   27.40
   9  -2 -11   77.99   19.30
  -9   2  11   52.69   16.20
  -9   2  11   51.59   19.20
   8  -2 -11   83.29   17.60
  -8   2  11   86.79   18.20
  -8   2  11   80.79   21.40
   7  -2 -11   19.30    8.80
   7  -2 -11   31.90   14.50
  -7   2  11    8.10    8.50
  -7   2  11   13.80    7.30
   6  -2 -11 1200.18   53.39
   6  -2 -11 1040.60   64.09
  -6   2  11 1211.18   68.79
  -6   2  11 1195.38   53.59
   5  -2 -11  490.65   28.50
   5  -2 -11  463.45   38.90
  -5   2  11  491.35   40.00
  -5   2  11  444.86   28.10
   4  -2 -11  197.38   15.10
   4  -2 -11  173.98   22.40
  -4   2  11  203.48   24.30
  -4   2  11  208.58   16.80
   3  -2 -11  490.35   22.60
   3  -2 -11  540.25   38.20
  -3   2  11  514.05   38.20
   2  -2 -11  145.69   22.60
   2  -2 -11  130.59    9.90
  -2   2  11  164.98   20.10
   1  -2 -11    4.60    3.50
   1  -2 -11    8.30    3.40
   1  -2 -11    4.70    2.70
  -1   2  11    5.80    4.80
   0  -2 -11  146.99   12.20
   0  -2 -11  110.29   19.20
   0   2  11  127.79   21.10
  -1  -2 -11   10.10    4.60
   1   2  11   -0.80    4.90
  -2  -2 -11  183.88   18.20
   2   2  11  189.18   22.70
  -3  -2 -11   13.60    6.80
   3   2  11   -4.80    5.00
  -4  -2 -11   42.50   12.20
   4   2  11   17.80    8.80
  -5  -2 -11  949.51   55.29
  -6  -2 -11  114.59   20.80
   6   2  11   81.89   20.90
  -7  -2 -11  240.88   35.90
   7   2  11  289.87   34.30
   8   2  11  -11.00   11.10
   9   2  11  335.07   42.40
  10   2  11   83.59   22.30
  13  -3 -11  187.08   37.10
 -13   3  11   84.89   36.10
  12  -3 -11  -24.60   10.40
 -12   3  11   37.70   21.00
  11  -3 -11  212.28   35.00
 -11   3  11  232.98   41.10
  10  -3 -11    9.90   11.80
 -10   3  11   43.30   16.30
 -10   3  11    0.40   10.30
   9  -3 -11   26.00    9.90
  -9   3  11   18.60   13.10
  -9   3  11   32.10   12.00
   8  -3 -11  214.08   23.80
  -8   3  11  218.28   24.70
  -8   3  11  152.58   44.10
   7  -3 -11  594.44   37.80
   7  -3 -11  582.04   46.90
  -7   3  11  536.65   36.60
  -7   3  11  612.94   49.80
   6  -3 -11   12.80    5.20
   6  -3 -11   20.00   10.10
  -6   3  11   21.60    8.10
  -6   3  11   17.10   10.30
   5  -3 -11    9.20    4.40
   5  -3 -11   -2.50    6.90
  -5   3  11   25.90   11.40
  -5   3  11   10.80    5.20
   4  -3 -11   17.30    6.00
   4  -3 -11   14.20    6.90
  -4   3  11   17.40    8.50
   3  -3 -11  748.43   46.00
   3  -3 -11  743.53   32.60
  -3   3  11  788.92   48.00
   2  -3 -11   12.80    6.90
   2  -3 -11    5.10    3.80
  -2   3  11   -1.70    3.00
   1  -3 -11  481.85   35.30
   1  -3 -11  531.25   28.50
  -1   3  11  560.44   38.70
   0  -3 -11  717.63   34.90
   0   3  11  647.14   42.30
  -1  -3 -11  212.98   20.10
   1   3  11  278.47   27.20
  -2  -3 -11  491.85   33.70
   2   3  11  521.35   38.50
  -3  -3 -11   25.60    9.00
   3   3  11   13.50    9.20
  -4  -3 -11  286.67   28.60
   4   3  11  241.58   29.10
  -5  -3 -11    9.00   12.30
  -6  -3 -11   -9.20    9.10
  13  -4 -11  465.55   47.80
 -13   4  11  536.85   59.69
  12  -4 -11  315.47   38.00
 -12   4  11  261.57   45.40
 -11   4  11   -3.10    7.40
  10  -4 -11   15.60   11.80
 -10   4  11   56.19   18.10
 -10   4  11   39.90   14.70
   9  -4 -11  124.09   22.40
  -9   4  11  130.99   27.70
  -9   4  11  119.49   21.90
   8  -4 -11   67.09   14.40
  -8   4  11   86.29   17.90
  -8   4  11   41.20   16.20
   7  -4 -11  285.77   31.20
   7  -4 -11  287.57   25.50
  -7   4  11  244.08   30.30
  -7   4  11  232.38   24.30
   6  -4 -11   23.00   12.10
   6  -4 -11   23.60    8.10
  -6   4  11    4.50    7.00
  -6   4  11   16.10    7.80
   5  -4 -11  -10.10    5.30
  -5   4  11    9.10    6.30
   4  -4 -11   -0.90    6.70
   4  -4 -11   14.40    6.10
  -4   4  11   10.10    7.10
   3  -4 -11  268.67   26.10
   3  -4 -11  281.57   21.30
  -3   4  11  287.57   28.10
   2  -4 -11  203.28   18.40
   2  -4 -11  206.68   23.10
  -2   4  11  217.28   24.00
   1  -4 -11   11.70    6.40
  -1   4  11   14.50    8.00
   0  -4 -11   -0.80    4.90
   0   4  11    9.60    5.60
  -1  -4 -11   35.30    9.80
  -2  -4 -11 1145.49   58.99
   2   4  11 1200.18   62.99
  -3  -4 -11  662.73   44.90
   3   4  11  596.64   44.40
  -4  -4 -11   51.19   15.30
   4   4  11   68.29   17.70
  -5  -4 -11  221.98   32.30
   5   4  11  310.57   34.30
  13  -5 -11   19.50   15.70
 -13   5  11   16.80   17.00
  12  -5 -11  206.08   33.80
 -12   5  11  223.08   44.30
  11  -5 -11   39.30   16.40
 -11   5  11   32.00   19.70
  10  -5 -11  501.25   41.30
 -10   5  11  490.65   43.60
 -10   5  11  446.96   47.20
   9  -5 -11  228.08   25.90
  -9   5  11  217.68   36.50
   8  -5 -11   36.30   10.60
  -8   5  11   27.20   13.20
  -8   5  11   19.30    9.80
   7  -5 -11  861.31   48.60
   7  -5 -11  980.00   60.59
  -7   5  11  900.71   59.59
  -7   5  11  863.41   51.69
   6  -5 -11    7.60   10.70
   6  -5 -11   35.00   10.30
  -6   5  11   22.90   11.00
   5  -5 -11   54.89   14.30
   5  -5 -11   45.80   13.30
  -5   5  11   44.10   14.20
   4  -5 -11   17.50    7.60
   4  -5 -11    4.70    5.90
  -4   5  11   12.80    7.50
   3  -5 -11  472.85   35.00
   3  -5 -11  465.65   31.30
  -3   5  11  483.95   36.70
   2  -5 -11    6.60    4.90
   2  -5 -11   11.90    6.70
  -2   5  11   13.60    7.60
  -1   5  11    2.30    5.10
   0  -5 -11   63.99   13.80
   0   5  11   43.00   13.10
  -1  -5 -11  967.40   53.69
   1   5  11 1023.20   55.89
  -2  -5 -11   12.10    8.10
   2   5  11   11.20    7.30
  -3  -5 -11  163.18   29.50
   3   5  11  180.08   28.80
  -4  -5 -11   86.49   21.80
   4   5  11  121.99   23.80
   5   5  11  520.05   44.60
   6   5  11   12.80   10.20
  13  -6 -11    5.10   12.80
 -13   6  11    1.50   18.20
  12  -6 -11  112.59   24.20
 -12   6  11  126.69   31.20
  11  -6 -11  -17.00    9.50
 -11   6  11    1.20    9.50
  10  -6 -11   74.99   17.80
 -10   6  11   63.59   20.60
 -10   6  11   58.89   19.50
   9  -6 -11   11.50    9.00
  -9   6  11   25.40   15.00
  -9   6  11   27.80   13.20
   8  -6 -11  102.59   19.80
  -8   6  11   79.39   22.30
  -8   6  11  111.09   22.10
   7  -6 -11  277.67   30.70
   7  -6 -11  243.78   25.40
  -7   6  11  249.58   30.10
   6  -6 -11   94.39   17.80
   6  -6 -11  109.59   26.50
  -6   6  11   82.69   20.20
   5  -6 -11 1084.19   53.99
   5  -6 -11  963.60   55.59
  -5   6  11  998.30   58.69
   4  -6 -11 1065.19   54.09
   4  -6 -11 1093.09   57.49
  -4   6  11 1115.79   60.09
   3  -6 -11   17.40    9.40
   3  -6 -11   22.90    9.20
  -3   6  11    6.10    7.40
   2  -6 -11   27.90    8.80
  -2   6  11   26.00    9.60
  -1   6  11   20.60    8.40
   0  -6 -11   79.69   16.30
   0   6  11   83.29   17.70
  -1  -6 -11  280.97   28.30
   1   6  11  299.77   28.70
  -2  -6 -11   58.09   17.00
   2   6  11   98.59   19.50
  -3  -6 -11   12.50   12.90
   3   6  11   10.20   11.50
   4   6  11   53.49   15.50
   5   6  11   22.80   13.60
   6   6  11  140.29   30.30
   7   6  11   73.39   23.40
  13  -7 -11   56.49   23.20
 -13   7  11   78.39   31.50
  12  -7 -11    0.50   13.30
 -12   7  11    8.90   13.40
  11  -7 -11    6.50   12.00
 -11   7  11   -4.80    8.40
  10  -7 -11  323.07   33.80
 -10   7  11  355.56   41.00
   9  -7 -11  308.57   31.50
  -9   7  11  296.07   35.70
  -9   7  11  293.77   34.10
   8  -7 -11   16.80   11.20
  -8   7  11   10.10    9.70
   7  -7 -11   15.10    7.20
   7  -7 -11   10.70   10.10
  -7   7  11   19.30   10.50
   6  -7 -11  268.07   53.29
   6  -7 -11  294.97   28.50
  -6   7  11  275.77   29.70
   5  -7 -11    3.10    8.70
   5  -7 -11    3.50    6.80
  -5   7  11   12.20    8.90
   4  -7 -11  620.94   42.70
   4  -7 -11  550.34   38.40
  -4   7  11  604.94   42.40
   3  -7 -11  302.17   26.90
   3  -7 -11  299.07   30.10
  -3   7  11  265.27   26.50
  -2   7  11  940.81   51.89
  -1   7  11  250.07   25.10
   0   7  11   14.50    6.30
  -1  -7 -11  304.57   32.10
   1   7  11  370.16   32.50
  -2  -7 -11   44.00   19.90
   2   7  11   69.79   17.30
   3   7  11   25.80   11.00
   4   7  11   -2.70    9.20
   5   7  11  158.88   30.10
   6   7  11   17.70   15.10
  13  -8 -11  175.78   34.90
  12  -8 -11   67.79   21.70
 -12   8  11   71.19   22.70
  11  -8 -11  437.96   43.40
 -11   8  11  532.85   52.59
 -10   8  11    2.80   12.00
   9  -8 -11  220.08   33.20
  -9   8  11  161.28   31.30
   8  -8 -11   23.70   13.50
   8  -8 -11   41.30   13.30
  -8   8  11   57.19   19.30
   7  -8 -11  277.57   31.20
   7  -8 -11  281.97   31.00
  -7   8  11  296.57   32.10
   6  -8 -11   89.29   20.30
  -6   8  11   95.49   20.80
   5  -8 -11  166.68   25.30
   5  -8 -11  184.68   28.40
  -5   8  11  236.68   25.20
   4  -8 -11   72.29   15.00
   4  -8 -11   72.19   17.60
  -4   8  11   66.99   15.70
   3  -8 -11   22.80   11.60
   3  -8 -11   50.49   13.30
  -3   8  11   33.30   10.60
  -2   8  11  141.59   21.90
   1  -8 -11   35.40   12.50
  -1   8  11   26.30    9.70
   0  -8 -11   45.90   15.30
   0   8  11   38.10   13.00
   1   8  11  235.88   26.70
   2   8  11  127.79   22.70
   3   8  11  208.68   31.00
   4   8  11  356.56   38.50
   5   8  11  -10.60   13.10
  13  -9 -11  -27.10   12.90
  12  -9 -11   -8.90   11.40
 -12   9  11    8.40   17.90
  11  -9 -11  326.97   37.50
 -11   9  11  349.57   43.00
  10  -9 -11  237.58   36.10
 -10   9  11  294.67   45.10
  -9   9  11  166.88   31.10
   8  -9 -11  197.48   30.90
   8  -9 -11  268.97   30.50
  -8   9  11  198.38   32.90
   7  -9 -11   35.80   14.30
   7  -9 -11   93.49   21.50
  -7   9  11   33.20   14.80
   6  -9 -11   28.90   10.30
   6  -9 -11    6.50    6.20
  -6   9  11   26.00   11.60
   5  -9 -11  102.79   19.20
   5  -9 -11  132.69   24.50
  -5   9  11  173.48   27.30
   4  -9 -11  238.98   36.10
   4  -9 -11  252.47   25.40
  -4   9  11  220.18   25.00
   3  -9 -11   37.10   13.10
  -3   9  11   14.00    9.70
  -2   9  11  272.87   27.10
  -1   9  11  154.68   23.10
   0   9  11  191.18   22.80
   1   9  11   30.90   11.20
   2   9  11   80.99   17.70
   3   9  11   14.60   10.70
   4   9  11  502.25   43.70
  13 -10 -11   28.40   19.00
 -13  10  11   23.50   20.40
  12 -10 -11   28.20   17.20
 -12  10  11   63.69   19.40
  11 -10 -11   49.00   18.90
 -11  10  11   37.60   19.00
  10 -10 -11    9.10   13.60
 -10  10  11   60.69   20.70
   9 -10 -11   16.00   10.00
  -9  10  11   13.20   14.20
   8 -10 -11  129.29   22.40
   8 -10 -11   60.39   20.50
  -8  10  11   79.89   19.70
   7 -10 -11    1.50    7.80
  -7  10  11   24.60   13.30
   6 -10 -11   81.09   21.10
   6 -10 -11   51.49   15.50
  -6  10  11   51.29   13.80
   5 -10 -11  484.55   47.90
   5 -10 -11  478.15   35.40
  -5  10  11  451.05   37.40
  -4  10  11   67.89   16.30
   3 -10 -11  339.97   39.70
  -3  10  11  337.27   29.80
  -2  10  11    7.30    8.00
  -1  10  11  295.57   27.20
   0  10  11   19.60   11.20
   1  10  11  214.08   23.20
   2  10  11   16.20   13.90
   3  10  11  137.89   23.40
  12 -11 -11    7.40   13.90
 -12  11  11   -8.10   17.00
  11 -11 -11  144.19   31.80
 -11  11  11  154.78   33.00
  10 -11 -11  137.39   28.80
 -10  11  11  146.29   30.20
   9 -11 -11   67.99   19.60
   8 -11 -11  290.47   36.10
   8 -11 -11  225.68   26.30
  -8  11  11  234.08   35.10
   7 -11 -11   -3.20    7.60
   7 -11 -11   -6.30    9.50
  -7  11  11    3.80    7.90
   6 -11 -11   25.60   14.90
   6 -11 -11    5.00   11.80
  -6  11  11   19.30   13.30
   5 -11 -11    7.00   11.80
  -5  11  11   -2.90    8.80
   4 -11 -11    1.00   11.30
  -4  11  11   10.80    9.40
   3 -11 -11  500.95   52.99
  -3  11  11  519.15   36.50
  -2  11  11  327.77   28.60
  -1  11  11   20.00    9.70
   0  11  11  130.99   20.00
   1  11  11   28.50   12.30
 -12  12  11  282.47   48.20
  11 -12 -11   13.40   18.30
 -11  12  11   19.50   19.40
  10 -12 -11   35.20   14.90
 -10  12  11    9.50   15.00
   9 -12 -11  -22.80    9.10
  -9  12  11   11.60   14.40
   8 -12 -11  351.46   41.30
   8 -12 -11  300.87   32.50
  -8  12  11  428.76   40.70
   7 -12 -11  108.79   27.20
  -7  12  11  209.88   26.40
   6 -12 -11   81.19   24.50
  -6  12  11  129.59   22.40
   5 -12 -11    8.80   13.10
  -5  12  11   17.20   10.60
   4 -12 -11  113.89   28.30
  -4  12  11  114.99   19.20
   3 -12 -11   16.30   16.30
  -3  12  11    2.20    9.10
  -2  12  11   59.79   13.20
  -1  12  11   -5.80    8.60
   0  12  11   20.70   12.30
  10 -13 -11   80.59   29.30
 -10  13  11  159.98   34.80
   9 -13 -11  524.15   53.09
  -9  13  11  425.66   43.40
   8 -13 -11    7.80   12.40
  -8  13  11   -7.60   11.30
   7 -13 -11    6.90   12.20
  -7  13  11   15.40   12.20
   6 -13 -11   54.69   21.20
  -6  13  11   76.09   19.00
   5 -13 -11  188.98   36.50
  -5  13  11  200.68   23.60
   4 -13 -11    2.00    9.70
  -3  13  11    9.50    9.80
   4 -13  12   68.09   12.20
   4 -13  12   43.30   20.80
   5 -13  12   95.99   24.90
   5 -13  12   75.09   13.70
   6 -13  12 1360.56   59.59
   6 -13  12 1265.27   83.69
   7 -13  12  324.57   40.60
   7 -13  12  341.17   30.00
   8 -13  12  758.92   63.69
   8 -13  12  842.72   50.59
   9 -13  12  456.55   49.90
   9 -13  12  529.75   42.20
   1 -12  12  362.56   44.20
   2 -12  12  -11.10   14.30
   3 -12  12  368.86   43.50
   3 -12  12  377.86   27.40
   4 -12  12   -1.60    7.00
   4 -12  12    4.50   13.30
   5 -12  12  246.78   40.30
   5 -12  12  311.77   27.60
   6 -12  12   65.79   20.10
   6 -12  12   35.10   11.70
   7 -12  12   35.80   17.30
   7 -12  12   28.40   12.80
   8 -12  12  646.94   45.50
   8 -12  12  743.83   58.59
   9 -12  12 1761.82  102.89
  10 -12  12  299.27   34.50
  10 -12  12  215.68   34.30
  11 -12  12  823.12   65.89
  11 -12  12  838.02   59.89
  -1 -11  12  854.11   48.90
   0 -11  12  521.05   36.10
   1 -11  12   30.40   18.00
   1 -11  12   44.90   11.80
   2 -11  12  341.67   28.50
   2 -11  12  260.97   42.00
   3 -11  12  629.94   38.60
   3 -11  12  647.34   54.99
   4 -11  12  510.25   35.30
   5 -11  12   20.40   15.20
   5 -11  12    2.70    8.10
   6 -11  12  259.47   27.40
   7 -11  12  436.76   42.20
   7 -11  12  458.25   37.60
   8 -11  12   65.79   20.40
   8 -11  12   88.29   20.90
   9 -11  12   62.89   18.60
   9 -11  12   66.99   18.90
  10 -11  12   15.20   11.90
  10 -11  12   36.00   15.60
  11 -11  12  510.45   50.19
  11 -11  12  524.45   50.19
  12 -11  12  355.16   43.10
  -2 -10  12  301.57   32.10
  -1 -10  12    6.10   10.10
   0 -10  12  133.29   22.90
   1 -10  12  199.58   22.70
   1 -10  12  166.18   31.70
   2 -10  12 2909.51  124.59
   2 -10  12 3045.70  104.89
   3 -10  12  656.63   40.80
   3 -10  12  632.84   49.99
   4 -10  12  189.98   30.10
   4 -10  12  189.18   22.70
   5 -10  12  223.58   25.20
   5 -10  12  210.78   32.00
   6 -10  12  579.44   41.90
   6 -10  12  603.24   46.40
   7 -10  12   38.50   12.40
   7 -10  12   26.10   10.30
   8 -10  12   19.80    8.00
   8 -10  12   -1.30    8.30
   9 -10  12  154.08   27.90
   9 -10  12  150.18   27.60
  10 -10  12  159.68   31.40
  10 -10  12  131.39   26.50
  11 -10  12   30.80   17.60
  12 -10  12   -3.70   12.60
  -4  -9  12  485.15   44.20
   3   9 -12 1838.52   85.49
  -3  -9  12 1867.01   87.69
   2   9 -12   65.49   17.60
  -2  -9  12   49.00   15.50
   1   9 -12  134.69   22.00
  -1  -9  12  141.79   24.70
   0  -9  12   11.90    8.40
   0  -9  12   28.50   11.30
   1  -9  12  522.85   37.60
   1  -9  12  510.15   39.60
   1  -9  12  456.65   43.70
   2  -9  12  301.07   27.60
   2  -9  12  255.07   32.10
   3  -9  12  144.59   26.80
   3  -9  12  124.49   19.70
   4  -9  12  651.93   42.90
   4  -9  12  674.63   47.10
   5  -9  12 1827.52   80.69
   5  -9  12 1948.41   86.79
   6  -9  12   78.39   17.60
   6  -9  12   54.39   16.70
   7  -9  12 1038.90   59.99
   7  -9  12 1004.10   60.29
   8  -9  12  801.42   55.29
   8  -9  12  841.12   55.29
   9  -9  12    8.50   10.40
   9  -9  12    7.30   11.20
  10  -9  12  180.08   31.20
  11  -9  12  290.17   36.40
  12  -9  12  243.08   39.70
  13  -9  12   31.40   17.70
  -5  -8  12  869.01   62.99
  -4  -8  12  604.84   47.90
   3   8 -12   46.50   18.90
  -3  -8  12   91.39   20.80
   2   8 -12   22.10   10.60
  -2  -8  12    8.30    8.00
  -2  -8  12  -13.10   12.30
   1   8 -12  756.22   49.30
  -1  -8  12  952.50   53.39
  -1  -8  12  770.62   51.89
   0   8 -12  983.00   55.09
   0  -8  12 1001.70   54.99
   0  -8  12  943.11   55.89
   1  -8  12   13.00    8.10
   1  -8  12   -8.70    5.60
   1  -8  12   -2.00    7.60
   2  -8  12 1502.85   72.09
   2  -8  12 1417.36   66.69
   3  -8  12   43.80   13.60
   3  -8  12   73.59   15.50
   4  -8  12   24.50   10.00
   4  -8  12   13.20    7.80
   5  -8  12  314.57   28.90
   5  -8  12  275.37   29.20
   6  -8  12  255.27   27.10
   6  -8  12  238.18   27.40
   7  -8  12  109.69   21.90
   7  -8  12   95.59   21.30
   8  -8  12 1048.20   65.99
   8  -8  12 1153.88   63.89
  -9   8 -12  492.05   45.10
   9  -8  12  483.25   41.70
  10  -8  12 2764.62  122.99
  11  -8  12  582.14   50.09
  12  -8  12   -7.70   10.10
  13  -8  12   72.79   22.60
  -6  -7  12  219.08   36.20
  -5  -7  12    7.70   13.40
  -4  -7  12  407.56   38.50
   3   7 -12   22.70   12.70
  -3  -7  12   27.20   13.30
  -3  -7  12   -0.60    9.30
  -2  -7  12 1016.50   58.79
  -2  -7  12  966.20   57.59
   1   7 -12   81.99   18.10
  -1  -7  12   84.79   18.60
  -1  -7  12   98.29   18.50
   0   7 -12   -7.70    5.80
   0  -7  12    1.50    6.10
   0  -7  12   14.50    6.80
   1  -7  12 1055.69   54.99
   1  -7  12 1026.80   55.79
   1  -7  12  981.40   51.49
   2  -7  12  683.23   44.50
   2  -7  12  730.33   43.90
   3  -7  12  171.98   21.60
   3  -7  12  240.48   23.40
   4  -7  12  600.94   38.30
   4  -7  12  593.24   41.60
   5  -7  12 3427.96  124.19
   5  -7  12 3537.75  117.09
   6  -7  12   33.50   11.50
   6  -7  12   40.80   13.70
   7  -7  12    9.30    8.30
   7  -7  12    5.20    7.00
  -8   7 -12    3.70    9.20
   8  -7  12    4.20    9.70
   8  -7  12   -1.30    6.30
  -9   7 -12  294.47   34.70
   9  -7  12  237.88   29.20
  10  -7  12  722.03   55.39
  12  -7  12  262.27   40.50
  13  -7  12 1307.07   84.99
  -7  -6  12 1377.46   85.29
  -6  -6  12   11.60   12.60
  -5  -6  12  212.38   40.40
   4   6 -12  535.75   46.20
  -4  -6  12  600.44   47.40
  -4  -6  12  531.35   43.80
   3   6 -12   67.19   18.40
  -3  -6  12   53.69   15.00
  -3  -6  12   44.90   15.30
   2   6 -12  286.97   42.60
  -2  -6  12  257.67   28.30
  -2  -6  12  234.98   24.40
   1   6 -12   18.80   11.20
  -1  -6  12   44.70   13.10
  -1  -6  12   45.90   14.20
   0   6 -12  134.99   21.50
   0  -6  12  141.79   22.90
   0  -6  12  155.98   18.70
   1  -6  12 1714.13   76.49
   1  -6  12 1845.22   71.59
   2  -6  12  431.06   34.60
   2  -6  12  472.75   30.80
   3  -6  12 1731.93   67.89
   3  -6  12 1894.71   80.29
   4  -6  12 1572.94   72.69
   4  -6  12 1450.95   60.79
   5  -6  12  684.23   39.20
   5  -6  12  725.43   48.20
   6  -6  12  148.69   18.40
   6  -6  12  110.29   22.40
  -7   6 -12  926.91   55.69
   7  -6  12 1002.60   62.89
   7  -6  12 1006.40   53.89
  -8   6 -12 1457.35   74.19
   8  -6  12 1461.25   71.49
  -9   6 -12  112.29   23.80
   9  -6  12  143.99   24.20
  10  -6  12  162.48   27.90
  11  -6  12   22.20   11.50
  12  -6  12    7.20   13.60
  13  -6  12  260.27   43.10
  -8  -5  12   96.89   27.10
  -7  -5  12  253.27   40.90
  -6  -5  12  -10.40    9.30
  -5  -5  12  251.57   38.70
  -5  -5  12  191.08   29.30
   4   5 -12 1821.12   87.89
  -4  -5  12 1929.11   90.79
  -4  -5  12 1844.42   81.99
   3   5 -12  342.87   33.60
  -3  -5  12  293.77   31.00
  -3  -5  12  299.57   28.20
   2   5 -12 3346.77  122.49
  -2  -5  12 3496.85  124.59
  -2  -5  12 3298.67  111.99
   1   5 -12  589.64   42.40
  -1  -5  12  661.13   37.00
  -1  -5  12  638.24   43.80
   0   5 -12  130.39   21.70
   0  -5  12  129.59   15.20
   0  -5  12  126.59   21.10
   1  -5  12   30.30    8.00
   1  -5  12   28.80    9.40
   2  -5  12  301.67   28.30
   2  -5  12  292.17   20.80
   3  -5  12  145.59   14.30
   3  -5  12  139.29   23.20
   4  -5  12 1864.31   67.39
   4  -5  12 1933.11   83.79
   5  -5  12  174.78   18.10
   5  -5  12  124.49   23.60
  -6   5 -12 1705.63   72.99
   6  -5  12 1688.13   69.89
   6  -5  12 1699.93   82.89
  -7   5 -12  677.63   44.20
   7  -5  12  587.44   40.40
  -8   5 -12   54.09   15.70
   8  -5  12   58.49   15.00
  -9   5 -12  629.04   47.90
   9  -5  12  690.23   47.70
  10  -5  12  233.88   35.40
  11  -5  12  207.28   33.80
  12  -5  12   13.90   14.00
  13  -5  12  831.12   66.79
  -9  -4  12   59.99   23.80
  -8  -4  12   10.00   13.80
  -7  -4  12  425.46   45.40
  -6  -4  12  183.68   32.10
  -6  -4  12  181.38   29.50
  -5  -4  12  588.84   48.90
  -5  -4  12  652.23   43.70
   4   4 -12    8.90   10.40
  -4  -4  12   62.09   15.60
  -4  -4  12   14.40   10.50
   3   4 -12  534.65   42.50
  -3  -4  12  524.75   35.10
  -3  -4  12  530.05   41.60
   2   4 -12 1576.74   74.89
  -2  -4  12 1560.14   74.29
  -2  -4  12 1519.75   60.99
   1   4 -12 1850.61   82.19
  -1  -4  12 2045.10   85.19
  -1  -4  12 1979.80   67.19
   0   4 -12  684.53   45.10
   0  -4  12  720.23   46.10
   0  -4  12  787.62   34.00
   0  -4  12  749.62   33.10
  -1   4 -12 3180.38  115.59
   1  -4  12 3201.58   89.39
   1  -4  12 3426.76  117.29
   1  -4  12 3188.68   89.49
   2  -4  12   64.49   15.60
   2  -4  12   48.20    8.20
   3  -4  12   52.79   14.20
   3  -4  12   33.60    7.60
   4  -4  12  674.33   46.00
   4  -4  12  757.02   35.80
  -5   4 -12   40.70    9.70
   5  -4  12   67.29   17.20
   5  -4  12   36.50   10.00
  -6   4 -12  445.26   32.70
   6  -4  12  505.95   33.50
   6  -4  12  460.85   41.40
  -7   4 -12  178.28   26.30
   7  -4  12  193.48   21.50
  -8   4 -12    8.00    9.40
   8  -4  12   45.30   12.20
  -9   4 -12 1707.23   85.19
   9  -4  12 1702.23   83.29
  10  -4  12  576.84   58.19
  11  -4  12  460.15   44.80
  12  -4  12  739.63   61.79
  13  -4  12  459.35   51.39
  -9  -3  12  262.37   46.70
  -8  -3  12  562.74   53.89
  -7  -3  12  702.43   51.09
  -7  -3  12  670.23   55.49
  -6  -3  12  156.88   25.30
  -6  -3  12  163.98   31.00
   5   3 -12   21.10   13.10
  -5  -3  12   44.80   13.10
  -5  -3  12   41.00   16.20
   4   3 -12  217.18   26.40
  -4  -3  12  202.48   25.40
  -4  -3  12  173.18   19.60
  -3  -3  12 1865.61   84.69
  -3  -3  12 1819.52   67.19
   2   3 -12  143.19   24.10
  -2  -3  12  214.68   24.70
  -2  -3  12  146.89   14.40
   1   3 -12   39.00   11.80
  -1  -3  12   37.40   11.30
  -1  -3  12   34.80    6.70
   0   3 -12  352.76   31.40
   0  -3  12  320.77   29.70
   0  -3  12  332.57   15.00
   0  -3  12  355.36   15.10
  -1   3 -12 1174.78   61.69
   1  -3  12 1226.98   35.40
   1  -3  12 1180.88   61.29
   1  -3  12 1315.67   35.80
   2  -3  12  165.58   20.80
   2  -3  12  157.58   10.70
   3  -3  12  378.76   21.10
   3  -3  12  402.86   33.80
  -4   3 -12 3330.07   99.19
   4  -3  12 3169.88  119.49
   4  -3  12 3343.97   98.49
  -5   3 -12  291.57   28.10
   5  -3  12  298.27   30.90
   5  -3  12  370.16   26.50
  -6   3 -12 1839.42   74.79
   6  -3  12 1929.61   75.89
   6  -3  12 1809.22   88.79
  -7   3 -12  550.04   39.10
   7  -3  12  652.63   42.70
  -8   3 -12  301.27   30.80
   8  -3  12  276.27   30.80
  -9   3 -12   32.80   15.40
   9  -3  12   61.39   17.90
  10  -3  12   39.20   15.70
  11  -3  12   86.59   24.70
  12  -3  12 1764.62   99.29
 -10  -2  12  -10.90    9.80
   9   2 -12  310.17   37.70
  -9  -2  12  348.87   43.50
   8   2 -12 2879.91  119.09
  -8  -2  12 2980.50  133.19
  -8  -2  12 2711.33  115.29
  -7  -2  12  289.27   35.10
  -7  -2  12  259.17   29.30
  -6  -2  12 1252.97   81.19
  -6  -2  12 1589.54   70.69
   5   2 -12  626.74   47.90
  -5  -2  12  655.53   49.90
  -5  -2  12  619.54   38.20
   4   2 -12  387.86   36.00
  -4  -2  12  474.35   40.20
  -4  -2  12  528.95   38.00
   3   2 -12  279.77   29.60
  -3  -2  12  300.67   30.50
  -3  -2  12  252.47   18.50
   2   2 -12   66.49   16.10
  -2  -2  12   43.60   13.90
  -2  -2  12   58.39    6.80
   1   2 -12  133.09   21.80
  -1  -2  12  159.58   24.70
   0   2 -12  397.36   32.80
   0  -2  12  395.76   33.00
  -1   2 -12  208.88   23.80
   1  -2  12  213.48   24.00
   2  -2  12  387.56   15.20
   2  -2  12  339.57   31.20
  -3   2 -12 1178.68   43.20
   3  -2  12 1276.77   65.19
   3  -2  12 1269.17   45.10
  -4   2 -12   69.19   12.00
   4  -2  12   79.99   13.20
   4  -2  12   48.00   14.70
  -5   2 -12  144.59   17.10
   5  -2  12  174.98   18.40
   5  -2  12  176.58   28.30
  -6   2 -12 1390.36   63.89
   6  -2  12 1572.34   68.59
  -7   2 -12 3452.85  122.19
   7  -2  12 3520.65  124.79
   8  -2  12  255.77   29.30
  -9   2 -12 1044.40   65.49
   9  -2  12 1071.69   66.09
  10  -2  12   12.20    7.90
  11  -2  12   64.19   20.00
  12  -2  12  303.07   47.00
  11   1 -12  368.76   43.70
 -11  -1  12  309.67   50.99
  10   1 -12   59.69   20.50
 -10  -1  12   60.59   20.10
   9   1 -12  241.38   36.60
  -9  -1  12  209.98   37.10
   8   1 -12  517.85   41.60
  -8  -1  12  519.85   50.39
  -8  -1  12  511.75   40.60
   7   1 -12   10.50    8.40
  -7  -1  12    9.30    9.70
  -7  -1  12   12.70    7.20
   6   1 -12 1059.39   54.29
  -6  -1  12 1064.29   67.09
  -6  -1  12  981.80   51.99
   5   1 -12 1725.03   68.19
   5   1 -12 1754.12   85.49
  -5  -1  12 1785.02   67.09
  -5  -1  12 1683.63   84.59
   4   1 -12    6.80    7.60
  -4  -1  12   30.20   11.60
  -4  -1  12   31.70    7.80
   3   1 -12 3181.38  118.99
  -3  -1  12 3345.07  121.29
  -3  -1  12 3212.58   87.69
   2   1 -12 1147.89   60.99
  -2  -1  12 1176.98   61.49
   1   1 -12  228.08   24.50
  -1  -1  12  262.57   27.00
   0   1 -12 1165.88   59.79
   0  -1  12 1099.69   59.09
   1  -1  12 1095.69   58.39
  -2   1 -12  228.98   12.40
   2  -1  12  277.37   27.50
  -3   1 -12  105.59   11.20
   3  -1  12  136.89   12.80
   3  -1  12  126.39   22.40
  -4   1 -12   29.90    7.50
   4  -1  12   21.80    7.50
   4  -1  12   20.00    9.20
  -5   1 -12 1851.11   70.49
   5  -1  12 1852.61   87.69
   5  -1  12 1586.44   82.49
  -6   1 -12  692.93   43.10
   6  -1  12  636.64   42.40
  -7   1 -12   83.29   18.50
   7  -1  12   61.09   15.80
  -8   1 -12   87.69   21.10
   8  -1  12   77.69   19.80
   9  -1  12  863.41   63.59
  10  -1  12  196.58   35.10
  11  -1  12   26.80   18.50
  12  -1  12  873.71   69.59
  11   0 -12  478.15   48.20
 -11   0  12  392.56   74.79
  10   0 -12  113.89   26.00
 -10   0  12  113.79   28.80
   9   0 -12   -6.80    8.30
  -9   0  12  -12.90    8.30
  -9   0  12    9.30   10.50
   8   0 -12 1027.50   59.99
  -8   0  12 1019.20   71.09
  -8   0  12 1035.70   59.39
   7   0 -12    4.90    7.30
  -7   0  12   -2.00    6.20
  -7   0  12   27.00   12.90
   6   0 -12  111.19   19.20
   6   0 -12  135.89   30.30
  -6   0  12  141.89   16.50
  -6   0  12  152.68   29.00
   5   0 -12  138.49   19.00
   5   0 -12  113.99   23.10
  -5   0  12  117.59   24.20
  -5   0  12  150.08   15.20
   4   0 -12  744.93   33.90
  -4   0  12  813.22   34.20
  -4   0  12  692.73   48.60
   3   0 -12  433.16   35.30
  -3   0  12  360.86   17.40
  -3   0  12  417.06   35.50
   2   0 -12  363.26   32.00
  -2   0  12  369.66   32.20
   1   0 -12 1033.10   56.29
  -1   0  12 1108.79   58.89
   0   0 -12 9370.06  263.07
   0   0  12 9999.00  266.97
   1   0  12 1051.69   57.19
  -2   0 -12  379.26   19.10
   2   0  12  330.67   31.50
  -3   0 -12  366.56   23.00
   3   0  12  359.36   33.30
  -4   0 -12  816.32   49.40
   4   0  12  767.52   51.59
   4   0  12  661.73   38.80
  -5   0 -12  121.79   19.10
   5   0  12  126.09   20.80
   5   0  12  107.19   23.00
  -6   0 -12  101.59   19.00
   6   0  12  170.98   26.80
  -7   0 -12   -8.30    8.60
   7   0  12    5.30    8.20
  -8   0 -12 1023.20   65.79
   8   0  12 1036.30   65.79
   9   0  12   11.60   10.30
  10   0  12  105.29   24.80
  11   0  12  510.85   52.39
  12  -1 -12  937.31   69.39
 -12   1  12  820.22   76.09
  11  -1 -12    9.90   13.90
 -11   1  12   18.50   14.70
  10  -1 -12  189.68   39.60
 -10   1  12  147.69   32.20
   9  -1 -12  878.91   55.89
  -9   1  12  757.32   63.99
  -9   1  12  841.42   54.29
   8  -1 -12   70.69   18.10
  -8   1  12   90.79   21.30
  -8   1  12   84.79   17.80
   7  -1 -12   83.19   16.40
  -7   1  12   48.70   13.50
   6  -1 -12  653.63   40.70
   6  -1 -12  772.92   53.79
  -6   1  12  677.93   38.60
  -6   1  12  664.63   50.79
   5  -1 -12 1956.20   68.59
   5  -1 -12 1844.82   88.19
  -5   1  12 1988.00   68.39
  -5   1  12 1996.50   91.69
   4  -1 -12   29.00    6.80
   4  -1 -12   13.90   12.00
  -4   1  12    7.30    7.40
  -4   1  12   47.40    8.60
   3  -1 -12  134.69    9.60
   3  -1 -12  118.09   21.60
  -3   1  12   96.79   20.20
   2  -1 -12  235.28   25.30
  -2   1  12  282.67   28.10
   1  -1 -12 1073.09   57.79
  -1   1  12 1171.18   60.39
   0  -1 -12 1196.38   29.30
   0  -1 -12 1118.29   59.09
   0   1  12 1062.69   58.59
  -1  -1 -12  262.87   15.20
   1   1  12  245.98   26.40
  -2  -1 -12 1194.98   45.90
   2   1  12 1209.48   63.79
  -3  -1 -12 3200.68  100.29
   3   1  12 3192.88  119.99
  -4  -1 -12   29.00   10.20
   4   1  12   40.20   14.20
  -5  -1 -12 1759.92   76.49
   5   1  12 1714.13   87.09
   5   1  12 1785.72   78.39
  -6  -1 -12  996.60   57.79
   6   1  12 1027.10   60.19
  -7  -1 -12    4.20   10.20
   7   1  12    2.10    6.80
   9   1  12  263.47   40.60
  10   1  12   54.09   15.30
  11   1  12  260.67   43.80
  12  -2 -12  349.37   41.20
 -12   2  12  269.47   47.40
  11  -2 -12   -7.40   15.90
 -11   2  12   72.19   21.30
  10  -2 -12   -8.00   11.00
 -10   2  12    2.40   11.10
 -10   2  12  -12.20   13.60
   9  -2 -12 1006.40   59.89
  -9   2  12 1079.89   75.79
  -9   2  12 1037.60   72.99
   8  -2 -12  208.88   24.30
  -8   2  12  197.28   24.10
  -8   2  12  277.47   34.80
   7  -2 -12 3250.67  111.39
  -7   2  12 3558.94  138.29
  -7   2  12 3150.68  110.69
   6  -2 -12 1524.35   79.69
   6  -2 -12 1606.94   62.99
  -6   2  12 1543.15   62.79
  -6   2  12 1419.46   78.69
   5  -2 -12  154.78   15.10
   5  -2 -12  113.09   22.50
  -5   2  12  125.99   24.70
  -5   2  12  151.38   15.70
   4  -2 -12   56.39   15.00
   4  -2 -12   48.30    8.50
  -4   2  12   61.59   15.80
   3  -2 -12 1302.07   41.50
   3  -2 -12 1304.67   66.09
  -3   2  12 1291.67   66.29
   2  -2 -12  329.17   29.70
   2  -2 -12  348.87   15.30
  -2   2  12  359.56   32.10
   1  -2 -12  241.48   13.70
   1  -2 -12  251.37   25.90
   1  -2 -12  237.58   13.40
  -1   2  12  230.58   25.50
   0  -2 -12  349.37   19.80
   0  -2 -12  398.46   33.00
   0   2  12  329.67   30.80
  -1  -2 -12  137.49   13.70
   1   2  12  138.19   23.90
  -2  -2 -12   85.69   13.50
   2   2  12   57.19   15.00
  -3  -2 -12  315.17   25.60
   3   2  12  319.67   33.00
  -4  -2 -12  463.35   34.80
   4   2  12  416.06   38.20
  -5  -2 -12  673.13   45.40
   5   2  12  706.53   53.29
  -6  -2 -12 1552.54   78.19
   8   2  12 2905.11  128.79
   9   2  12  412.56   44.10
  10   2  12   21.00   14.40
 -12   3  12 2087.59  122.59
  11  -3 -12  109.39   25.90
 -11   3  12   60.69   21.80
  10  -3 -12   37.20   15.10
 -10   3  12   -3.80   12.20
 -10   3  12   16.60   12.70
   9  -3 -12   39.80   13.60
  -9   3  12   28.40   15.00
  -9   3  12   89.49   20.80
   8  -3 -12  278.57   28.10
  -8   3  12  313.67   36.40
  -8   3  12  291.87   28.80
   7  -3 -12  599.94   37.70
  -7   3  12  630.34   39.90
  -7   3  12  572.74   49.20
   6  -3 -12 1796.32   68.09
   6  -3 -12 1638.04   84.19
  -6   3  12 1812.92   71.19
  -6   3  12 1883.91   90.29
   5  -3 -12  304.67   21.70
   5  -3 -12  274.77   30.00
  -5   3  12  252.47   29.60
   4  -3 -12 3238.48  118.49
   4  -3 -12 3009.30   90.89
  -4   3  12 3243.28  120.39
   3  -3 -12  384.76   21.30
   3  -3 -12  367.16   31.80
  -3   3  12  373.86   33.10
   2  -3 -12  156.28   13.00
   2  -3 -12  132.09   21.70
  -2   3  12  160.88   25.40
   1  -3 -12 1191.08   46.70
   1  -3 -12 1276.97   46.70
   1  -3 -12 1232.38   62.09
  -1   3  12 1278.17   64.39
   0  -3 -12  347.57   23.30
   0   3  12  380.66   32.80
  -1  -3 -12   45.50   10.30
   1   3  12   47.20   12.90
  -2  -3 -12  173.48   18.70
   2   3  12  192.28   29.10
  -3  -3 -12 1812.42   77.89
   3   3  12 1973.50   88.89
  -4  -3 -12  201.18   24.40
   4   3  12  219.28   28.00
  -5  -3 -12   27.90   24.30
   5   3  12   49.70   15.50
  -6  -3 -12  160.48   27.20
   6   3  12  101.89   24.30
  13  -4 -12  410.26   48.70
 -13   4  12  482.05   58.39
  12  -4 -12  485.45   48.00
  11  -4 -12  365.16   39.40
 -11   4  12  419.06   48.50
  10  -4 -12  576.84   45.20
 -10   4  12  618.14   47.60
 -10   4  12  619.94   56.39
   9  -4 -12 1913.41   84.79
  -9   4  12 1869.01  102.09
  -9   4  12 1976.40   88.29
   8  -4 -12   23.50    9.80
  -8   4  12    7.70    8.80
   7  -4 -12  234.08   23.00
  -7   4  12  195.88   22.50
  -7   4  12  236.68   36.90
   6  -4 -12  482.65   38.20
   6  -4 -12  437.46   39.50
  -6   4  12  470.65   41.50
  -6   4  12  505.95   35.10
   5  -4 -12   25.70    7.60
   5  -4 -12   13.00    9.60
  -5   4  12   61.69   16.80
   4  -4 -12  766.52   49.00
   4  -4 -12  716.73   35.90
  -4   4  12  740.43   49.30
   3  -4 -12   40.60    8.50
   3  -4 -12   57.69   14.30
  -3   4  12   51.29   14.20
   2  -4 -12   61.99   12.00
   2  -4 -12   49.20   13.80
  -2   4  12   47.50   13.80
   1  -4 -12 3318.27  102.29
   1  -4 -12 3324.87  117.79
  -1   4  12 3321.37  118.99
   0  -4 -12  740.83   39.90
   0   4  12  751.62   48.00
  -1  -4 -12 1885.91   75.49
   1   4  12 2008.20   86.39
  -2  -4 -12 1561.24   70.99
   2   4  12 1679.03   79.09
  -3  -4 -12  573.74   42.30
   3   4  12  590.14   45.20
  -4  -4 -12   -3.70   10.90
   4   4  12   16.80   10.40
  -5  -4 -12  646.44   49.90
   5   4  12  698.63   53.89
   6   4  12  190.48   33.80
  13  -5 -12  772.42   62.39
  12  -5 -12   43.70   16.30
 -12   5  12    8.00   15.60
  11  -5 -12  237.98   35.80
 -11   5  12  178.18   37.50
  10  -5 -12  193.28   29.50
 -10   5  12  150.58   27.50
 -10   5  12  164.98   32.90
   9  -5 -12  555.34   41.60
  -9   5  12  574.94   52.79
   8  -5 -12   56.89   15.20
  -8   5  12   48.90   13.50
  -8   5  12   40.80   17.00
   7  -5 -12  493.35   53.69
   7  -5 -12  644.54   40.00
  -7   5  12  602.04   42.70
  -7   5  12  649.93   50.79
   6  -5 -12 1842.62   86.69
   6  -5 -12 1761.42   70.69
  -6   5  12 1788.22   87.69
   5  -5 -12  169.98   27.00
   5  -5 -12  121.89   22.30
  -5   5  12  156.88   26.80
   4  -5 -12 1913.01   72.59
   4  -5 -12 1946.01   84.59
  -4   5  12 1947.31   87.19
   3  -5 -12  163.28   25.30
   3  -5 -12  177.88   18.60
  -3   5  12  146.49   24.40
   2  -5 -12  259.97   27.00
   2  -5 -12  308.17   25.90
  -2   5  12  291.37   28.30
   1  -5 -12   27.60    7.90
  -1   5  12   38.70   11.90
   0  -5 -12  138.99   17.40
   0   5  12  130.09   23.70
  -1  -5 -12  760.42   45.60
   1   5  12  651.73   46.00
  -2  -5 -12 3459.75  125.79
   2   5  12 3561.54  129.19
   3   5  12  279.47   31.00
  -4  -5 -12 1970.70   93.29
   4   5  12 1888.71   92.19
   5   5  12  214.58   35.30
   6   5  12  -12.90    9.90
   7   5  12  266.17   41.40
   8   5  12   67.49   22.80
  13  -6 -12  170.58   35.80
 -13   6  12  313.47   53.59
  12  -6 -12    1.10   14.50
 -12   6  12   12.70   16.40
  11  -6 -12    4.30   10.30
 -11   6  12   43.90   18.10
  10  -6 -12  187.88   29.20
 -10   6  12  201.98   36.50
 -10   6  12  185.38   31.70
   9  -6 -12  102.79   23.70
  -9   6  12   80.79   21.90
  -9   6  12  132.09   27.60
   8  -6 -12 1361.06   66.89
  -8   6  12 1373.96   85.89
   7  -6 -12  991.40   52.49
   7  -6 -12  853.61   59.09
  -7   6  12 1049.89   65.99
   6  -6 -12  126.19   20.10
   6  -6 -12  132.79   24.40
  -6   6  12  123.99   25.00
   5  -6 -12  713.03   48.60
   5  -6 -12  708.73   42.20
  -5   6  12  729.63   50.49
   4  -6 -12 1530.35   72.49
   4  -6 -12 1510.05   65.89
  -4   6  12 1440.96   73.19
   3  -6 -12 1826.32   79.09
   3  -6 -12 1814.02   75.99
  -3   6  12 1753.22   80.29
   2  -6 -12  455.95   36.10
   2  -6 -12  490.45   37.40
  -2   6  12  462.25   36.90
   1  -6 -12 1731.13   75.79
  -1   6  12 1902.21   81.89
   0  -6 -12  181.18   26.10
   0   6  12  101.39   20.00
  -1  -6 -12   55.69   17.20
   1   6  12   46.20   14.30
  -2  -6 -12  231.28   34.20
   2   6  12  241.48   27.40
  -3  -6 -12   36.20   13.70
   3   6  12   41.30   15.40
   4   6  12  660.33   51.09
   5   6  12  296.17   35.00
   6   6  12   65.69   20.40
   7   6  12 1321.47   85.89
  13  -7 -12 1432.76   84.19
 -13   7  12 1300.87   96.49
  12  -7 -12  295.17   36.30
 -12   7  12  161.08   38.40
  11  -7 -12  476.65   43.20
 -11   7  12  529.65   55.29
  10  -7 -12  631.14   49.40
 -10   7  12  633.94   56.29
   9  -7 -12  327.17   32.60
  -9   7  12  349.37   39.90
   8  -7 -12  -10.90    5.60
   7  -7 -12   20.90   10.30
   7  -7 -12   -7.00    6.20
  -7   7  12   -0.30    6.70
   6  -7 -12   37.90   11.90
   6  -7 -12   59.29   15.10
  -6   7  12   58.09   16.90
   5  -7 -12 3479.55  121.99
   5  -7 -12 3516.45  129.99
  -5   7  12 3470.65  129.39
   4  -7 -12  630.64   42.90
   4  -7 -12  633.84   43.30
  -4   7  12  619.64   44.80
   3  -7 -12  209.48   22.90
   3  -7 -12  177.18   27.40
  -3   7  12  244.68   26.90
  -2   7  12  658.43   44.10
   1  -7 -12 1003.70   56.29
  -1   7  12  865.11   52.29
   0  -7 -12   11.70   16.40
   0   7  12    3.40    5.50
  -1  -7 -12  110.29   22.80
   1   7  12   99.59   19.50
   2   7  12  950.50   57.89
   3   7  12   23.90   13.70
   4   7  12  400.16   42.40
   5   7  12   12.90   16.10
   6   7  12  245.58   39.00
  13  -8 -12   95.79   24.90
 -13   8  12   51.89   20.40
  12  -8 -12   -0.60   13.00
 -12   8  12   50.79   21.30
  11  -8 -12  656.43   51.99
 -11   8  12  583.04   58.79
  10  -8 -12 2577.84  133.59
 -10   8  12 3002.90  134.29
   9  -8 -12  535.85   42.90
  -9   8  12  535.75   50.19
   8  -8 -12 1074.29   62.89
   7  -8 -12   77.99   18.00
   7  -8 -12   86.89   18.70
  -7   8  12   80.59   20.70
   6  -8 -12  220.98   26.70
   6  -8 -12  218.38   31.50
  -6   8  12  252.27   29.70
   5  -8 -12  271.77   34.50
   5  -8 -12  307.37   31.80
  -5   8  12  303.17   31.70
   4  -8 -12   12.80    9.40
   4  -8 -12    4.90    8.90
  -4   8  12   19.80    9.10
   3  -8 -12   44.30   16.10
  -3   8  12   64.69   15.30
  -2   8  12 1333.17   66.19
  -1   8  12    4.80    7.80
   0  -8 -12 1065.99   64.29
   0   8  12 1002.60   57.79
   1   8  12  949.01   56.19
   2   8  12  -13.30    6.60
   3   8  12   70.19   21.40
   4   8  12  732.03   55.49
   5   8  12  829.32   59.29
  13  -9 -12   34.30   20.80
 -13   9  12   26.20   23.90
  12  -9 -12  421.66   44.70
 -12   9  12  348.67   43.90
  11  -9 -12  342.67   37.90
 -11   9  12  346.37   43.90
  10  -9 -12  221.18   34.10
 -10   9  12  175.68   34.20
  -9   9  12    6.00    9.60
   8  -9 -12  901.31   59.09
   7  -9 -12  954.70   58.69
   7  -9 -12 1064.69   63.39
  -7   9  12  901.71   60.69
   6  -9 -12   63.39   16.10
  -6   9  12   69.69   19.30
   5  -9 -12 1945.91   91.89
  -5   9  12 1836.82   86.29
   4  -9 -12  711.53   52.59
   4  -9 -12  585.24   41.50
  -4   9  12  625.84   45.40
   3  -9 -12  138.29   26.80
  -3   9  12  175.28   22.20
  -2   9  12  349.27   31.60
  -1   9  12  460.95   36.70
   0   9  12    5.40    9.00
   1   9  12  160.28   27.50
   2   9  12   30.60   12.40
   4   9  12  477.75   43.70
  12 -10 -12   15.90   17.90
 -12  10  12   -6.30   10.90
  11 -10 -12   55.29   18.40
 -11  10  12   81.09   25.80
  10 -10 -12  149.29   28.40
 -10  10  12  112.29   28.40
   9 -10 -12  122.59   26.00
  -9  10  12  175.68   32.80
   8 -10 -12   -8.90    9.00
  -8  10  12    0.90    8.20
   7 -10 -12   52.39   14.40
   7 -10 -12   12.00   14.20
  -7  10  12   31.50   13.40
   6 -10 -12  603.94   44.30
  -6  10  12  621.34   47.30
  -5  10  12  198.78   30.30
   4 -10 -12  184.38   33.20
  -4  10  12  213.48   25.90
   3 -10 -12  751.42   59.49
  -3  10  12  688.23   45.80
  -2  10  12 2707.53  102.99
  -1  10  12  182.88   23.00
   0  10  12  110.39   21.50
   1  10  12   23.40   13.70
   2  10  12  287.97   32.20
  12 -11 -12  228.68   40.50
 -12  11  12  259.37   45.70
  11 -11 -12  441.96   46.50
 -11  11  12  500.85   52.29
  10 -11 -12   18.20   13.60
 -10  11  12    4.10   15.50
   9 -11 -12   24.60   14.90
  -9  11  12   27.20   15.60
   8 -11 -12  120.89   26.90
  -8  11  12  110.09   25.30
   7 -11 -12  379.56   42.10
   7 -11 -12  431.86   37.30
  -7  11  12  419.06   41.10
   6 -11 -12  240.28   26.60
   6 -11 -12  309.67   36.60
  -6  11  12  284.57   31.40
   5 -11 -12  -12.90   10.50
  -5  11  12   11.30    9.60
   4 -11 -12  395.96   46.50
  -4  11  12  444.66   36.50
   3 -11 -12  657.73   59.19
  -3  11  12  638.74   43.50
  -2  11  12  317.17   29.20
  -1  11  12   19.10   12.70
  11 -12 -12  809.12   65.49
 -11  12  12  854.91   69.79
  10 -12 -12  271.37   41.80
 -10  12  12  328.57   39.30
   9 -12 -12 2018.60  106.29
  -9  12  12 1880.21   99.29
   8 -12 -12  799.52   62.49
  -8  12  12  652.43   50.79
   7 -12 -12   10.90   12.60
   7 -12 -12    8.50   16.10
  -7  12  12   32.30   16.60
   6 -12 -12   31.50   17.70
  -6  12  12   33.10   15.50
   5 -12 -12  248.38   39.40
  -5  12  12  242.78   28.00
   4 -12 -12  -13.30   11.10
  -4  12  12   12.40   11.00
   3 -12 -12  408.66   47.70
  -3  12  12  412.86   32.70
  -2  12  12   10.20   11.30
  -1  12  12   18.30   11.90
   9 -13 -12  498.95   51.19
  -9  13  12  430.36   45.10
   8 -13 -12  822.62   67.19
  -8  13  12  758.32   56.69
   7 -13 -12  283.67   45.10
  -7  13  12  263.57   32.40
   6 -13 -12 1392.76   91.69
   5 -13 -12   53.99   23.30
  -5  13  12   68.99   17.00
   4 -13 -12   22.90   24.70
  -4  13  12   19.90   13.00
   5 -13  13  117.59   27.10
   5 -13  13  150.68   18.80
   6 -13  13   28.60   18.30
   6 -13  13   33.20   12.90
   7 -13  13   -8.10   14.00
   7 -13  13   -4.40   12.30
   8 -13  13    6.60   17.20
   8 -13  13   26.90   13.00
   2 -12  13   37.70   14.50
   2 -12  13   75.19   24.10
   3 -12  13   35.80   17.10
   4 -12  13  152.68   29.90
   4 -12  13  119.19   18.60
   5 -12  13   19.20    9.80
   5 -12  13    9.40   14.30
   6 -12  13   58.09   16.40
   6 -12  13   69.49   23.80
   7 -12  13   84.49   20.80
   7 -12  13   85.99   19.60
   8 -12  13  622.34   53.09
   8 -12  13  615.84   48.80
   9 -12  13   12.40   13.50
   9 -12  13    2.10   11.90
  10 -12  13   -1.90   11.90
  10 -12  13   19.70   15.10
   0 -11  13   88.69   18.70
   1 -11  13   72.29   20.80
   1 -11  13   65.09   17.20
   2 -11  13  413.36   44.00
   2 -11  13  509.85   35.90
   3 -11  13  782.92   61.19
   3 -11  13  755.62   45.60
   4 -11  13    0.90   11.80
   4 -11  13   17.20    9.10
   5 -11  13    1.90   13.00
   5 -11  13    3.50    9.10
   6 -11  13  148.29   24.50
   7 -11  13  142.99   27.20
   8 -11  13  300.27   37.30
   8 -11  13  304.37   46.70
   9 -11  13  125.99   27.60
   9 -11  13   75.49   20.20
  10 -11  13  101.49   24.00
  10 -11  13  101.49   25.20
  11 -11  13  106.09   26.40
  11 -11  13  112.89   27.00
  -2 -10  13   36.20   16.30
  -1 -10  13   83.99   18.50
   0 -10  13   46.20   15.80
   1 -10  13  243.38   30.70
   1 -10  13  155.98   24.20
   2 -10  13   -5.20    8.30
   2 -10  13    5.30    9.30
   2 -10  13   -5.00   12.20
   3 -10  13  556.44   45.30
   3 -10  13  502.05   37.10
   4 -10  13  162.48   25.60
   4 -10  13  127.59   25.20
   5 -10  13  178.78   29.10
   5 -10  13  278.77   29.30
   6 -10  13  119.29   21.80
   6 -10  13   74.89   18.30
   7 -10  13   31.10   13.30
   7 -10  13   53.39   15.30
   8 -10  13  236.18   28.70
   8 -10  13  261.37   31.90
   9 -10  13   68.89   21.00
   9 -10  13   32.00   12.50
  10 -10  13   85.79   23.10
  10 -10  13   62.29   18.00
  11 -10  13   96.49   23.30
  11 -10  13   40.90   18.70
  12 -10  13   71.29   23.10
  -3  -9  13   12.20   11.70
   2   9 -13   71.99   20.40
  -2  -9  13  158.38   27.20
   1   9 -13   55.59   16.60
  -1  -9  13   52.59   15.60
   0  -9  13   94.99   18.90
   0  -9  13  134.69   23.60
   1  -9  13   44.60   14.40
   1  -9  13   67.99   15.90
   1  -9  13   62.99   18.50
   2  -9  13  204.98   24.10
   2  -9  13  233.38   28.40
   3  -9  13    9.50    7.50
   3  -9  13    4.80    8.40
   4  -9  13   46.50   12.70
   4  -9  13   14.20    9.10
   5  -9  13   74.49   18.20
   5  -9  13   50.19   15.10
   6  -9  13   43.00   12.80
   6  -9  13   29.00   11.70
   7  -9  13   72.69   17.70
   7  -9  13   23.70   13.60
   8  -9  13  180.78   30.10
   8  -9  13  217.28   26.90
   9  -9  13   83.59   22.80
   9  -9  13  177.28   28.60
  10  -9  13  148.39   29.70
  10  -9  13  201.08   32.50
  11  -9  13  544.45   50.09
  12  -9  13    4.00    9.60
  -5  -8  13    0.70   15.30
  -4  -8  13  474.85   45.10
  -3  -8  13  323.47   33.90
   2   8 -13  254.37   28.90
  -2  -8  13  243.68   27.70
  -2  -8  13  229.68   32.10
   1   8 -13  229.38   26.30
  -1  -8  13  178.18   28.20
  -1  -8  13  266.77   42.10
   0  -8  13   43.90   12.50
   0  -8  13   23.00   13.60
   1  -8  13   19.30   11.50
   1  -8  13   37.00   11.50
   1  -8  13   30.60   12.70
   2  -8  13  126.89   22.30
   2  -8  13  124.79   21.80
   3  -8  13    5.10    6.60
   4  -8  13  136.29   23.30
   4  -8  13   98.79   18.80
   5  -8  13   17.00    9.50
   5  -8  13   28.50    8.70
   6  -8  13   13.30   10.00
   6  -8  13    9.40    8.40
   7  -8  13  214.98   25.40
   7  -8  13  234.28   30.10
   8  -8  13   32.00   12.10
   8  -8  13   26.90   12.10
  -9   8 -13   52.49   19.70
   9  -8  13   44.20   16.80
   9  -8  13   50.29   15.50
  10  -8  13   -8.90    8.80
  11  -8  13  742.73   57.39
  12  -8  13  154.48   31.50
  13  -8  13  101.79   27.60
  -6  -7  13    6.40   17.30
  -5  -7  13   47.40   17.80
  -4  -7  13  113.89   24.80
   3   7 -13   14.30   19.10
  -3  -7  13   12.80   12.10
  -3  -7  13   52.09   17.30
   2   7 -13   62.29   16.60
  -2  -7  13   46.00   16.30
  -2  -7  13   36.50   13.00
   1   7 -13  287.77   29.10
  -1  -7  13  234.08   25.10
  -1  -7  13  232.48   28.40
   0  -7  13   39.20   11.80
   0  -7  13   20.10   10.10
   1  -7  13  167.78   19.20
   1  -7  13  168.48   20.40
   1  -7  13  174.48   22.10
   2  -7  13  650.63   45.10
   2  -7  13  772.82   43.90
   3  -7  13  231.38   25.80
   3  -7  13  205.68   21.50
   4  -7  13  595.34   38.30
   4  -7  13  681.83   46.40
   5  -7  13    8.60    6.70
   5  -7  13    4.60    8.20
   6  -7  13  484.65   40.70
   6  -7  13  534.65   36.60
   7  -7  13   37.70   14.10
   7  -7  13   65.89   15.70
  -8   7 -13   12.40   13.40
   8  -7  13   46.80   15.40
   8  -7  13   27.80   12.50
  -9   7 -13  303.67   34.80
   9  -7  13  264.87   29.10
  10  -7  13  499.35   54.19
  11  -7  13  -19.50   10.40
  12  -7  13   35.10   15.40
  13  -7  13   55.49   22.10
  -7  -6  13   23.20   18.40
  -6  -6  13   64.09   20.70
  -5  -6  13   68.49   21.20
  -4  -6  13   28.40   18.10
  -4  -6  13   69.89   19.30
   3   6 -13   47.20   14.40
  -3  -6  13   26.30   12.60
  -3  -6  13   62.39   15.30
   2   6 -13    9.70   10.60
  -2  -6  13   -8.00    5.80
  -2  -6  13   -5.00    9.00
   1   6 -13  492.95   39.50
  -1  -6  13  504.35   40.20
  -1  -6  13  555.74   36.80
   0   6 -13   33.70   12.90
   0  -6  13   52.09   12.30
   0  -6  13   66.69   16.60
   0  -6  13   57.49   12.60
   1  -6  13   40.10   10.80
   1  -6  13   45.80   11.10
   1  -6  13   36.00   11.90
   2  -6  13   -9.50    3.80
   2  -6  13   -9.00    5.20
   3  -6  13    4.00    3.70
   3  -6  13    3.80    7.30
   4  -6  13 1285.67   66.99
   4  -6  13 1219.08   52.99
   5  -6  13 1170.38   53.69
   5  -6  13 1097.39   63.39
   6  -6  13   46.60   12.50
   6  -6  13   19.30   11.80
  -7   6 -13  123.59   22.10
   7  -6  13  160.98   24.40
   7  -6  13  194.08   32.00
  -8   6 -13  125.79   23.60
   8  -6  13  119.79   22.00
   8  -6  13  114.89   25.60
  -9   6 -13  -15.10    9.30
   9  -6  13  -12.90    6.60
  10  -6  13  202.68   31.90
  11  -6  13   -9.40    8.60
  12  -6  13   41.80   17.10
  13  -6  13  -16.90   10.40
  -8  -5  13   88.99   28.90
  -7  -5  13   33.00   17.50
  -6  -5  13   17.20   13.30
  -5  -5  13  265.47   28.60
  -5  -5  13  232.08   36.20
  -4  -5  13   42.10   12.80
  -4  -5  13   28.30   16.10
   3   5 -13   -5.00    9.60
  -3  -5  13   -0.90    8.50
  -3  -5  13   -2.90    8.30
   2   5 -13   -1.40    6.40
  -2  -5  13    9.70    6.80
  -2  -5  13  -15.10    5.20
  -1  -5  13 1104.69   61.79
   0   5 -13  120.09   22.00
   0  -5  13  129.89   14.30
   0  -5  13  121.49   22.70
   0  -5  13  111.59   14.00
   1  -5  13    8.00    7.50
   1  -5  13    3.70    4.40
   1  -5  13    1.00    4.40
   2  -5  13   49.80    9.60
   2  -5  13   56.89   15.20
   3  -5  13  526.15   40.30
   3  -5  13  563.34   29.10
   4  -5  13   25.20    8.60
   4  -5  13   27.60   11.50
   5  -5  13  127.19   18.20
   5  -5  13  135.49   25.20
  -6   5 -13   32.80   10.60
   6  -5  13   22.90   11.10
   6  -5  13   39.40   12.10
  -7   5 -13  658.33   44.20
   7  -5  13  736.33   44.60
  -8   5 -13    7.60    8.80
   8  -5  13   17.80    7.20
  -9   5 -13   26.30   13.90
   9  -5  13   -0.10    7.30
  10  -5  13  228.58   36.30
  11  -5  13   88.99   22.10
  12  -5  13   72.39   22.50
  13  -5  13   20.50   20.70
  -8  -4  13  111.69   28.30
  -7  -4  13   -1.90   10.80
  -6  -4  13  213.18   31.20
  -6  -4  13  123.99   31.20
  -5  -4  13   -2.70    9.30
  -5  -4  13    8.40   10.30
   4   4 -13   72.69   20.90
  -4  -4  13   89.69   17.70
  -4  -4  13  104.59   22.30
   3   4 -13  627.54   47.20
  -3  -4  13  678.33   38.70
  -3  -4  13  586.24   46.30
   2   4 -13 1322.17   69.29
  -2  -4  13 1291.07   68.39
  -2  -4  13 1276.47   52.69
   1   4 -13    7.20    8.20
  -1  -4  13   38.30   13.20
  -1  -4  13   33.30    7.80
   0   4 -13    0.00    5.80
   0  -4  13    7.60    4.00
   0  -4  13    2.40    7.10
   0  -4  13    9.40    4.20
   1  -4  13   54.29    6.90
   1  -4  13   78.39    8.40
   1  -4  13   60.79   16.60
   2  -4  13  422.26   35.50
   2  -4  13  360.46   19.00
   3  -4  13  241.18   28.10
   3  -4  13  271.77   18.00
   4  -4  13   -1.30    4.20
   4  -4  13    3.50    8.70
   5  -4  13    6.40    7.40
  -6   4 -13   -2.50    5.30
   6  -4  13    0.80    4.60
   6  -4  13   -5.50    5.80
  -7   4 -13  253.17   26.50
   7  -4  13  250.37   45.30
   7  -4  13  222.38   23.80
  -8   4 -13   83.49   18.20
   8  -4  13   79.59   18.50
  -9   4 -13   54.29   17.40
   9  -4  13   29.80   13.40
  11  -4  13  102.09   23.80
  12  -4  13  485.25   50.69
  -9  -3  13  -21.80   12.00
  -8  -3  13  686.73   59.29
  -7  -3  13  536.85   51.89
  -7  -3  13  520.85   42.60
  -6  -3  13   -3.10    8.70
  -6  -3  13    6.10    9.50
  -5  -3  13    1.80   12.00
  -5  -3  13    7.60    8.50
   4   3 -13  256.27   29.70
  -4  -3  13  220.28   27.90
  -4  -3  13  234.18   22.20
   3   3 -13   -0.50    7.50
  -3  -3  13   -2.70    4.00
  -3  -3  13    4.40    5.00
   2   3 -13  552.34   42.10
  -2  -3  13  584.94   27.30
  -2  -3  13  486.95   40.50
   1   3 -13  306.37   31.00
  -1  -3  13  309.87   15.10
  -1  -3  13  311.87   30.20
  -1  -3  13  310.17   15.40
   0   3 -13  523.75   40.50
   0  -3  13  526.35   40.30
   1  -3  13  437.16   36.20
   2  -3  13  164.58    9.40
   2  -3  13  164.18   26.70
   3  -3  13  574.04   42.80
   3  -3  13  578.24   26.20
  -4   3 -13   60.49   10.80
   4  -3  13   72.09   17.60
   4  -3  13   70.79   11.80
   5  -3  13   34.40   12.60
   5  -3  13   44.90   10.80
  -6   3 -13   11.10    7.20
   6  -3  13   -0.70    7.00
   6  -3  13    2.60    5.50
  -7   3 -13  649.93   42.50
   7  -3  13  612.44   42.80
  -8   3 -13   -8.90    8.40
   8  -3  13    8.90    9.90
  -9   3 -13   26.40   13.30
   9  -3  13   18.90   10.30
  10  -3  13   26.00   17.00
  11  -3  13  378.36   40.20
  12  -3  13  -11.10   11.40
 -10  -2  13   40.70   23.80
  -9  -2  13  423.06   48.80
  -8  -2  13   -8.70   12.40
  -8  -2  13  -20.70   11.20
  -7  -2  13  279.97   29.30
  -7  -2  13  262.47   40.50
  -6  -2  13  126.59   21.00
  -6  -2  13  100.29   23.20
  -5  -2  13  693.43   52.19
  -5  -2  13  673.63   39.50
  -4  -2  13    3.20    4.50
  -4  -2  13    5.40    7.90
   3   2 -13   53.99   15.80
  -3  -2  13   65.59   16.80
  -3  -2  13   55.59    9.40
  -2  -2  13  310.77   31.00
  -2  -2  13  364.96   15.30
   1   2 -13  145.29   24.50
  -1  -2  13  161.58   25.80
   0   2 -13  219.18   24.70
   0  -2  13  204.58   24.40
   1  -2  13  201.78   23.90
   2  -2  13  175.58   27.60
  -3   2 -13  465.95   22.70
   3  -2  13  491.75   23.20
   3  -2  13  384.16   35.10
  -4   2 -13  358.96   23.10
   4  -2  13  330.87   22.90
   4  -2  13  356.26   34.20
  -5   2 -13  530.15   32.80
   5  -2  13  562.34   45.40
   5  -2  13  575.34   35.30
  -6   2 -13 1155.08   57.69
   6  -2  13 1322.87   75.79
   6  -2  13 1373.06   63.19
  -7   2 -13   20.60    8.50
   7  -2  13    4.00    7.50
  -8   2 -13   -1.40   12.90
   8  -2  13    2.60    9.90
  -9   2 -13   31.40   16.40
   9  -2  13   32.80   12.50
  10  -2  13  213.28   35.10
  11  -2  13   80.79   22.90
  12  -2  13   25.20   17.50
  10   1 -13   70.59   22.20
 -10  -1  13   67.49   25.70
   9   1 -13  152.78   30.80
  -9  -1  13  139.99   30.80
   8   1 -13   48.00   14.90
  -8  -1  13   52.39   18.90
  -8  -1  13   42.90   17.60
   7   1 -13   19.80    9.90
  -7  -1  13   18.80   14.80
  -7  -1  13   32.10   11.80
   6   1 -13  173.78   21.10
  -6  -1  13  171.08   20.20
  -6  -1  13  154.58   29.30
  -5  -1  13   25.70   11.60
  -5  -1  13   50.29   11.10
   4   1 -13  -13.50    7.50
  -4  -1  13   -1.00    4.00
  -4  -1  13    9.80    4.90
   3   1 -13   59.39   16.40
  -3  -1  13   67.49    7.10
  -3  -1  13   50.59   15.00
   2   1 -13  483.15   47.90
  -2  -1  13  510.35   39.80
   1   1 -13  188.28   23.10
  -1  -1  13  176.68   22.70
   0   1 -13  940.11   55.19
   0  -1  13  954.40   55.69
   1  -1  13  908.91   54.49
   2  -1  13  196.48   24.00
  -3   1 -13  159.48   13.40
   3  -1  13  150.88   26.00
   3  -1  13  141.99   12.90
  -4   1 -13  270.57   20.50
   4  -1  13  264.67   30.60
   4  -1  13  284.37   22.00
  -5   1 -13   29.60    9.60
   5  -1  13   30.90   16.60
   5  -1  13   21.00   10.00
  -6   1 -13 1144.19   57.89
   6  -1  13 1180.88   73.09
   6  -1  13 1225.38   61.29
  -7   1 -13  538.65   41.30
   7  -1  13  516.25   41.10
  -8   1 -13  205.28   31.50
   8  -1  13  218.28   27.60
  10  -1  13   43.30   18.90
  11  -1  13  134.19   29.40
  11   0 -13   87.79   28.40
 -11   0  13   94.59   25.00
  10   0 -13   72.49   21.90
 -10   0  13   82.49   25.80
   9   0 -13   53.19   17.40
  -9   0  13  132.39   23.70
  -9   0  13  107.99   27.80
   8   0 -13   17.50   12.60
  -8   0  13   16.10   13.80
  -8   0  13   39.60   12.20
   7   0 -13   45.10   13.60
  -7   0  13   43.30   15.80
  -7   0  13   10.80    9.70
   6   0 -13   49.99   13.00
  -6   0  13   51.69   12.50
   5   0 -13  140.69   26.70
   5   0 -13  121.49   14.50
  -5   0  13  108.39   15.60
  -5   0  13  140.29   26.40
   4   0 -13   16.60    7.90
   4   0 -13    8.60    3.60
  -4   0  13    1.40    3.30
  -4   0  13   -3.10    6.40
   3   0 -13  533.55   41.60
  -3   0  13  535.95   42.20
   2   0 -13  166.98   26.80
  -2   0  13  181.98   23.10
   1   0 -13  958.50   55.19
  -1   0  13  913.41   55.19
   0   0 -13    5.10    4.40
   0   0  13    2.40    5.80
   1   0  13  892.91   54.19
  -2   0 -13  170.98   11.90
   2   0  13  139.19   23.60
  -3   0 -13  603.54   30.20
   3   0  13  548.45   43.00
   4   0  13   13.10    5.70
   4   0  13    1.90    4.70
  -5   0 -13  122.49   20.10
   5   0  13   95.09   23.20
   5   0  13  126.89   20.50
  -6   0 -13   62.99   16.40
   6   0  13   75.59   17.10
   6   0  13   43.90   19.20
  -7   0 -13   73.39   20.30
   7   0  13   41.30   14.10
  -8   0 -13   28.80   13.40
   8   0  13   19.50   13.10
   9   0  13  142.99   28.60
  10   0  13   81.99   24.00
  11   0  13  118.09   30.50
  11  -1 -13   95.99   26.40
 -11   1  13   60.29   18.30
  10  -1 -13   38.00   14.90
 -10   1  13   39.20   20.00
   9  -1 -13  162.88   29.30
  -9   1  13  147.99   26.50
  -9   1  13  198.18   38.50
   8  -1 -13  230.28   26.20
  -8   1  13  244.68   39.70
  -8   1  13  272.37   28.30
   7  -1 -13  525.55   36.60
  -7   1  13  497.15   47.20
  -7   1  13  452.75   34.70
   6  -1 -13 1182.78   53.19
  -6   1  13 1156.28   70.99
  -6   1  13 1139.39   51.69
   5  -1 -13   37.20   11.10
   5  -1 -13   47.30   10.60
  -5   1  13   42.50   14.60
  -5   1  13   25.70    7.90
   4  -1 -13  303.37   31.20
   4  -1 -13  338.47   19.10
  -4   1  13  273.57   31.20
  -4   1  13  298.57   18.70
   3  -1 -13  164.58    8.30
   3  -1 -13  153.48   26.60
  -3   1  13  167.68   27.60
   2  -1 -13  167.88   26.10
  -2   1  13  207.48   24.20
   1  -1 -13  913.41   53.89
  -1   1  13  912.41   54.79
   0  -1 -13 1017.30   57.49
   0   1  13  948.61   56.49
  -1  -1 -13  198.28   12.30
   1   1  13  231.18   26.60
  -2  -1 -13  459.45   25.40
   2   1  13  474.35   39.20
  -3  -1 -13   52.39   11.30
   3   1  13   54.59   15.40
   4   1  13    6.90    8.40
  -5  -1 -13   28.40   11.10
   5   1  13   44.40   15.10
  -6  -1 -13  155.68   26.00
   6   1  13  153.18   26.90
   6   1  13  172.68   32.50
  -7  -1 -13   -2.20   10.90
   7   1  13   60.09   17.20
   8   1  13   77.69   25.00
   9   1  13  184.28   33.80
  10   1  13  111.19   25.10
  12  -2 -13   53.79   21.80
 -12   2  13   26.60   21.30
  11  -2 -13   88.49   25.10
 -11   2  13   38.10   27.00
  10  -2 -13  217.68   35.10
 -10   2  13  166.18   36.10
 -10   2  13  174.28   35.00
   9  -2 -13   17.90   12.40
  -9   2  13   77.49   28.80
  -9   2  13   20.70   10.10
   8  -2 -13   30.30   10.90
  -8   2  13   18.10    9.40
   7  -2 -13   11.80    6.90
  -7   2  13   17.80    7.60
  -7   2  13   -0.50   10.20
   6  -2 -13 1279.87   54.69
  -6   2  13 1248.78   54.69
  -6   2  13 1228.78   72.99
   5  -2 -13  484.35   28.10
   5  -2 -13  589.34   46.00
  -5   2  13  577.54   31.90
  -5   2  13  556.44   45.90
   4  -2 -13  319.57   31.20
   4  -2 -13  350.96   19.70
  -4   2  13  348.77   34.10
   3  -2 -13  399.66   43.30
   3  -2 -13  449.26   18.90
  -3   2  13  477.85   39.40
   2  -2 -13  188.28    9.50
   2  -2 -13  170.48   26.80
   2  -2 -13  165.78    8.40
  -2   2  13  169.38   27.40
   1  -2 -13  227.68   24.80
   1  -2 -13  207.08   10.90
   1  -2 -13  207.38   11.70
  -1   2  13  198.28   24.00
   0  -2 -13  197.18   13.70
   0  -2 -13  176.08   13.10
   0   2  13  205.18   24.10
  -1  -2 -13  164.88   14.70
   1   2  13  139.39   24.80
  -2  -2 -13  377.16   25.60
   2   2  13  350.26   34.10
  -3  -2 -13   58.19   12.00
   3   2  13   45.10   14.10
  -4  -2 -13    0.30    5.90
   4   2  13    7.20    9.60
  -5  -2 -13  667.03   46.70
   5   2  13  691.93   53.79
  -6  -2 -13  138.79   24.40
   6   2  13   98.99   25.30
  12  -3 -13   31.70   17.60
 -12   3  13   -9.90   12.70
  11  -3 -13  362.46   38.60
 -11   3  13  414.16   48.40
  10  -3 -13   56.09   16.40
 -10   3  13   25.40   18.80
 -10   3  13   64.09   19.70
   9  -3 -13   57.99   15.90
  -9   3  13   17.90   15.90
  -9   3  13   14.80   10.90
   8  -3 -13   -3.60    8.70
  -8   3  13   14.00   11.30
  -8   3  13  -15.40    8.60
   7  -3 -13  577.24   37.50
  -7   3  13  660.63   40.80
  -7   3  13  626.34   51.89
   6  -3 -13    5.40    5.20
  -6   3  13   11.00    7.20
  -6   3  13    3.00    8.00
   5  -3 -13   68.29   11.70
   5  -3 -13   63.69   17.20
  -5   3  13   32.50   13.70
   4  -3 -13   51.39    8.90
   4  -3 -13   71.09   16.30
  -4   3  13   41.20   14.40
   3  -3 -13  478.25   48.30
   3  -3 -13  518.05   24.20
  -3   3  13  525.25   41.80
   2  -3 -13  169.68   13.40
   2  -3 -13  135.49   22.50
  -2   3  13  163.78   26.20
   1  -3 -13  479.65   25.20
   1  -3 -13  475.05   37.90
   1  -3 -13  470.45   25.30
  -1   3  13  502.65   40.00
   0  -3 -13  523.25   29.00
   0   3  13  509.75   40.40
  -1  -3 -13  306.97   24.30
   1   3  13  352.86   34.10
  -2  -3 -13  583.74   36.60
   2   3  13  536.95   43.10
  -3  -3 -13   -1.30    7.10
   3   3  13   -2.40    6.00
  -4  -3 -13  229.68   26.40
   4   3  13  238.28   35.60
  -5  -3 -13    3.40   13.10
   5   3  13   -1.70    9.40
   6   3  13   -4.50    5.70
   7   3  13  479.25   48.70
  12  -4 -13  602.64   53.39
 -12   4  13  666.03   63.79
  11  -4 -13  120.19   25.10
 -11   4  13  110.69   27.80
  10  -4 -13   83.39   20.10
 -10   4  13   41.10   18.10
 -10   4  13  107.19   24.10
   9  -4 -13   52.69   14.70
  -9   4  13   24.90   16.00
  -9   4  13   34.00   14.10
   8  -4 -13  116.69   20.70
  -8   4  13   75.29   18.00
  -8   4  13   61.09   19.40
   7  -4 -13  183.68   21.30
  -7   4  13  223.48   37.70
  -7   4  13  236.88   25.50
   6  -4 -13   13.40   11.90
  -6   4  13  -12.40    7.30
   5  -4 -13    0.40    8.60
   5  -4 -13    6.10    4.30
  -5   4  13    2.20    6.30
   4  -4 -13   10.70    4.50
   4  -4 -13   -7.50    4.30
  -4   4  13  -13.20    4.90
   3  -4 -13  307.77   21.80
   3  -4 -13  314.37   37.30
  -3   4  13  292.77   30.70
   2  -4 -13  351.86   24.10
   2  -4 -13  401.76   34.10
  -2   4  13  381.26   34.20
   1  -4 -13   64.39   15.70
   1  -4 -13   57.59   10.80
   1  -4 -13   74.79   12.40
  -1   4  13   52.19   15.60
   0  -4 -13   17.20    6.00
   0   4  13    4.50    5.80
  -1  -4 -13   33.90   11.70
   1   4  13   43.60   14.40
  -2  -4 -13 1404.36   66.49
   2   4  13 1384.46   73.09
  -3  -4 -13  576.34   42.20
   3   4  13  659.13   49.20
   4   4  13   67.19   19.00
  -5  -4 -13    7.50   11.60
   5   4  13   12.30   10.10
   6   4  13  147.09   30.30
   7   4  13   23.40   13.80
   8   4  13  120.09   28.60
  13  -5 -13   25.90   19.80
 -13   5  13   -4.80   15.80
  12  -5 -13  111.39   28.00
 -12   5  13   66.19   28.80
  11  -5 -13  126.09   25.20
 -11   5  13   69.49   24.20
  10  -5 -13  254.37   29.80
 -10   5  13  212.78   31.20
 -10   5  13  180.38   36.30
   9  -5 -13   38.60   12.40
  -9   5  13    3.60    9.40
   8  -5 -13    4.80    7.40
  -8   5  13    1.40    9.20
  -8   5  13   -8.80    6.60
   7  -5 -13  680.53   41.80
   6  -5 -13   24.10    8.60
   6  -5 -13   57.29   14.50
  -6   5  13   18.30   14.70
   5  -5 -13  116.19   23.10
  -5   5  13  138.99   26.60
   4  -5 -13   52.69   11.30
   4  -5 -13   36.80   12.30
  -4   5  13   52.49   16.00
   3  -5 -13  484.65   31.70
   3  -5 -13  550.54   49.99
  -3   5  13  540.65   42.00
   2  -5 -13   46.90   13.60
   2  -5 -13   65.19   13.40
  -2   5  13   71.39   17.00
   1  -5 -13   -2.60    5.50
  -1   5  13   14.50    8.10
   0  -5 -13  136.99   20.70
   0   5  13  130.89   23.10
  -1  -5 -13 1170.28   60.09
   1   5  13 1157.28   65.49
  -2  -5 -13   13.20   11.20
   2   5  13   -1.90    7.30
  -3  -5 -13   14.50   14.00
   3   5  13   17.90   10.10
  -4  -5 -13   37.80   18.10
   4   5  13   48.10   20.00
   5   5  13  244.48   37.60
   6   5  13   24.70   13.10
   7   5  13   67.39   22.80
   8   5  13  129.69   30.20
  13  -6 -13   -7.30   16.70
 -13   6  13   35.10   22.60
  12  -6 -13   56.89   19.80
 -12   6  13   62.39   23.40
  11  -6 -13    6.20   13.70
 -11   6  13   28.40   16.30
  10  -6 -13  159.38   27.00
 -10   6  13  169.68   35.20
 -10   6  13  130.89   25.30
   9  -6 -13    7.20    9.40
  -9   6  13   -1.50    4.30
  -9   6  13   -1.20   12.20
   8  -6 -13   88.89   19.70
  -8   6  13  160.78   31.70
   7  -6 -13  160.78   20.20
   6  -6 -13   68.79   14.30
   6  -6 -13   50.49   14.50
  -6   6  13   42.80   16.10
   5  -6 -13 1236.18   66.89
   5  -6 -13 1139.69   56.09
  -5   6  13 1121.39   66.69
   4  -6 -13 1294.67   67.59
   4  -6 -13 1330.57   60.79
  -4   6  13 1237.28   68.99
   3  -6 -13    4.40    7.70
   3  -6 -13    2.70    4.40
  -3   6  13    7.60    7.30
   2  -6 -13    4.40   10.30
   2  -6 -13    3.00    5.30
  -2   6  13   13.60    6.90
   1  -6 -13   38.00   12.00
  -1   6  13   16.00   11.00
   0  -6 -13   63.49   15.70
   0   6  13   26.50   13.20
  -1  -6 -13  465.75   38.80
   1   6  13  503.85   40.70
  -2  -6 -13   -6.70   12.10
   2   6  13    7.60    9.80
  -3  -6 -13   25.50   16.90
   3   6  13   33.30   11.30
   4   6  13   62.99   21.30
   5   6  13   65.99   24.80
   6   6  13   29.70   19.90
   7   6  13   43.10   22.20
  13  -7 -13   64.49   21.20
 -13   7  13   64.49   30.70
  12  -7 -13   47.00   18.00
 -12   7  13   43.90   41.30
  11  -7 -13   23.80   14.20
 -11   7  13  -16.20   12.00
  10  -7 -13  544.95   45.00
 -10   7  13  572.24   55.29
   9  -7 -13  316.67   32.10
  -9   7  13  231.48   38.70
   8  -7 -13   52.09   14.80
  -8   7  13   14.30   11.50
   7  -7 -13   56.89   14.10
   6  -7 -13  464.95   40.80
   6  -7 -13  510.95   38.10
  -6   7  13  503.35   43.70
   5  -7 -13    0.90    9.40
  -5   7  13    0.00    6.40
   4  -7 -13  542.45   40.90
   4  -7 -13  713.63   47.10
  -4   7  13  711.13   49.00
   3  -7 -13  218.18   25.30
   3  -7 -13  187.98   29.30
  -3   7  13  194.18   29.60
   2  -7 -13  725.63   49.80
  -2   7  13  717.43   48.10
   1  -7 -13  221.18   26.30
  -1   7  13  201.48   24.50
   0  -7 -13   47.30   14.90
   0   7  13   42.10   13.00
  -1  -7 -13  278.17   30.80
   1   7  13  248.18   28.20
   2   7  13   94.49   22.00
   3   7  13   24.60   14.40
   4   7  13   94.79   23.20
   5   7  13   88.89   25.50
   6   7  13    0.40   17.00
  13  -8 -13   78.39   24.20
 -13   8  13  153.78   36.70
  12  -8 -13  151.88   31.60
 -12   8  13   92.39   29.20
  11  -8 -13  638.64   52.69
 -11   8  13  796.62   66.59
  10  -8 -13   -4.00    9.70
 -10   8  13   11.10   10.50
   9  -8 -13   40.50   15.10
  -9   8  13   63.59   22.90
   8  -8 -13   33.60   12.00
  -8   8  13   28.30   16.30
   7  -8 -13  288.67   29.70
  -7   8  13  249.97   46.30
   6  -8 -13   14.00   11.60
   6  -8 -13   19.80   11.60
  -6   8  13    5.40    9.70
   5  -8 -13   33.40   11.30
   5  -8 -13   17.00    9.80
  -5   8  13   -1.10    8.90
   4  -8 -13   58.89   16.90
   4  -8 -13   83.19   19.70
  -4   8  13  122.99   22.90
   3  -8 -13  -11.90    9.20
  -3   8  13   18.20    7.80
  -2   8  13  126.79   23.20
   1  -8 -13   24.50   14.40
  -1   8  13   50.19   14.70
   0  -8 -13   51.29   19.00
   0   8  13   40.80   15.10
   1   8  13  181.48   30.30
   2   8  13  233.78   29.10
   3   8  13  307.47   66.89
   4   8  13  629.14   50.69
   5   8  13    7.70   16.90
  12  -9 -13   24.10   14.00
 -12   9  13  -10.60   14.10
  11  -9 -13  583.54   49.10
 -11   9  13  454.35   52.59
  10  -9 -13  189.18   32.40
 -10   9  13  168.78   35.40
   9  -9 -13  120.99   25.70
  -9   9  13  179.08   32.30
   8  -9 -13  154.58   27.20
  -8   9  13  163.88   32.20
   7  -9 -13   47.80   14.80
  -7   9  13   35.60   20.40
   6  -9 -13    5.80    9.60
   6  -9 -13   41.30   16.10
  -6   9  13   19.80   11.60
   5  -9 -13   40.50   14.40
   5  -9 -13   30.00   11.90
  -5   9  13   51.49   16.00
   4  -9 -13   18.00    9.40
   4  -9 -13   36.30   14.20
  -4   9  13   17.70   10.60
   3  -9 -13    8.10    8.20
  -3   9  13   -4.00    7.50
  -2   9  13  270.37   28.80
  -1   9  13   69.49   15.50
   0   9  13  113.89   23.20
   1   9  13   35.40   14.20
   2   9  13   77.19   20.50
   3   9  13    3.60   12.90
  12 -10 -13  100.49   25.00
 -12  10  13   72.29   22.50
  11 -10 -13   60.19   20.30
 -11  10  13   34.70   21.90
  10 -10 -13   52.69   17.60
 -10  10  13   98.09   25.30
   9 -10 -13   42.10   17.40
  -9  10  13   54.99   19.20
   8 -10 -13  229.78   35.00
  -8  10  13  182.28   32.20
   7 -10 -13   13.00   13.10
  -7  10  13   25.90   15.70
   6 -10 -13   67.89   20.10
   6 -10 -13   54.49   14.20
  -6  10  13   96.89   22.60
   5 -10 -13  302.47   36.60
   5 -10 -13  239.18   27.30
  -5  10  13  236.08   29.50
   4 -10 -13  195.68   33.40
  -4  10  13  144.49   26.90
   3 -10 -13  604.84   53.69
  -3  10  13  567.04   43.40
  -2  10  13    0.70    8.60
  -1  10  13  207.08   25.40
   0  10  13   61.29   15.00
   1  10  13   87.19   21.90
   2  10  13   20.60   15.50
  11 -11 -13  101.99   28.00
 -11  11  13  107.19   31.00
  10 -11 -13   88.09   24.40
 -10  11  13   30.70   19.70
   9 -11 -13  149.88   30.30
  -9  11  13  125.19   29.60
   8 -11 -13  385.46   43.50
  -8  11  13  348.87   38.30
   7 -11 -13  108.59   25.00
  -7  11  13  115.59   25.90
   6 -11 -13   45.10   19.00
   6 -11 -13   52.39   17.70
  -6  11  13   92.99   22.60
   5 -11 -13    4.70   10.80
  -5  11  13   -6.60    9.20
   4 -11 -13   12.20   13.90
  -4  11  13   11.10   10.40
   3 -11 -13  785.72   66.19
  -3  11  13  688.93   48.10
  -2  11  13  537.85   41.50
  -1  11  13   63.39   16.10
   0  11  13   51.99   16.90
  10 -12 -13   55.19   20.80
 -10  12  13  -28.30   16.70
   9 -12 -13   10.60   16.30
  -9  12  13    3.10   14.80
   8 -12 -13  560.24   54.29
  -8  12  13  635.24   52.19
   7 -12 -13   78.99   26.20
  -7  12  13   90.29   20.60
   6 -12 -13   86.19   25.80
  -6  12  13   68.79   19.70
   5 -12 -13   43.10   18.30
  -5  12  13    8.30   14.50
   4 -12 -13  126.29   32.40
  -4  12  13  133.09   24.70
   3 -12 -13   10.90   16.40
  -3  12  13   25.90   12.40
  -2  12  13  107.29   21.20
   8 -13 -13   -7.90   15.90
  -8  13  13   40.10   17.50
   7 -13 -13   -7.80   15.50
  -7  13  13  -18.30   13.40
   6 -13 -13   30.30   18.80
  -6  13  13   50.19   17.70
   5 -13 -13  157.48   35.40
  -5  13  13  106.19   23.40
   3 -12  14   15.50   11.20
   3 -12  14    1.20   14.50
   4 -12  14   75.69   17.60
   4 -12  14  130.59   29.50
   5 -12  14   -8.20    9.30
   5 -12  14    2.40   12.30
   6 -12  14  243.18   28.20
   6 -12  14  152.88   30.30
   7 -12  14    4.50   14.10
   7 -12  14    8.80   13.10
   8 -12  14    7.70   13.50
   8 -12  14   18.50   13.20
   9 -12  14   66.39   21.50
   9 -12  14   21.60   16.20
   1 -11  14   33.30   13.20
   1 -11  14   23.40   17.10
   2 -11  14  -15.10    9.30
   2 -11  14   -6.40   10.20
   3 -11  14  -11.40   14.50
   3 -11  14    6.10   10.70
   4 -11  14   21.70   10.50
   4 -11  14   36.70   15.50
   5 -11  14   -5.90    9.40
   5 -11  14   23.80   14.10
   6 -11  14  118.69   23.30
   6 -11  14  196.08   51.59
   7 -11  14   33.60   12.30
   7 -11  14  -11.10   14.50
   8 -11  14   -3.20   11.50
   8 -11  14    3.70   11.20
   9 -11  14   21.10   12.50
   9 -11  14   10.70   11.40
  10 -11  14  280.27   40.90
  10 -11  14  255.07   40.40
  -1 -10  14  229.48   32.70
   0 -10  14   67.49   37.70
   0 -10  14  148.69   24.50
   1 -10  14   23.00   11.30
   1 -10  14  -19.20   10.30
   2 -10  14  129.39   23.80
   2 -10  14  112.29   22.00
   2 -10  14  129.09   21.40
   3 -10  14   27.40   12.30
   3 -10  14    8.10   10.30
   4 -10  14  201.38   24.40
   4 -10  14  238.28   28.10
   5 -10  14  311.17   33.20
   5 -10  14  352.96   32.80
   6 -10  14    2.00   10.50
   6 -10  14    0.00    6.60
   7 -10  14   47.40   14.60
   7 -10  14  -12.90   10.60
   8 -10  14  159.58   28.80
   8 -10  14  168.98   29.50
   9 -10  14  163.78   30.40
   9 -10  14  146.39   27.30
  10 -10  14  164.48   30.40
  10 -10  14  118.29   25.80
  11 -10  14    9.40   11.10
  11 -10  14   27.60   14.40
  -3  -9  14    6.70   15.60
  -1  -9  14  171.28   29.70
   0  -9  14  154.88   26.40
   0  -9  14  143.29   27.20
   0  -9  14  166.18   25.80
   1  -9  14   22.80   11.40
   1  -9  14   11.60   10.60
   2  -9  14   12.30    7.90
   2  -9  14  -19.80    6.70
   3  -9  14  108.99   20.90
   3  -9  14   75.29   18.10
   4  -9  14   13.40   10.20
   4  -9  14    1.60    6.50
   5  -9  14  535.05   39.90
   5  -9  14  528.25   42.30
   6  -9  14  307.47   33.40
   6  -9  14  312.37   31.90
   7  -9  14  563.34   44.00
   7  -9  14  559.54   46.10
   8  -9  14   36.60   13.60
   8  -9  14   55.09   18.50
   9  -9  14  175.38   30.40
   9  -9  14  115.59   27.40
  10  -9  14   -6.40   10.80
  10  -9  14    4.10   12.70
  11  -9  14    5.40   11.30
  11  -9  14   22.00   13.20
  12  -9  14   -0.30   15.60
  -4  -8  14   38.70   15.90
  -3  -8  14   -5.70   10.30
  -2  -8  14  133.09   26.80
  -2  -8  14  136.29   26.70
   1   8 -14   21.60   13.20
  -1  -8  14   54.09   16.00
  -1  -8  14   68.99   29.70
   0  -8  14  236.58   27.50
   0  -8  14  189.48   29.70
   0  -8  14  204.88   30.30
   1  -8  14  278.97   28.30
   1  -8  14  227.28   26.60
   1  -8  14  219.98   25.10
   2  -8  14  423.06   34.20
   2  -8  14  359.26   33.40
   3  -8  14   16.50    9.20
   3  -8  14   20.80    9.90
   4  -8  14  178.28   28.30
   4  -8  14  179.88   20.90
   5  -8  14  107.19   19.80
   5  -8  14   85.49   20.50
   6  -8  14   -7.30    7.00
   6  -8  14   20.50   10.50
   7  -8  14  218.38   28.00
   7  -8  14  248.68   27.70
   8  -8  14  191.28   29.30
   8  -8  14  277.27   33.10
   9  -8  14    9.20   11.40
   9  -8  14   18.50   12.90
  10  -8  14  110.09   23.70
  10  -8  14  109.79   26.60
  11  -8  14   30.20   12.70
  12  -8  14   72.39   21.70
  -5  -7  14   23.90   11.90
  -4  -7  14  -25.60    9.20
  -3  -7  14  -23.50   12.70
  -3  -7  14   35.90   15.50
  -2  -7  14  528.95   41.20
  -2  -7  14  598.04   46.10
   1   7 -14  196.88   30.70
  -1  -7  14  210.08   24.80
  -1  -7  14  191.78   31.40
   0   7 -14   55.39   17.90
   0  -7  14   84.39   17.40
   0  -7  14  114.19   20.00
   0  -7  14  129.99   23.20
   1  -7  14   13.90    9.40
   1  -7  14   33.40   10.20
   1  -7  14   12.40    9.20
   2  -7  14  624.54   43.80
   2  -7  14  517.35   42.70
   3  -7  14  248.28   28.00
   4  -7  14   -0.30    7.50
   4  -7  14    3.30    5.90
   5  -7  14  122.59   19.60
   5  -7  14  106.29   21.70
   6  -7  14   66.79   19.00
   6  -7  14   74.09   16.40
   7  -7  14   54.59   15.60
   7  -7  14   93.49   22.80
  -8   7 -14  284.57   31.00
   8  -7  14  262.17   39.80
   8  -7  14  238.98   28.40
  -9   7 -14  -17.60   13.30
   9  -7  14   -1.80   11.10
   9  -7  14   16.40    8.50
  11  -7  14   24.60   13.20
  12  -7  14   23.50   17.90
  -6  -6  14  305.97   39.50
  -5  -6  14  193.08   34.20
  -5  -6  14  150.18   29.70
  -4  -6  14   -7.80    8.80
  -4  -6  14    4.20   11.50
  -3  -6  14  243.88   33.30
  -3  -6  14  285.27   45.20
   2   6 -14    6.00   10.60
  -2  -6  14    4.40    8.10
  -2  -6  14    7.10    8.40
   1   6 -14   44.40   16.80
  -1  -6  14   60.49   15.80
  -1  -6  14   57.69   13.30
   0   6 -14  158.18   26.50
   0  -6  14  178.18   28.50
   0  -6  14  144.59   17.80
   0  -6  14  144.69   17.90
   1  -6  14  915.11   55.29
   1  -6  14  886.11   42.60
   1  -6  14  826.32   42.60
   2  -6  14   18.90    6.60
   2  -6  14    7.80    9.80
   3  -6  14   -3.80    5.80
   3  -6  14   -1.80    4.30
   4  -6  14   25.70   14.10
   4  -6  14   73.99   12.60
   5  -6  14   35.10   14.90
   6  -6  14  166.88   19.60
   6  -6  14  178.38   30.40
  -7   6 -14   28.70   11.60
   7  -6  14   19.20    9.60
   7  -6  14   11.90    9.80
  -8   6 -14  336.97   33.20
   8  -6  14  330.37   31.20
   8  -6  14  376.06   40.80
  -9   6 -14  117.59   24.70
   9  -6  14   55.29   19.40
   9  -6  14  110.99   24.60
  10  -6  14  217.08   35.00
  11  -6  14    4.80   11.20
  12  -6  14  185.78   34.80
  -7  -5  14   15.40   16.10
  -6  -5  14   -4.90   11.50
  -6  -5  14   21.80   18.30
  -5  -5  14  332.27   40.80
  -5  -5  14  293.37   36.80
  -4  -5  14  567.34   48.10
  -4  -5  14  496.45   37.40
  -3  -5  14   69.09   18.30
  -3  -5  14   49.99   14.60
   2   5 -14  108.49   22.80
  -2  -5  14   77.09   19.10
  -2  -5  14   80.99   15.50
   1   5 -14   26.90    9.50
  -1  -5  14   35.90   14.00
  -1  -5  14   42.30    9.90
   0   5 -14    4.40    4.60
   0  -5  14   -5.30    6.10
   0  -5  14    6.70    4.90
   0  -5  14    4.80    3.80
   1  -5  14  474.35   39.80
   1  -5  14  553.94   27.70
   1  -5  14  554.94   27.20
   2  -5  14    3.10    3.70
   3  -5  14    2.60    7.50
   4  -5  14   30.30   10.40
   4  -5  14   23.50    7.50
   5  -5  14   -6.00    6.40
   5  -5  14   -4.30    4.40
  -6   5 -14  950.90   50.79
   6  -5  14  931.71   75.09
   6  -5  14  898.11   46.90
  -7   5 -14  590.14   41.30
   7  -5  14  465.65   36.10
   7  -5  14  554.64   47.50
  -8   5 -14   27.60   12.60
   8  -5  14   28.00   11.40
   8  -5  14   40.50   16.20
  -9   5 -14    9.80   11.10
   9  -5  14    6.70    7.20
  10  -5  14  295.07   47.30
  11  -5  14  205.98   34.70
  12  -5  14  -14.00   16.20
  -8  -4  14   88.09   27.10
  -7  -4  14   12.00   13.60
  -6  -4  14  257.77   41.20
  -6  -4  14  232.48   28.70
  -5  -4  14    1.80    9.80
  -5  -4  14   10.10   11.50
  -4  -4  14  138.29   20.40
  -4  -4  14  181.38   38.50
  -3  -4  14    5.10    6.80
  -3  -4  14    5.90    6.50
   2   4 -14   66.49   16.70
  -2  -4  14   20.70   12.80
  -2  -4  14   48.90   10.60
   1   4 -14    6.70    8.80
  -1  -4  14    9.30   10.60
  -1  -4  14   23.30    6.40
  -1  -4  14   10.40    5.00
   0   4 -14    5.10    6.50
   0  -4  14    5.20    3.50
   0  -4  14    4.10    7.30
   0  -4  14    0.60    2.60
   1  -4  14 1065.89   31.40
   1  -4  14  858.41   29.60
   1  -4  14 1065.09   60.89
   2  -4  14  398.66   17.80
   2  -4  14  333.47   32.80
   3  -4  14  133.19   24.80
   3  -4  14  176.98   13.30
   4  -4  14    8.90    4.40
   4  -4  14    5.90    6.50
  -5   4 -14  507.95   38.50
   5  -4  14  518.25   31.30
   5  -4  14  458.65   41.40
  -6   4 -14   21.60    9.20
   6  -4  14   20.10    8.80
  -7   4 -14  232.28   25.50
   7  -4  14  200.28   34.40
   7  -4  14  206.58   23.40
  -8   4 -14  139.49   25.30
   8  -4  14  122.19   23.00
   8  -4  14  133.39   28.00
  -9   4 -14  454.45   40.30
   9  -4  14  490.15   42.90
  10  -4  14   15.70   13.20
  11  -4  14    5.70   11.70
  12  -4  14  -10.30   17.30
  -8  -3  14   -9.90    9.80
  -7  -3  14   38.00   14.80
  -7  -3  14   30.30   11.50
  -6  -3  14  127.09   28.50
  -6  -3  14   96.49   20.30
  -5  -3  14   13.60    8.70
  -5  -3  14   10.60   11.10
  -4  -3  14  210.98   35.10
  -4  -3  14  222.48   20.10
   3   3 -14    3.90    8.70
  -3  -3  14   -1.90    4.30
  -3  -3  14    4.30    7.10
   2   3 -14  -11.40    6.30
  -2  -3  14    2.70    6.70
  -2  -3  14    1.20    3.60
   1   3 -14  154.38   25.90
  -1  -3  14  195.88   24.50
   0   3 -14  821.92   52.79
   0  -3  14  806.72   52.69
   1  -3  14   40.20   14.60
   2  -3  14  259.37   28.30
   3  -3  14  814.22   30.80
   3  -3  14  766.82   52.19
  -4   3 -14  994.20   42.70
   4  -3  14 1049.09   43.20
   4  -3  14 1084.29   64.09
  -5   3 -14    4.80    6.40
   5  -3  14    2.20    8.80
  -6   3 -14   -0.80    6.40
   6  -3  14  -11.40    4.70
   6  -3  14   -2.80    5.60
  -7   3 -14   -9.50    7.90
   7  -3  14   11.20    9.80
   7  -3  14   -0.90    5.20
  -8   3 -14   54.79   15.50
   8  -3  14   80.29   17.90
  -9   3 -14  319.77   34.30
   9  -3  14  262.97   31.40
  10  -3  14   24.70   12.20
  11  -3  14  -14.60    8.70
  12  -3  14   41.00   22.50
  -9  -2  14   46.80   19.40
  -8  -2  14  132.89   24.70
  -8  -2  14   83.79   28.70
  -7  -2  14    3.60    8.70
  -7  -2  14   -6.80    9.70
  -6  -2  14  344.67   39.60
  -6  -2  14  360.06   31.10
  -5  -2  14  541.35   33.50
  -5  -2  14  483.85   45.10
  -4  -2  14   14.70    6.30
  -4  -2  14   20.20    9.10
   3   2 -14    4.80    7.50
  -3  -2  14    2.10    6.30
  -3  -2  14    4.70    3.50
   2   2 -14  394.66   35.70
  -2  -2  14  418.46   37.50
   1   2 -14  217.68   26.60
  -1  -2  14  248.88   27.90
   0   2 -14  343.37   33.20
   0  -2  14  390.66   35.60
   1  -2  14   71.89   18.60
   2  -2  14  350.86   33.60
   3  -2  14   40.60    7.00
   3  -2  14   65.89   16.60
  -4   2 -14  398.66   24.30
   4  -2  14  370.36   36.90
   4  -2  14  368.56   23.90
  -5   2 -14    5.30    4.30
   5  -2  14    3.90    7.20
   5  -2  14   -2.20    4.10
  -6   2 -14   40.30   11.50
   6  -2  14   61.99   17.70
   6  -2  14   49.70   13.30
  -7   2 -14   90.59   18.20
   7  -2  14  106.89   20.60
   7  -2  14   68.19   20.80
  -8   2 -14   17.40   11.70
   8  -2  14    6.70    8.00
   9  -2  14  569.84   47.10
  10  -2  14  115.39   28.20
  11  -2  14   -8.80   10.20
  10   1 -14   13.50   16.10
 -10  -1  14    2.80   19.90
   9   1 -14    6.20   11.00
  -9  -1  14  -12.00   10.10
   8   1 -14  -18.30   10.00
  -8  -1  14  -18.30    9.90
  -8  -1  14    3.80   12.90
  -7  -1  14  242.28   40.20
  -7  -1  14  247.08   27.20
  -6  -1  14   25.20   13.60
  -6  -1  14   17.50    9.80
  -5  -1  14  856.31   40.60
  -5  -1  14  804.12   62.39
  -4  -1  14  605.04   48.20
  -4  -1  14  500.75   25.60
   3   1 -14 1004.50   60.69
  -3  -1  14 1003.00   27.60
  -3  -1  14  962.40   60.99
   2   1 -14   35.60   11.80
  -2  -1  14   36.80   11.60
   1   1 -14  119.49   22.00
  -1  -1  14  113.59   21.00
   0   1 -14   73.09   17.20
   0  -1  14   51.39   15.60
   1  -1  14   39.30   14.10
   2  -1  14   88.49   20.30
  -3   1 -14  231.08   15.60
   3  -1  14  262.27   30.40
  -4   1 -14  178.98   16.80
   4  -1  14  164.28   28.00
   4  -1  14  169.48   16.60
  -5   1 -14   16.30    6.70
   5  -1  14   16.10    8.70
   5  -1  14   22.30   11.30
  -6   1 -14   47.40   12.40
   6  -1  14   47.90   13.60
  -7   1 -14   65.59   16.40
   7  -1  14   43.50   16.20
   7  -1  14   41.00   14.30
  -8   1 -14  235.68   29.00
   8  -1  14  210.58   32.80
  10  -1  14  165.78   32.40
  11  -1  14  253.67   42.90
  10   0 -14  125.69   30.50
   9   0 -14  188.88   31.70
  -9   0  14  152.88   34.70
  -9   0  14  137.19   26.80
   8   0 -14  252.87   28.70
  -8   0  14  181.18   27.30
  -8   0  14  208.08   36.60
   7   0 -14  102.49   19.00
  -7   0  14   94.29   24.60
  -7   0  14  112.99   19.60
   6   0 -14  173.78   19.70
  -6   0  14  113.59   25.40
  -6   0  14  158.38   18.60
   5   0 -14   -2.90    4.10
  -5   0  14   -0.70    4.60
  -5   0  14   42.50   21.80
   4   0 -14    8.80    7.90
  -4   0  14    8.50    9.40
   3   0 -14  794.62   53.79
  -3   0  14  744.13   52.49
   2   0 -14  308.67   31.20
  -2   0  14  333.07   33.00
   1   0 -14   79.89   18.00
  -1   0  14   61.09   16.40
   0   0 -14  584.84   43.70
   0   0  14  569.64   44.00
   1   0  14   38.30   12.70
  -2   0 -14  316.07   15.60
   2   0  14  341.77   33.90
  -3   0 -14  726.33   34.00
   3   0  14  951.90   59.09
   4   0  14    2.50    7.60
  -5   0 -14    9.70    6.60
   5   0  14   -0.70    6.50
  -6   0 -14  190.38   27.40
   6   0  14  149.59   29.60
   6   0  14  142.69   23.20
  -7   0 -14   84.99   32.80
   7   0  14  147.19   26.20
   7   0  14   55.59   18.80
  -8   0 -14  234.58   42.50
   8   0  14  237.68   35.70
   9   0  14  199.78   33.10
  10   0  14  176.18   33.40
  11  -1 -14  333.97   37.40
  10  -1 -14  175.98   31.00
 -10   1  14  208.48   39.50
   9  -1 -14   25.70   12.50
  -9   1  14   51.79   16.60
  -9   1  14   26.50   15.10
   8  -1 -14  242.48   25.80
  -8   1  14  161.58   34.00
  -8   1  14  229.98   26.20
   7  -1 -14   33.90   12.40
  -7   1  14   22.20   13.40
  -7   1  14   68.99   15.50
  -6   1  14   14.10   11.90
  -6   1  14   25.50    7.80
   5  -1 -14   18.10    7.20
  -5   1  14   24.80   12.30
  -5   1  14   18.30    6.00
   4  -1 -14  207.68   31.80
   4  -1 -14  165.98   11.80
  -4   1  14  153.08   27.50
   3  -1 -14  229.88   28.30
  -3   1  14  231.08   28.20
   2  -1 -14   96.89   19.90
  -2   1  14   88.89   20.30
   1  -1 -14   26.10   11.30
  -1   1  14   41.90   13.90
   0  -1 -14   30.20   11.60
   0   1  14   40.20   13.80
  -1  -1 -14   89.99    7.20
   1   1  14   90.59   19.70
  -2  -1 -14   50.99    9.10
   2   1  14   53.69   15.70
  -3  -1 -14  999.40   45.10
   3   1  14  974.40   61.49
  -4  -1 -14  488.45   33.60
   4   1  14  452.65   42.30
  -5  -1 -14  872.81   50.69
   5   1  14  979.60   65.39
  -6  -1 -14    1.20    9.90
   6   1  14   42.40   15.40
  -7  -1 -14  287.37   31.50
   7   1  14  225.48   39.60
   7   1  14  242.28   28.90
   8   1  14  -19.60    9.20
   9   1  14   -3.90    9.20
  10   1  14   17.20   16.20
 -11   2  14   12.40   13.20
  10  -2 -14  140.69   27.80
 -10   2  14  166.68   27.60
 -10   2  14  128.49   30.30
   9  -2 -14  529.05   42.80
  -9   2  14  447.86   49.10
   8  -2 -14   21.20   10.80
  -8   2  14    5.90    8.80
  -8   2  14   12.40   11.10
   7  -2 -14  101.89   17.60
  -7   2  14   98.69   26.00
  -7   2  14   81.99   16.70
   6  -2 -14   56.09   12.10
  -6   2  14   24.50   13.90
   5  -2 -14   -0.80    3.90
  -5   2  14    7.30    7.60
   4  -2 -14  355.36   18.90
   4  -2 -14  415.26   37.70
  -4   2  14  352.36   36.40
   3  -2 -14   27.00   12.20
  -3   2  14   49.50   15.00
   2  -2 -14  361.46   33.50
  -2   2  14  366.06   34.00
   1  -2 -14  105.39   19.80
  -1   2  14  104.29   21.30
   0  -2 -14  362.96   17.80
   0  -2 -14  318.67   17.00
   0   2  14  335.57   33.40
  -1  -2 -14  242.98   17.70
   1   2  14  232.18   27.80
  -2  -2 -14  423.06   27.30
   2   2  14  396.56   37.90
  -3  -2 -14   -8.20    4.70
   3   2  14   21.60   10.90
  -4  -2 -14   10.90    8.20
   4   2  14   13.50    9.90
  -5  -2 -14  565.14   42.30
   5   2  14  636.34   52.59
  -6  -2 -14  417.96   38.20
   6   2  14  432.96   45.90
   7   2  14    3.20   13.70
   8   2  14  105.79   27.60
  12  -3 -14   37.00   20.90
 -12   3  14   15.50   17.60
  11  -3 -14    1.90   13.00
 -11   3  14   26.20   16.90
  10  -3 -14   38.10   15.90
 -10   3  14   14.80   14.70
 -10   3  14   87.09   25.90
   9  -3 -14  307.57   31.60
  -9   3  14  373.86   34.40
  -9   3  14  381.26   44.20
   8  -3 -14   77.39   16.80
  -8   3  14   24.60   15.00
  -8   3  14   51.99   14.10
   7  -3 -14    7.90    6.40
  -7   3  14   -9.00    6.50
  -7   3  14    1.70    9.90
   6  -3 -14   13.60    6.60
  -6   3  14   18.70   11.60
   5  -3 -14    8.80    4.60
  -5   3  14    3.10    7.30
   4  -3 -14  995.00   38.40
   4  -3 -14  971.30   60.29
  -4   3  14 1032.40   63.49
   3  -3 -14  753.12   30.40
   3  -3 -14  896.31   55.39
  -3   3  14  846.42   55.49
   2  -3 -14  209.38   24.40
   2  -3 -14  266.17   15.80
   2  -3 -14  237.48   15.50
  -2   3  14  290.87   31.00
   1  -3 -14   36.60   11.40
   1  -3 -14   51.29    8.50
   1  -3 -14   42.10    8.00
  -1   3  14   55.49   16.80
   0  -3 -14  808.02   37.70
   0   3  14  810.82   53.99
  -1  -3 -14  162.48   17.40
   1   3  14  233.28   27.60
  -2  -3 -14    7.80    6.60
   2   3  14    1.20    4.50
  -3  -3 -14   14.70    9.10
   3   3  14   10.90    7.90
  -4  -3 -14  207.08   25.50
   4   3  14  218.18   52.99
  -5  -3 -14  -10.70   11.10
   5   3  14    8.10   10.80
   6   3  14  135.99   29.00
   7   3  14   12.70   14.70
   8   3  14   12.60   13.70
   9   3  14  -21.50   14.70
  12  -4 -14   10.50   13.30
 -12   4  14   17.60   14.10
  11  -4 -14   -7.90   11.50
  10  -4 -14  -10.60    9.40
 -10   4  14   -9.60   11.00
 -10   4  14   -3.00   10.50
   9  -4 -14  496.15   39.20
  -9   4  14  447.16   39.10
  -9   4  14  510.85   50.89
   8  -4 -14  188.58   21.80
  -8   4  14  122.89   22.50
  -8   4  14  140.69   30.70
   7  -4 -14  223.88   23.00
  -7   4  14  213.88   36.20
   6  -4 -14    7.20    6.30
  -6   4  14   17.50    9.30
   5  -4 -14  448.36   27.90
  -5   4  14  509.95   44.00
   4  -4 -14    4.40    4.50
   4  -4 -14   -0.40    7.30
  -4   4  14   -0.60    6.50
   3  -4 -14  168.38   27.00
   3  -4 -14  183.98   16.10
  -3   4  14  210.78   26.80
   2  -4 -14  360.36   23.90
   2  -4 -14  396.36   25.10
   2  -4 -14  374.86   34.40
  -2   4  14  329.27   33.60
   1  -4 -14 1010.40   46.50
   1  -4 -14  994.40   44.70
   1  -4 -14 1000.90   59.59
  -1   4  14  989.90   60.29
   0  -4 -14   15.10    7.50
   0   4  14    6.30    6.00
  -1  -4 -14  -11.40    6.30
   1   4  14   18.20    9.10
  -2  -4 -14   54.69   13.70
   2   4  14   59.49   16.80
  -3  -4 -14   -5.50    9.40
   3   4  14    5.80    8.30
  -4  -4 -14  187.88   30.00
   4   4  14  172.58   30.60
  -5  -4 -14   17.50   12.90
   5   4  14   -5.70    7.30
   6   4  14  217.28   37.90
   7   4  14   -6.70   12.80
   8   4  14   85.39   26.00
  12  -5 -14   23.10   14.30
 -12   5  14   16.40   17.10
  11  -5 -14  158.78   29.20
 -11   5  14  112.59   28.80
  10  -5 -14  383.36   36.10
 -10   5  14  404.96   47.00
 -10   5  14  289.57   33.50
   9  -5 -14    5.10    8.00
  -9   5  14  -28.80   12.20
  -9   5  14   -0.30    6.90
   8  -5 -14   28.40   11.10
  -8   5  14   18.90   11.30
   7  -5 -14  579.04   38.00
  -7   5  14  576.54   50.49
   6  -5 -14  904.71   46.50
   5  -5 -14    5.60    7.30
  -5   5  14    4.40    7.20
   4  -5 -14   14.90    7.40
   4  -5 -14   25.80   10.80
  -4   5  14    9.40    9.00
   3  -5 -14   -0.90    4.60
   3  -5 -14    3.20    8.00
  -3   5  14    6.90    8.10
   2  -5 -14   -5.80    7.10
   2  -5 -14    8.80    5.60
  -2   5  14    2.60    6.60
   1  -5 -14  473.05   32.50
  -1   5  14  492.35   40.80
   0  -5 -14    0.00    7.40
   0   5  14  -11.60    6.30
   1   5  14   61.19   17.00
  -2  -5 -14   98.99   19.70
   2   5  14   88.69   21.40
  -3  -5 -14   77.59   20.90
  -4  -5 -14  604.44   47.80
   4   5  14  605.74   50.69
   5   5  14  295.17   43.10
   6   5  14   -5.30   12.70
   7   5  14    1.40   15.00
  12  -6 -14  218.38   34.60
 -12   6  14  233.88   45.50
  11  -6 -14   -0.40   13.10
 -11   6  14   -5.50   13.30
  10  -6 -14  214.58   27.20
 -10   6  14  140.09   28.10
 -10   6  14  212.58   38.20
   9  -6 -14   88.09   19.30
  -9   6  14   84.89   24.50
   8  -6 -14  374.46   32.80
  -8   6  14  380.26   43.10
   7  -6 -14   22.90    9.90
  -7   6  14   20.60   11.70
   6  -6 -14  118.09   20.00
   5  -6 -14   44.30   12.10
  -5   6  14   16.90   10.00
   4  -6 -14   22.90   12.00
   4  -6 -14   47.50   12.60
  -4   6  14   46.60   16.80
   3  -6 -14    8.70    6.10
   3  -6 -14   19.30    9.80
  -3   6  14    0.90    6.30
   2  -6 -14   21.60    8.30
   2  -6 -14   11.50    7.10
  -2   6  14   -0.70    7.40
   1  -6 -14  906.71   50.79
  -1   6  14  865.81   56.09
   0  -6 -14  126.39   22.10
   0   6  14  143.19   25.90
  -1  -6 -14   60.69   16.30
   1   6  14   29.80   13.30
  -2  -6 -14   29.50   14.50
   2   6  14   15.40    9.60
   3   6  14  325.37   36.30
   4   6  14   19.60   13.20
   5   6  14  186.68   32.60
   6   6  14  186.18   36.00
  12  -7 -14   -4.40   14.50
 -12   7  14  -15.50   17.20
  11  -7 -14    7.40   14.80
 -11   7  14   -7.90   15.80
  10  -7 -14   36.60   15.70
 -10   7  14   18.00   12.60
   9  -7 -14   -4.80   10.40
  -9   7  14   -8.90   10.00
   8  -7 -14  237.58   26.50
  -8   7  14  243.48   39.30
   7  -7 -14  119.39   21.30
  -7   7  14   92.99   24.40
   6  -7 -14   43.40   13.60
   5  -7 -14  105.69   19.60
  -5   7  14   80.19   20.00
   4  -7 -14   -5.10    7.50
   4  -7 -14   -4.30    6.00
  -4   7  14    8.70    7.10
   3  -7 -14  238.58   26.90
   3  -7 -14  226.38   26.00
  -3   7  14  267.17   30.20
   2  -7 -14  582.44   44.40
  -2   7  14  545.75   43.30
   1  -7 -14   15.10    8.50
  -1   7  14   30.70   12.30
   0  -7 -14   51.29   18.80
   0   7  14  111.49   22.10
  -1  -7 -14  281.77   31.60
   1   7  14  238.18   29.70
   2   7  14  576.64   58.19
   3   7  14    2.80   11.60
   4   7  14   10.40   12.00
   5   7  14    2.30   16.50
  12  -8 -14   56.09   22.10
 -12   8  14  118.09   31.50
  11  -8 -14   24.50   17.70
 -11   8  14   16.20   16.40
  10  -8 -14  116.19   24.30
 -10   8  14  110.29   28.50
   9  -8 -14   16.90    9.00
  -9   8  14    6.50   12.50
   8  -8 -14  191.28   29.30
  -8   8  14  232.98   37.80
   7  -8 -14  160.08   26.00
  -7   8  14  183.08   32.20
   6  -8 -14   18.30   11.00
   5  -8 -14  105.79   22.80
  -5   8  14   69.19   19.10
   4  -8 -14   90.09   20.60
   4  -8 -14  141.69   26.20
  -4   8  14  136.79   24.40
   3  -8 -14   40.20   15.80
  -3   8  14   12.80   12.50
   2  -8 -14  353.06   34.90
   2  -8 -14  364.36   38.10
  -2   8  14  367.16   34.40
   1  -8 -14  284.77   32.40
  -1   8  14  240.78   30.90
   0   8  14  223.08   33.40
   1   8  14   24.70   15.70
   2   8  14  165.88   31.80
   3   8  14  -22.20   12.20
   4   8  14   -0.80   15.30
  12  -9 -14   39.10   16.80
 -12   9  14   32.90   16.50
  11  -9 -14  -11.20   13.60
 -11   9  14   32.80   15.90
  10  -9 -14   17.50   13.20
 -10   9  14   -1.40   14.10
   9  -9 -14  200.48   33.30
  -9   9  14  177.48   31.20
   8  -9 -14   22.80   15.30
  -8   9  14   14.40   12.60
   7  -9 -14  651.13   48.80
  -7   9  14  668.43   53.09
   6  -9 -14  257.57   30.60
   5  -9 -14  539.75   46.10
  -5   9  14  590.14   47.90
   4  -9 -14    9.10    9.10
   4  -9 -14  -14.60    9.90
  -4   9  14  -10.70    8.40
   3  -9 -14  107.99   25.10
  -3   9  14   91.19   22.20
  -2   9  14    4.20    9.20
  -1   9  14    6.40   10.70
   0   9  14  135.19   26.50
   1   9  14  189.88   30.00
   2   9  14   -5.70   12.40
   3   9  14   74.59   20.80
  11 -10 -14    9.10   15.70
 -11  10  14   13.90   17.10
  10 -10 -14  148.99   30.20
 -10  10  14  165.88   35.40
   9 -10 -14  136.49   28.50
  -9  10  14  144.59   31.00
   8 -10 -14  162.48   28.60
  -8  10  14  163.38   32.50
   7 -10 -14    9.90   11.80
  -7  10  14    7.80   14.90
   6 -10 -14   -4.00   11.20
   5 -10 -14  323.57   38.40
  -5  10  14  382.66   39.30
   4 -10 -14  187.58   32.80
  -4  10  14  204.88   32.60
   3 -10 -14   35.00   17.60
  -3  10  14   39.60   14.70
  -2  10  14   93.99   21.00
  -1  10  14   -9.80    9.00
   0  10  14  149.19   24.70
   1  10  14  203.08   34.10
  10 -11 -14  211.08   40.50
 -10  11  14  288.07   45.80
   9 -11 -14    4.40   14.00
  -9  11  14   -4.00   13.40
   8 -11 -14    2.40   12.50
  -8  11  14   15.20   12.80
   7 -11 -14   -2.50   11.50
  -7  11  14   -2.80    8.40
   6 -11 -14  152.18   30.50
   5 -11 -14   15.40   13.70
  -5  11  14   -7.40   12.50
   4 -11 -14   35.00   19.80
  -4  11  14   13.90   11.70
   3 -11 -14  -12.70   13.70
  -3  11  14   22.70   13.00
  -2  11  14   -7.40   11.50
  -1  11  14    0.20   14.00
   9 -12 -14   15.90   21.80
  -9  12  14   24.70   17.10
   8 -12 -14   43.40   21.10
  -8  12  14   14.50   15.50
  -7  12  14    3.00   15.50
   6 -12 -14  202.98   37.00
  -6  12  14  252.97   42.20
   5 -12 -14   50.29   20.80
  -5  12  14  -20.10   13.50
   4 -12 -14   38.60   25.70
  -4  12  14   92.99   23.00
   3 -12 -14   25.70   20.60
  -3  12  14    1.00   13.60
   5 -12  15  833.02   50.99
   5 -12  15  799.02   59.49
   6 -12  15  235.08   36.30
   7 -12  15   22.90   17.70
   7 -12  15   32.70   15.80
   2 -11  15  269.97   31.10
   2 -11  15  297.47   34.50
   3 -11  15  459.65   39.10
   3 -11  15  500.15   83.29
   4 -11  15   11.60   10.40
   4 -11  15  -24.40   11.40
   5 -11  15  459.15   42.20
   5 -11  15  491.35   42.20
   6 -11  15   63.19   23.60
   6 -11  15   51.79   16.40
   7 -11  15  149.19   26.80
   7 -11  15  177.98   29.50
   8 -11  15  240.78   37.20
   8 -11  15  191.38   32.70
   9 -11  15   -7.10   12.00
   9 -11  15    9.50   11.70
   0 -10  15   76.39   18.60
   1 -10  15   58.09   19.50
   1 -10  15   45.40   21.70
   1 -10  15   78.69   19.30
   2 -10  15   19.80   12.40
   2 -10  15   22.50   13.30
   2 -10  15  -10.30   11.90
   3 -10  15  225.98   27.10
   3 -10  15  158.78   27.70
   4 -10  15   -4.70   10.80
   4 -10  15   20.50   11.40
   5 -10  15 1067.79   74.19
   5 -10  15 1028.40   60.69
   6 -10  15 1122.39   64.59
   6 -10  15 1233.78   70.09
   7 -10  15  236.88   34.40
   7 -10  15  188.38   32.20
   8 -10  15  572.24   45.50
   8 -10  15  521.45   47.20
   9 -10  15  184.78   32.10
   9 -10  15  154.18   28.60
  10 -10  15   94.29   24.30
  10 -10  15   56.59   22.10
  -2  -9  15   27.00   13.20
  -1  -9  15  236.08   49.70
  -1  -9  15  163.58   27.90
   0  -9  15  305.97   35.60
   0  -9  15  363.46   36.80
   0  -9  15  351.86   34.60
   1  -9  15  -22.90   10.10
   1  -9  15   22.20   11.60
   1  -9  15   11.60   10.00
   2  -9  15   18.60   13.30
   2  -9  15   17.30   10.50
   2  -9  15    1.70    9.20
   3  -9  15   -3.00    7.70
   3  -9  15    2.90    9.10
   4  -9  15 1141.19   64.19
   4  -9  15 1051.39   57.79
   5  -9  15   45.40   14.40
   5  -9  15   50.49   25.10
   6  -9  15   75.69   18.60
   6  -9  15  105.29   22.30
   7  -9  15   57.39   17.20
   7  -9  15   56.49   18.90
   8  -9  15 1702.93   82.69
   8  -9  15 1882.11   95.19
   9  -9  15  451.35   40.90
   9  -9  15  362.76   41.00
  10  -9  15   68.69   21.00
  10  -9  15   78.69   21.00
  11  -9  15  210.58   36.70
  11  -9  15  277.37   45.50
  -3  -8  15  267.37   39.90
  -2  -8  15  588.54   46.30
  -2  -8  15  600.34   48.50
  -1  -8  15 1585.64   97.69
  -1  -8  15 1725.23   79.09
   0  -8  15   73.89   16.50
   0  -8  15   54.49   17.60
   0  -8  15   64.69   15.80
   1  -8  15  105.39   19.90
   1  -8  15   79.59   18.00
   1  -8  15   63.99   15.00
   2  -8  15   51.69   12.80
   2  -8  15   89.19   19.50
   2  -8  15   81.79   16.40
   3  -8  15  819.72   53.79
   3  -8  15  793.52   46.20
   4  -8  15  229.88   28.60
   4  -8  15  281.97   25.30
   5  -8  15  128.29   20.70
   6  -8  15  159.88   28.70
   6  -8  15  200.08   22.60
   7  -8  15 1012.10   57.39
   7  -8  15 1114.09   69.59
   8  -8  15   88.89   24.10
   8  -8  15   68.19   18.20
   9  -8  15   21.10   12.30
   9  -8  15   21.40   12.40
  10  -8  15   35.70   13.70
  10  -8  15   -0.30   12.90
  11  -8  15  443.66   69.09
  11  -8  15  415.76   43.30
  -5  -7  15   45.00   18.90
  -4  -7  15  196.18   37.60
  -4  -7  15  134.69   30.10
  -3  -7  15  144.79   26.40
  -3  -7  15  240.98   37.00
  -2  -7  15   62.59   19.30
  -2  -7  15   64.49   17.20
  -1  -7  15 1138.49   66.69
  -1  -7  15  986.00   54.39
   0  -7  15  404.46   31.30
   0  -7  15  455.15   34.10
   0  -7  15  416.36   38.10
   1  -7  15 2023.10   76.89
   1  -7  15 2042.80   91.39
   2  -7  15 1651.93   80.69
   2  -7  15 1611.24   64.99
   2  -7  15 1558.44   63.29
   3  -7  15   -2.70    7.30
   3  -7  15    1.40    6.40
   4  -7  15  402.36   38.20
   5  -7  15   -2.60    6.90
   6  -7  15   42.40   16.70
   6  -7  15   52.99   13.70
   7  -7  15  404.46   40.80
   7  -7  15  417.56   33.80
   8  -7  15   66.79   16.90
   8  -7  15   71.79   21.10
  -9   7 -15   24.70   16.30
   9  -7  15   22.00   11.50
   9  -7  15    3.30   10.40
  10  -7  15  140.29   30.70
  11  -7  15   20.50   14.70
  12  -7  15  835.82   62.29
  -6  -6  15  318.97   39.50
  -5  -6  15   38.70   17.20
  -5  -6  15   55.99   18.00
  -4  -6  15 1301.37   78.59
  -3  -6  15   86.69   17.60
  -3  -6  15  108.09   23.50
  -2  -6  15  147.49   21.40
  -2  -6  15  149.19   33.30
  -1  -6  15   56.49   12.80
  -1  -6  15   62.59   12.70
  -1  -6  15   53.19   16.30
   0   6 -15  474.45   43.00
   0  -6  15  540.55   32.10
   0  -6  15  541.65   43.40
   1  -6  15  104.19   21.70
   1  -6  15  103.99   14.80
   2  -6  15 1223.48   49.00
   2  -6  15 1334.97   71.79
   2  -6  15 1281.17   49.80
   3  -6  15   54.09   11.50
   3  -6  15   34.90   13.40
   4  -6  15 1535.45   58.89
   4  -6  15 1516.65   79.09
   5  -6  15  715.13   39.30
   6  -6  15  444.16   32.30
   6  -6  15  529.35   46.20
   7  -6  15 2071.29   83.89
   7  -6  15 2065.79  101.89
  -8   6 -15   66.19   18.30
   8  -6  15   42.50   18.00
   8  -6  15   96.79   20.00
  -9   6 -15   24.40   15.20
   9  -6  15    8.20    9.70
   9  -6  15    5.20   11.30
  10  -6  15    3.60   16.00
  11  -6  15  468.05   44.00
  12  -6  15  246.38   40.50
  -7  -5  15  912.21   70.79
  -6  -5  15  462.75   48.70
  -6  -5  15  437.36   40.30
  -5  -5  15 1065.19   72.09
  -5  -5  15 1152.18   74.49
  -4  -5  15   21.20   13.90
  -4  -5  15   31.80   14.60
  -3  -5  15  135.49   28.00
  -3  -5  15  132.69   20.70
  -2  -5  15    4.40    5.90
  -2  -5  15    4.30    8.40
  -1  -5  15  745.03   36.00
  -1  -5  15  687.13   35.40
  -1  -5  15  790.32   54.49
   0   5 -15   48.40   15.30
   0  -5  15   39.90    7.70
   0  -5  15   18.00   12.60
   0  -5  15   39.80    8.10
   1  -5  15   21.30    9.80
   1  -5  15    4.80    4.30
   1  -5  15    8.10    4.00
   2  -5  15  479.25   41.00
   2  -5  15  458.75   22.30
   2  -5  15  465.25   22.50
   3  -5  15  337.57   20.70
   3  -5  15  401.76   37.00
   4  -5  15  152.68   27.70
   4  -5  15  122.59   13.70
   5  -5  15   50.79   10.90
   5  -5  15   30.00   14.20
   6  -5  15   90.19   16.00
   6  -5  15   69.29   19.60
  -7   5 -15 1656.03   75.59
   7  -5  15 1750.22   74.39
   7  -5  15 1635.54   89.89
  -8   5 -15  864.01   55.09
   8  -5  15  811.22   62.49
   8  -5  15  864.31   53.09
  -9   5 -15 1018.80   63.59
   9  -5  15 1044.30   74.59
   9  -5  15 1054.99   61.89
  11  -5  15   45.10   20.20
  12  -5  15   26.70   18.50
  -7  -4  15   -6.70    9.10
  -6  -4  15    7.70   14.60
  -5  -4  15 1027.70   56.69
  -5  -4  15 1124.49   73.39
  -4  -4  15  225.88   23.70
  -4  -4  15  239.28   36.10
  -3  -4  15  366.06   38.70
  -2  -4  15 1539.55   80.29
  -2  -4  15 1471.55   52.09
   1   4 -15   97.99   23.30
  -1  -4  15  110.79    9.50
  -1  -4  15  121.69   24.30
  -1  -4  15  141.29   10.20
   0   4 -15 1234.78   69.89
   0  -4  15 1288.67   70.09
   1  -4  15  244.88   28.90
   2  -4  15  975.70   60.49
   3  -4  15  118.19    9.70
   3  -4  15   89.29   22.30
   4  -4  15 1250.17   46.80
   4  -4  15 1205.78   69.89
   5  -4  15    3.90    7.00
   5  -4  15    8.30    5.90
  -6   4 -15 1239.88   58.89
   6  -4  15 1309.57   77.59
   6  -4  15 1367.76   60.59
  -7   4 -15   20.70   10.40
   7  -4  15   -2.30    9.40
   7  -4  15   12.60    7.20
  -8   4 -15  190.38   28.30
   8  -4  15  198.68   29.70
   8  -4  15  211.28   36.10
  -9   4 -15   59.19   20.30
   9  -4  15   67.09   22.50
   9  -4  15   48.20   17.00
  10  -4  15 1124.19   71.59
  11  -4  15  102.19   26.10
  -8  -3  15  472.95   49.99
  -7  -3  15  174.78   29.00
  -7  -3  15  181.88   35.30
  -6  -3  15    2.10   11.00
  -6  -3  15    8.10   10.00
  -5  -3  15  812.12   44.80
  -5  -3  15  899.71   62.99
  -4  -3  15   -8.00    7.20
  -3  -3  15   39.80    8.50
  -2  -3  15  371.56   14.70
  -2  -3  15  394.66   15.20
  -2  -3  15  422.36   39.00
   1   3 -15  101.59   21.40
  -1  -3  15   87.79   19.70
   0   3 -15 1341.27   72.39
   0  -3  15 1252.07   70.49
   1  -3  15 2906.71  116.79
   2  -3  15  788.72   53.69
   3  -3  15 1312.97   36.20
   3  -3  15 1304.57   72.49
   4  -3  15  193.98   15.60
   4  -3  15  178.68   30.30
  -5   3 -15  456.55   29.50
   5  -3  15  484.95   30.20
   5  -3  15  462.05   42.80
  -6   3 -15   45.50   12.30
   6  -3  15   61.19   14.30
   6  -3  15   50.79   17.80
  -7   3 -15  372.36   32.20
   7  -3  15  392.36   42.80
   7  -3  15  405.66   34.00
  -8   3 -15  119.09   24.10
   8  -3  15  145.69   25.40
   8  -3  15   82.99   24.70
  -9   3 -15   91.59   23.20
   9  -3  15   90.49   21.50
   9  -3  15   70.99   20.60
  10  -3  15  171.68   29.20
  11  -3  15  161.48   30.60
  -9  -2  15  250.07   43.40
  -8  -2  15   24.80   17.00
  -8  -2  15   -6.20   15.90
  -7  -2  15   -3.30   13.00
  -7  -2  15   -4.00   12.50
  -6  -2  15   57.29   15.40
  -6  -2  15   88.59   24.20
  -5  -2  15 1668.73   89.79
  -5  -2  15 1642.24   63.79
  -4  -2  15 1385.36   79.39
  -3  -2  15  468.35   42.70
  -3  -2  15  484.85   18.00
  -2  -2  15  928.81   60.49
   1   2 -15  729.13   51.19
  -1  -2  15  738.83   52.19
   0   2 -15   13.70    8.90
   0  -2  15  -11.40    6.40
   1  -2  15  333.57   33.30
   2  -2  15    9.60    7.50
   3  -2  15 2856.71  117.59
  -4   2 -15  965.40   40.10
   4  -2  15  957.50   39.80
   4  -2  15  922.11   61.39
   5  -2  15  373.26   27.20
   5  -2  15  383.96   39.60
  -6   2 -15 1480.25   65.09
   6  -2  15 1474.15   66.49
   6  -2  15 1525.35   85.79
  -7   2 -15   15.50    9.30
   7  -2  15   10.30    7.30
   7  -2  15   13.10    8.70
  -8   2 -15  125.79   22.50
   8  -2  15  173.98   32.80
   8  -2  15  216.08   26.90
   9  -2  15   62.59   18.10
  10  -2  15  546.05   49.70
  11  -2  15   10.80   16.00
  -9  -1  15  111.99   28.20
  -8  -1  15   17.50   13.90
  -7  -1  15   74.99   16.90
  -7  -1  15  106.39   27.80
  -6  -1  15 2214.58   80.59
  -6  -1  15 2127.49  106.79
  -5  -1  15   90.39   13.40
  -5  -1  15   97.79   23.50
  -4  -1  15    9.20    4.00
  -4  -1  15    6.30    8.90
  -3  -1  15  278.47   32.70
   2   1 -15 2847.42  117.09
  -2  -1  15 2922.91  118.09
   1   1 -15  365.46   35.10
  -1  -1  15  365.66   35.90
   0   1 -15  508.05   42.00
   0  -1  15  534.45   44.30
   1  -1  15  502.15   41.80
   2  -1  15  395.96   38.00
  -3   1 -15  677.73   27.50
   3  -1  15  719.03   52.79
  -4   1 -15  112.99   13.20
   4  -1  15  108.59   29.10
  -5   1 -15  127.19   15.90
   5  -1  15   96.19   17.50
   5  -1  15  137.99   28.90
  -6   1 -15  725.63   44.20
   6  -1  15  711.43   45.70
   6  -1  15  760.12   58.79
  -7   1 -15   85.39   18.90
   7  -1  15   54.59   19.00
   7  -1  15   62.79   17.20
  -8   1 -15  970.50   61.69
   8  -1  15 1119.29   77.69
   8  -1  15 1135.89   66.19
   9  -1  15 1957.20   97.19
  10  -1  15  182.18   34.70
  10   0 -15  118.79   26.10
 -10   0  15   77.79   25.80
   9   0 -15  381.06   37.10
  -9   0  15  291.47   46.90
  -9   0  15  333.97   35.50
   8   0 -15   81.59   18.60
  -8   0  15   70.89   23.40
  -8   0  15   85.29   17.00
   7   0 -15  458.05   33.90
  -7   0  15  563.74   51.69
  -7   0  15  386.36   31.70
  -6   0  15  459.85   30.10
  -6   0  15  490.75   47.00
  -5   0  15   42.70   15.50
  -5   0  15   51.99    9.20
  -3   0  15 1448.76   78.29
   2   0 -15   -0.90    4.00
  -2   0  15   -3.10    5.40
   1   0 -15  505.65   40.90
  -1   0  15  491.15   42.40
   0   0 -15    9.10    7.70
   0   0  15   12.30    7.50
   1   0  15  531.55   44.10
  -2   0 -15   11.00    2.80
   2   0  15    0.70    7.00
  -3   0 -15 1296.47   47.10
   3   0  15 1353.46   75.29
  -4   0 -15 1360.86   60.69
   4   0  15 1125.19   75.59
  -5   0 -15   31.30   10.80
   5   0  15   36.00   14.80
  -6   0 -15  465.15   37.20
   6   0  15  586.14   52.39
   6   0  15  542.15   41.00
  -7   0 -15  459.05   48.40
   7   0  15  379.26   44.00
   7   0  15  503.95   42.20
   8   0  15  103.69   25.60
   8   0  15   90.29   25.70
   9   0  15  338.77   40.30
   9   0  15  405.46   46.80
  10   0  15   71.19   23.90
  10  -1 -15  181.68   29.10
 -10   1  15  122.49   30.40
   9  -1 -15 1786.42   83.49
  -9   1  15 1760.52  105.19
   8  -1 -15 1079.59   58.89
  -8   1  15 1187.38   80.39
  -8   1  15 1057.49   57.49
   7  -1 -15   81.39   17.40
  -7   1  15   55.69   18.00
  -7   1  15   83.59   14.70
   6  -1 -15  805.72   40.20
  -6   1  15  704.83   38.80
  -6   1  15  691.93   56.49
   5  -1 -15  109.49   11.90
  -5   1  15  125.99   26.90
  -5   1  15  114.29   12.60
  -4   1  15  128.99   32.00
  -3   1  15  703.13   52.19
   2  -1 -15  294.87   31.20
  -2   1  15  333.77   34.30
   1  -1 -15  514.55   41.90
  -1   1  15  533.75   44.40
   0  -1 -15  503.45   41.90
   0   1  15  539.95   44.20
   1   1  15  378.96   37.30
  -2  -1 -15 2764.82   79.99
   2   1  15 2840.82  117.49
  -3  -1 -15  204.98   18.70
   3   1  15  232.08   35.60
  -4  -1 -15    2.90    5.50
   4   1  15    4.10    6.20
  -5  -1 -15   87.59   17.50
   5   1  15   60.59   19.00
  -6  -1 -15 2081.69   89.59
   6   1  15 2100.99  107.49
  -7  -1 -15   80.99   19.80
   7   1  15  145.69   31.70
   8   1  15   -5.70   12.40
  11  -2 -15   49.00   16.30
 -11   2  15    6.10   14.80
  10  -2 -15  470.05   42.30
 -10   2  15  758.62  126.99
 -10   2  15  484.35   44.90
   9  -2 -15   37.50   13.40
  -9   2  15    9.40   15.50
  -9   2  15   58.39   19.00
   8  -2 -15  131.89   22.20
  -8   2  15  119.59   21.80
  -8   2  15  166.48   33.20
   7  -2 -15   15.50    8.10
  -7   2  15  -12.50    7.90
  -7   2  15   -6.10    7.10
   6  -2 -15 1424.46   56.89
  -6   2  15 1435.16   83.49
  -6   2  15 1357.56   56.99
   5  -2 -15  354.46   21.80
  -5   2  15  469.65   43.00
   4  -2 -15  913.11   30.70
  -4   2  15  975.40   67.49
  -3   2  15 2598.64  111.39
   2  -2 -15   31.40   12.30
  -2   2  15    7.10    7.40
   1  -2 -15  351.76   33.90
  -1   2  15  394.46   37.30
   0  -2 -15    0.90    2.50
   0  -2 -15    8.20    3.20
   0   2  15   24.00   11.30
  -1  -2 -15  682.53   30.50
   1   2  15  748.13   52.79
  -2  -2 -15  923.01   42.10
   2   2  15  899.21   60.29
  -3  -2 -15  422.46   30.50
   3   2  15  416.36   73.09
  -4  -2 -15 1293.77   62.79
   4   2  15 1462.05   81.99
  -5  -2 -15 1462.15   73.09
   5   2  15 1677.43   91.69
  -6  -2 -15   40.50   17.10
   6   2  15   35.20   19.30
   7   2  15   -8.00    6.30
   8   2  15   31.00   15.80
   9   2  15  209.88   40.80
  11  -3 -15  223.48   36.00
 -11   3  15  174.08   38.40
  10  -3 -15  134.89   25.70
 -10   3  15  187.58   29.50
 -10   3  15  161.98   36.50
   9  -3 -15  108.09   20.90
  -9   3  15   72.59   25.40
  -9   3  15   88.19   20.10
   8  -3 -15  114.39   20.00
  -8   3  15  117.89   27.80
  -8   3  15   57.29   17.00
   7  -3 -15  371.26   28.60
  -7   3  15  350.66   41.70
  -7   3  15  363.76   30.10
   6  -3 -15   67.29   12.30
  -6   3  15   30.10   15.00
   5  -3 -15  457.05   25.40
  -5   3  15  475.55   43.50
   4  -3 -15  188.58   13.70
  -4   3  15  221.18   34.30
   3  -3 -15 1262.37   40.10
  -3   3  15 1386.06   75.29
   2  -3 -15  708.83   25.90
   2  -3 -15  689.63   26.50
   2  -3 -15  620.54   47.40
  -2   3  15  657.83   49.50
   1  -3 -15 2879.01  115.89
   1  -3 -15 2863.61   81.59
   1  -3 -15 2882.01   80.79
  -1   3  15 2846.92  116.79
   0  -3 -15 1337.97   50.19
   0  -3 -15 1382.46   51.89
   0   3  15 1316.07   73.49
  -1  -3 -15  129.29   14.70
   1   3  15  134.49   25.10
  -2  -3 -15  384.06   29.20
   2   3  15  352.06   37.00
  -3  -3 -15   47.10   12.90
   3   3  15   28.30   14.10
  -4  -3 -15    5.10   10.10
   4   3  15    2.10    9.80
  -5  -3 -15  856.41   54.69
   5   3  15  925.91   66.89
   6   3  15  -10.90   12.10
   7   3  15  206.48   38.70
   8   3  15  452.45   52.19
  11  -4 -15  146.39   28.50
 -11   4  15  161.18   33.50
  10  -4 -15 1318.17   70.39
 -10   4  15 1122.69   83.49
   9  -4 -15   60.79   16.70
  -9   4  15   72.19   20.90
  -9   4  15   68.39   18.70
   8  -4 -15  233.08   25.30
  -8   4  15  220.78   38.40
  -8   4  15  255.77   28.10
   7  -4 -15    2.60    7.10
  -7   4  15   16.70   13.50
   6  -4 -15 1293.57   54.39
  -6   4  15 1363.46   80.39
   5  -4 -15    2.80    5.00
  -5   4  15   16.90   12.90
   4  -4 -15 1270.57   47.60
  -4   4  15 1176.48   71.39
   3  -4 -15  135.19   13.50
  -3   4  15  135.99   26.30
   2  -4 -15 1015.30   42.20
   2  -4 -15 1027.00   42.20
   2  -4 -15  983.20   60.89
  -2   4  15  905.61   59.69
   1  -4 -15  227.88   19.60
   1  -4 -15  188.78   18.00
  -1   4  15  210.98   33.30
   0   4  15 1366.06   75.29
  -1  -4 -15  102.99   19.30
   1   4  15  132.49   25.50
  -2  -4 -15 1468.75   68.79
   2   4  15 1574.74  101.99
  -3  -4 -15  355.16   34.30
   3   4  15  426.96   41.80
  -4  -4 -15  224.38   27.70
   4   4  15  260.27   39.90
  -5  -4 -15  870.91   77.29
   5   4  15 1166.18   75.79
   6   4  15    9.50   15.50
   7   4  15    4.70   14.20
  12  -5 -15   17.20   16.10
 -12   5  15   -7.60   17.70
  11  -5 -15   37.80   17.10
 -11   5  15   34.70   21.60
  10  -5 -15 1081.09   63.89
 -10   5  15 1029.90   77.79
 -10   5  15  992.90   64.99
   9  -5 -15 1118.19   61.09
  -9   5  15 1184.58   80.49
  -9   5  15 1052.29   63.59
   8  -5 -15  780.22   47.40
  -8   5  15  787.32   62.89
   7  -5 -15 1656.43   69.39
  -7   5  15 1623.44   91.59
   6  -5 -15   89.39   15.60
  -6   5  15  100.19   25.20
   5  -5 -15   33.70    9.70
  -5   5  15   51.99   18.00
   4  -5 -15  139.59   16.00
  -4   5  15   93.49   22.40
   3  -5 -15  372.16   26.60
  -3   5  15  395.66   38.00
   2  -5 -15  481.85   31.70
   2  -5 -15  387.66   40.10
   2  -5 -15  438.06   29.50
  -2   5  15  437.06   40.10
   1  -5 -15    6.10    5.70
   1  -5 -15    4.20    6.70
  -1   5  15    2.70    9.70
   0  -5 -15   45.90   12.30
   0   5  15   43.90   16.80
  -1  -5 -15  749.33   47.80
   1   5  15  801.92   56.09
  -2  -5 -15    9.50   10.50
   2   5  15    6.90   10.40
  -3  -5 -15  133.19   27.00
   3   5  15  116.29   25.80
   4   5  15   51.09   17.40
   5   5  15 1059.29   73.29
   6   5  15  536.05   53.19
   7   5  15  820.12   67.99
  12  -6 -15  310.17   33.70
 -12   6  15  206.78   41.80
  11  -6 -15  501.65   43.10
 -11   6  15  440.46   52.69
  10  -6 -15  -11.30   10.50
 -10   6  15   20.00   18.50
   9  -6 -15  -15.90    8.70
  -9   6  15    3.70   13.20
   8  -6 -15  102.59   20.50
  -8   6  15   35.30   17.10
   7  -6 -15 1940.11   79.49
  -7   6  15 1940.41  101.49
   6  -6 -15  560.64   36.50
  -6   6  15  467.95   46.60
   5  -6 -15  770.72   43.10
  -5   6  15  731.43   56.29
   4  -6 -15 1415.16   63.29
  -4   6  15 1480.35   81.99
   3  -6 -15   48.60   12.70
  -3   6  15   19.30   13.20
   2  -6 -15 1418.46   66.19
   2  -6 -15 1366.76   62.59
  -2   6  15 1387.46   75.49
   1  -6 -15  113.39   20.00
  -1   6  15   88.39   20.50
   0  -6 -15  543.75   40.40
   0   6  15  503.65   43.60
  -1  -6 -15   62.09   17.90
   1   6  15   70.59   28.00
  -2  -6 -15  111.89   23.60
   2   6  15  191.78   31.60
   3   6  15  120.09   26.10
   5   6  15   77.99   23.40
   6   6  15  258.57   42.10
  12  -7 -15  877.91   62.19
 -12   7  15  940.91   81.99
  11  -7 -15  -13.00   13.00
 -11   7  15   30.40   23.70
  10  -7 -15  205.98   31.50
 -10   7  15  160.68   33.00
   9  -7 -15   20.30   12.30
  -9   7  15   24.20   14.40
   8  -7 -15   89.59   18.30
  -8   7  15   62.29   19.90
   7  -7 -15  406.86   34.00
  -7   7  15  424.36   43.30
   6  -7 -15   72.99   17.80
  -6   7  15   69.69   20.60
  -5   7  15   -9.30    7.50
   4  -7 -15  375.96   32.60
  -4   7  15  377.56   58.29
   3  -7 -15  -13.20    5.50
  -3   7  15   -5.80    8.30
   2  -7 -15 1726.73   80.59
   2  -7 -15 1660.33   75.69
  -2   7  15 1549.45   81.49
   1  -7 -15 2145.59   90.29
  -1   7  15 1997.10   94.99
   0  -7 -15  448.26   38.60
   0   7  15  409.16   42.60
  -1  -7 -15 1050.19   65.69
   1   7  15 1133.49   68.99
   2   7  15   49.40   19.20
   3   7  15  169.38   32.50
   4   7  15  110.89   29.30
   5   7  15   48.50   23.40
  11  -8 -15  431.66   43.10
  10  -8 -15   10.10   13.00
 -10   8  15   17.30   16.60
   9  -8 -15   20.20   13.70
  -9   8  15    2.40   11.40
   8  -8 -15   65.09   18.80
  -8   8  15   62.19   22.70
   7  -8 -15 1125.79   62.39
  -7   8  15  952.00   68.99
   6  -8 -15  169.98   27.10
  -6   8  15  136.89   29.40
   5  -8 -15  155.78   24.90
  -5   8  15   94.19   24.00
   4  -8 -15  207.38   25.80
   3  -8 -15  818.82   54.59
  -3   8  15  817.62   56.89
   2  -8 -15   82.89   22.10
   2  -8 -15   77.59   18.80
  -2   8  15   64.39   18.40
   1  -8 -15   76.59   18.80
  -1   8  15   60.79   19.30
   1   8  15 1794.12   90.89
   2   8  15  681.03   54.29
   3   8  15  271.07   34.20
  11  -9 -15  317.17   36.40
 -11   9  15  439.26   89.69
  10  -9 -15   41.10   19.60
 -10   9  15   53.29   18.20
   9  -9 -15  358.66   38.40
  -9   9  15  421.86   45.70
   8  -9 -15 1899.91   89.19
  -8   9  15 1697.83   96.99
   7  -9 -15   50.39   16.00
  -7   9  15   53.29   20.10
   6  -9 -15  101.69   22.10
  -6   9  15   51.39   18.60
   5  -9 -15   54.59   16.70
  -5   9  15   61.79   17.90
   4  -9 -15 1002.90   64.49
  -4   9  15  862.71   72.29
   3  -9 -15  -14.70   11.30
  -3   9  15   -1.70   14.60
  -2   9  15    3.80   12.20
  -1   9  15   16.50   18.10
   0   9  15  290.27   34.40
   1   9  15  192.08   32.10
   2   9  15   10.50   13.60
  10 -10 -15   61.79   20.80
 -10  10  15   71.89   29.20
   9 -10 -15  186.18   34.30
  -9  10  15  189.28   35.90
   8 -10 -15  612.64   50.19
  -8  10  15  593.04   54.59
   7 -10 -15  144.09   27.30
  -7  10  15  217.28   37.00
  -6  10  15 1203.18   74.89
   5 -10 -15 1006.50   66.19
  -5  10  15  956.50   65.39
   4 -10 -15    6.20   14.40
  -4  10  15   13.50   13.30
   3 -10 -15  240.18   39.70
  -3  10  15  157.48   49.10
   2 -10 -15   -3.10   11.80
  -1  10  15   75.69   22.30
   0  10  15   69.69   20.50
   9 -11 -15   60.09   21.40
  -9  11  15   -4.00   14.00
   8 -11 -15  196.88   35.30
  -8  11  15  213.28   36.30
   7 -11 -15  139.89   31.20
  -7  11  15  154.98   31.60
   6 -11 -15   20.50   22.10
  -6  11  15   58.09   18.80
   5 -11 -15  420.56   47.00
  -5  11  15  523.35   45.90
   4 -11 -15    0.80   14.50
  -4  11  15   11.30   14.60
   3 -11 -15  472.85   52.89
  -3  11  15  501.05   82.19
   2 -11 -15  249.68   41.90
   7 -12 -15   13.10   17.80
  -7  12  15   16.70   14.90
   6 -12 -15  285.37   45.70
  -6  12  15  216.78   35.90
  -5  12  15  849.41   58.59
   3 -11  16   -1.10   16.80
   3 -11  16   29.60   18.30
   4 -11  16   33.30   14.50
   4 -11  16  -11.70    9.40
   5 -11  16  -17.40   11.80
   5 -11  16    9.50   12.90
   6 -11  16   88.79   24.40
   6 -11  16  123.79   25.50
   7 -11  16   -5.20    8.10
   7 -11  16   15.00   13.90
   8 -11  16   23.50   15.50
   8 -11  16   31.00   15.00
   0 -10  16  140.09   25.50
   1 -10  16   -9.30   11.00
   1 -10  16   27.20   14.80
   1 -10  16  -33.10   15.30
   2 -10  16  149.88   26.00
   2 -10  16  107.29   23.40
   2 -10  16  100.19   22.40
   3 -10  16   24.30   14.40
   3 -10  16   40.80   14.40
   3 -10  16   22.60   14.40
   4 -10  16  204.98   29.80
   4 -10  16  147.59   27.40
   5 -10  16  262.27   33.00
   5 -10  16  295.57   31.30
   6 -10  16   51.99   15.40
   6 -10  16   39.10   17.40
   7 -10  16   27.50   14.70
   7 -10  16    7.90   12.10
   8 -10  16   74.09   17.70
   8 -10  16    9.60   13.70
   9 -10  16   80.29   21.70
   9 -10  16   81.09   24.80
  10 -10  16  117.99   26.50
  -1  -9  16   61.89   19.50
  -1  -9  16   40.40   16.20
  -1  -9  16   73.29   26.40
   0  -9  16  124.99   25.40
   0  -9  16   92.79   21.70
   0  -9  16  101.29   22.60
   1  -9  16   19.70   12.40
   1  -9  16   63.29   16.00
   1  -9  16    4.90   13.60
   2  -9  16   27.50   13.10
   2  -9  16   -5.00   11.40
   2  -9  16   26.60   12.00
   3  -9  16   34.00   12.90
   3  -9  16   31.50   12.00
   3  -9  16   21.30   10.60
   4  -9  16   25.80   14.00
   4  -9  16   -0.80    7.90
   5  -9  16  601.34   41.50
   5  -9  16  569.64   48.70
   6  -9  16  169.68   30.40
   6  -9  16  149.09   23.80
   7  -9  16  389.96   39.80
   7  -9  16  338.37   32.90
   8  -9  16   35.50   15.30
   8  -9  16   68.59   19.90
   9  -9  16   79.29   19.70
   9  -9  16  110.59   23.90
  10  -9  16   -2.10   12.40
  10  -9  16   -1.60   12.60
  -3  -8  16  -26.20   12.60
  -2  -8  16   61.69   17.10
  -2  -8  16   40.50   19.00
  -1  -8  16   30.90   14.20
  -1  -8  16   76.09   19.20
  -1  -8  16   58.19   17.10
   0  -8  16  470.45   42.60
   0  -8  16  357.96   32.80
   0  -8  16  469.85   36.90
   1  -8  16   64.39   21.20
   1  -8  16  159.98   23.60
   1  -8  16  137.99   21.40
   2  -8  16  261.07   26.10
   2  -8  16  268.17   31.20
   2  -8  16  267.57   25.70
   3  -8  16   12.50    8.20
   3  -8  16    4.20    9.20
   4  -8  16   66.59   15.60
   4  -8  16   83.99   19.60
   5  -8  16   41.50   11.20
   5  -8  16   58.29   16.90
   6  -8  16  -22.20    8.80
   6  -8  16   12.50    9.60
   7  -8  16  240.28   25.60
   7  -8  16  181.88   31.10
   8  -8  16  379.86   42.00
   8  -8  16  444.16   37.70
   9  -8  16   45.90   16.70
   9  -8  16   30.30   16.20
  10  -8  16  151.38   29.50
  10  -8  16  127.59   28.70
  11  -8  16   58.59   21.00
  11  -8  16    0.00   11.00
  -4  -7  16   13.90   16.30
  -3  -7  16   -6.20   14.20
  -2  -7  16  373.36   32.00
  -2  -7  16  326.67   36.30
  -1  -7  16  204.18   22.80
  -1  -7  16  276.17   25.90
  -1  -7  16  258.07   31.10
   0  -7  16    0.30   10.30
   0  -7  16   33.70   10.60
   1  -7  16    1.30    9.00
   1  -7  16   13.90    9.70
   1  -7  16   36.90   10.20
   2  -7  16  389.46   47.60
   2  -7  16  392.86   26.90
   2  -7  16  428.96   33.70
   3  -7  16  243.58   21.20
   3  -7  16  274.47   32.10
   4  -7  16   68.49   17.90
   4  -7  16   87.59   14.90
   5  -7  16  167.18   31.00
   5  -7  16  196.48   20.40
   6  -7  16   14.10    9.60
   6  -7  16    7.80    9.50
   7  -7  16   -0.90    9.20
   7  -7  16   38.80   15.70
   8  -7  16  135.79   29.70
   8  -7  16  165.28   25.70
  -9   7 -16   11.80   15.80
   9  -7  16   15.80    9.40
   9  -7  16   25.80   12.50
  10  -7  16  -25.00   13.40
  10  -7  16    8.70   13.30
  11  -7  16   12.00   15.90
  11  -7  16    1.50   15.70
  -5  -6  16  168.88   37.90
  -5  -6  16  159.08   31.60
  -4  -6  16   79.39   21.60
  -4  -6  16   14.40   13.70
  -3  -6  16  182.28   22.50
  -3  -6  16  150.78   28.10
  -2  -6  16   -5.50    9.10
  -2  -6  16   -2.00    9.00
  -1  -6  16   -7.00    7.70
  -1  -6  16   11.20   10.20
  -1  -6  16   17.00    8.20
   0  -6  16   35.90    8.40
   0  -6  16    6.30   11.00
   0  -6  16   57.29   11.00
   1  -6  16  608.74   29.60
   1  -6  16  611.04   30.20
   2  -6  16   27.90   18.10
   3  -6  16    6.60    5.50
   3  -6  16    2.10    9.30
   4  -6  16   36.70   14.10
   4  -6  16   66.59   11.30
   5  -6  16    6.60    7.80
   5  -6  16    4.10    6.20
   6  -6  16   22.30    9.80
   6  -6  16   14.30   10.20
   7  -6  16   29.60   14.60
   7  -6  16   13.80    9.30
  -8   6 -16  292.57   33.00
   8  -6  16  243.68   28.00
   8  -6  16  331.87   38.20
  -9   6 -16   29.80   16.30
   9  -6  16   39.50   14.90
   9  -6  16   24.40   13.50
  10  -6  16  193.58   37.30
  11  -6  16    3.10   15.90
  11  -6  16   44.30   19.70
  -6  -5  16   37.80   20.00
  -6  -5  16   17.20   14.80
  -5  -5  16  256.37   29.70
  -5  -5  16  239.98   39.80
  -4  -5  16  619.94   53.59
  -4  -5  16  669.93   41.80
  -3  -5  16   51.09   11.70
  -3  -5  16   51.39   19.20
  -2  -5  16  199.38   32.10
  -2  -5  16  172.78   17.10
  -1  -5  16    2.20    4.60
  -1  -5  16   11.30    5.40
  -1  -5  16   11.10   10.30
   0  -5  16   11.90    4.60
   0  -5  16   18.00    4.50
   1  -5  16  315.57   13.50
   1  -5  16  440.56   15.70
   1  -5  16  408.56   48.40
   2  -5  16    6.40    2.80
   2  -5  16   -1.70    2.20
   3  -5  16   19.90    5.20
   3  -5  16   21.50   11.60
   4  -5  16  113.79   23.90
   4  -5  16   76.79   11.50
   5  -5  16   15.60    9.40
   5  -5  16   15.90    6.40
   6  -5  16  677.13   54.59
  -7   5 -16  381.66   33.90
   7  -5  16  393.86   42.40
   7  -5  16  343.87   30.70
   8  -5  16   -5.00    9.40
   8  -5  16   -3.80    9.10
  -9   5 -16   12.70   15.50
   9  -5  16    6.50   10.90
   9  -5  16   21.20   12.10
  10  -5  16  274.17   56.09
  11  -5  16  156.18   28.00
  11  -5  16  101.49   29.50
  -7  -4  16   -6.80   12.90
  -6  -4  16  155.88   25.50
  -6  -4  16  185.58   33.90
  -5  -4  16   24.30   11.10
  -5  -4  16    8.50   13.90
  -4  -4  16  134.89   16.10
  -4  -4  16  114.39   27.80
  -3  -4  16   80.89   23.20
  -3  -4  16   67.79   11.10
  -2  -4  16   43.20    7.40
  -2  -4  16   43.90    7.30
  -2  -4  16   20.20   14.00
  -1  -4  16   52.39   19.10
   0  -4  16   23.90   11.20
   1  -4  16  862.21   61.19
   2  -4  16  289.87   47.20
   3  -4  16   64.69   19.90
   4  -4  16    9.80    8.70
   4  -4  16   24.30    6.40
   5  -4  16  373.66   25.40
   5  -4  16  313.47   35.80
  -6   4 -16    7.60    7.40
   6  -4  16    3.20    5.90
  -7   4 -16  268.17   28.50
   7  -4  16  310.47   28.60
   7  -4  16  294.27   36.10
  -8   4 -16   82.19   19.50
   8  -4  16  105.09   21.00
   8  -4  16   78.59   23.00
  -9   4 -16  527.65   45.00
   9  -4  16  525.35   53.69
   9  -4  16  573.84   45.40
  10  -4  16   45.00   25.00
  10  -4  16   34.80   17.40
  11  -4  16   -6.70   13.60
  -8  -3  16   28.30   18.90
  -7  -3  16   29.80   25.90
  -7  -3  16   48.90   22.10
  -6  -3  16   41.80   14.80
  -6  -3  16   33.40   17.10
  -5  -3  16   17.70    9.10
  -5  -3  16    7.90   12.20
  -4  -3  16  271.07   20.50
  -4  -3  16  285.87   36.30
  -3  -3  16   10.50    4.10
  -3  -3  16    0.20    8.20
  -2  -3  16    3.70    6.40
  -1  -3  16   70.19   30.90
   0  -3  16  483.85   43.30
   1  -3  16   19.40   11.20
   2  -3  16   91.79   27.90
   3  -3  16  469.55   45.60
   4  -3  16  874.51   33.70
   4  -3  16  865.31   59.79
  -5   3 -16    9.20    5.60
   5  -3  16   23.40   11.70
   5  -3  16    3.20    4.80
  -6   3 -16    1.70    7.40
   6  -3  16    8.60   11.50
  -7   3 -16   67.89   16.40
   7  -3  16   78.79   17.10
   7  -3  16   69.39   21.90
  -8   3 -16   94.99   20.50
   8  -3  16   27.00   16.30
   8  -3  16   32.20   11.90
  -9   3 -16  107.69   26.20
   9  -3  16  183.18   35.70
   9  -3  16  141.79   24.90
  10  -3  16   -4.10   12.40
  10  -3  16   19.70   13.10
  11  -3  16    8.80   15.20
  -8  -2  16  148.19   24.90
  -8  -2  16   82.39   22.70
  -7  -2  16   31.90   15.00
  -7  -2  16   20.10   13.70
  -6  -2  16  321.17   39.70
  -6  -2  16  320.37   26.60
  -5  -2  16  383.56   42.30
  -5  -2  16  422.96   26.90
  -4  -2  16   14.40   10.10
  -4  -2  16    1.90    4.10
  -2  -2  16  330.07   34.60
  -1  -2  16  124.39   30.80
   0  -2  16  183.08   30.30
   1  -2  16   10.30    9.20
   2  -2  16  199.68   39.40
   3  -2  16   -1.20    9.90
  -4   2 -16  305.97   19.40
   4  -2  16  319.67   35.70
  -5   2 -16   10.70    6.00
   5  -2  16    2.60    5.80
   5  -2  16    9.10    6.30
  -6   2 -16   54.89   12.80
   6  -2  16   49.60   19.40
   6  -2  16   45.70   13.40
  -7   2 -16  172.88   25.40
   7  -2  16  201.68   25.00
   7  -2  16  188.08   34.50
  -8   2 -16   41.10   16.10
   8  -2  16   -3.00    9.70
   8  -2  16    0.20   10.70
   9  -2  16  429.36   48.30
   9  -2  16  320.87   36.20
  10  -2  16   33.70   18.90
  10  -2  16   61.89   19.10
  -9  -1  16    5.70   17.70
  -9  -1  16    2.50   12.20
  -8  -1  16    6.70   14.70
  -8  -1  16   32.50   17.50
  -7  -1  16  122.29   19.90
  -7  -1  16  135.09   30.10
  -6  -1  16   20.90   10.20
  -6  -1  16   20.70   12.40
  -5  -1  16  635.84   30.30
  -5  -1  16  590.24   50.99
  -4  -1  16  439.06   43.30
  -3  -1  16  851.71   60.49
  -2  -1  16   12.50    7.00
  -1  -1  16   12.90    9.90
   0  -1  16   72.79   19.10
   1  -1  16   53.49   17.50
   2  -1  16   43.50   22.60
  -3   1 -16  118.79    8.20
   3  -1  16   99.09   23.10
  -4   1 -16   82.59   12.60
   4  -1  16   40.40   16.70
  -5   1 -16   83.99   15.40
   5  -1  16   55.09   19.40
  -6   1 -16   19.80    9.10
   6  -1  16   11.40    8.30
   6  -1  16   -3.60   10.80
  -7   1 -16   24.70   11.00
   7  -1  16    9.10   11.80
   7  -1  16  -10.70   10.50
  -8   1 -16  224.98   33.30
   8  -1  16  185.78   31.20
   8  -1  16  267.47   42.40
   9  -1  16   46.60   24.60
   9  -1  16   44.00   14.00
  10  -1  16   78.69   21.40
  10  -1  16   77.29   25.10
  10   0 -16  112.49   25.40
   9   0 -16  126.79   24.30
  -9   0  16   90.19   28.60
  -9   0  16   83.79   21.70
  -8   0  16  400.86   34.60
  -8   0  16  531.15   50.39
  -7   0  16   23.60   10.30
  -7   0  16   20.30   11.70
  -6   0  16   51.19   10.90
  -6   0  16    1.70    9.90
  -5   0  16   25.10   13.30
  -5   0  16   23.50    5.50
  -4   0  16   12.90   12.40
  -3   0  16  523.55   46.30
  -2   0  16  216.58   49.10
  -1   0  16   54.09   15.90
   0   0  16  516.15   44.90
   1   0  16   48.80   17.00
  -3   0 -16  511.75   24.70
   3   0  16  484.25   44.30
  -4   0 -16   10.80    6.90
   4   0  16   25.50   13.90
  -5   0 -16    9.80    9.00
   5   0  16   10.30   10.20
  -6   0 -16   62.29   16.10
   6   0  16   28.60   15.30
  -7   0 -16   37.50   16.70
   7   0  16   12.80   14.10
   8   0  16  471.75   51.29
   8   0  16  464.55   44.00
   9   0  16   98.59   24.50
   9   0  16  116.89   30.10
  10   0  16  111.89   26.70
  10  -1 -16   96.89   25.80
   9  -1 -16   35.70   16.70
  -9   1  16   36.20   20.40
   8  -1 -16  260.87   26.90
  -8   1  16  210.48   39.30
  -8   1  16  193.58   26.80
   7  -1 -16   15.50    9.70
  -7   1  16    0.20    7.80
  -7   1  16   -6.20   11.20
   6  -1 -16    7.60    6.00
  -6   1  16    9.40    9.50
  -6   1  16    1.30    6.20
  -5   1  16  122.59   26.70
  -4   1  16   30.80   14.70
  -3   1  16   96.89   23.80
  -1   1  16   94.79   22.60
   0   1  16   41.20   13.90
   1   1  16   29.80   14.70
  -2  -1 -16   24.50    5.50
   2   1  16   10.20    8.40
  -3  -1 -16  916.71   40.70
   3   1  16  837.62   60.49
  -4  -1 -16  405.26   29.50
   4   1  16  377.76   41.20
   5   1  16  720.53   58.09
  -6  -1 -16   36.40   13.50
   6   1  16   30.80   13.80
  -7  -1 -16   74.89   23.20
   7   1  16  149.59   33.30
   8   1  16   17.40   15.40
   9   1  16  -14.40   12.90
  10  -2 -16   39.60   17.90
 -10   2  16   95.89   27.10
 -10   2  16   53.59   18.10
   9  -2 -16  382.66   35.30
  -9   2  16  308.17   33.50
  -9   2  16  316.17   51.69
   8  -2 -16   -2.10   10.00
  -8   2  16   17.60   11.80
  -8   2  16    8.30    9.50
  -7   2  16  185.68   35.30
  -7   2  16  175.58   19.90
   6  -2 -16   53.59   11.00
  -6   2  16   21.30   13.30
   5  -2 -16   -1.90    3.70
  -5   2  16    3.80    5.80
  -4   2  16  363.36   38.70
  -3   2  16   -1.50   10.90
  -1   2  16   35.50   15.00
   0   2  16  215.38   35.30
  -1  -2 -16  127.29   11.10
   1   2  16  137.59   40.30
  -2  -2 -16  312.47   22.60
   2   2  16  287.77   34.30
  -3  -2 -16   -3.00    6.00
   3   2  16   12.70   10.10
  -4  -2 -16   -7.50    6.10
   4   2  16  -12.00    7.90
  -5  -2 -16  406.46   37.40
   5   2  16  423.66   44.10
  -6  -2 -16  219.08   33.20
   6   2  16  275.27   44.60
   7   2  16    7.40   14.60
  11  -3 -16    5.90   16.10
  10  -3 -16    5.30   15.10
 -10   3  16   24.30   15.30
   9  -3 -16  121.09   21.90
  -9   3  16  122.49   33.90
  -9   3  16  131.39   23.90
   8  -3 -16   53.79   13.10
  -8   3  16   49.40   17.90
  -8   3  16   36.90   13.50
  -7   3  16   13.60   13.20
   6  -3 -16    0.50    5.40
  -6   3  16   12.20   12.30
   5  -3 -16    7.80    4.60
  -5   3  16   -4.60    4.00
   4  -3 -16  748.43   26.80
  -4   3  16  819.32   59.59
   3  -3 -16  518.95   17.50
  -3   3  16  437.46   42.00
   1  -3 -16   18.10    5.10
   1  -3 -16   10.50    4.40
   0  -3 -16  500.85   26.20
   0  -3 -16  536.25   27.20
  -1  -3 -16   75.29   12.70
   1   3  16  112.89   25.30
  -2  -3 -16    7.00    8.40
   2   3  16   20.80   10.90
  -3  -3 -16  -15.40    6.20
   3   3  16  -17.00    9.70
  -4  -3 -16  272.57   30.50
   4   3  16  336.37   39.10
  -5  -3 -16    8.10   13.50
   5   3  16    3.60   13.50
   6   3  16   15.30   11.30
   7   3  16  -28.30   12.10
   8   3  16   14.20   15.00
 -11   4  16    2.50   14.60
  10  -4 -16   32.50   15.50
 -10   4  16   59.89   23.30
 -10   4  16   37.70   17.10
   9  -4 -16  618.24   43.50
  -9   4  16  608.84   57.79
   8  -4 -16  118.99   19.60
  -8   4  16  135.69   30.90
   7  -4 -16  286.87   25.30
  -7   4  16  301.57   38.30
   6  -4 -16    1.00    6.00
  -6   4  16    7.30   11.30
   5  -4 -16  368.16   23.30
  -5   4  16  365.26   40.40
   4  -4 -16   22.10    6.50
  -4   4  16   33.40   15.90
   3  -4 -16   69.59   10.60
   3  -4 -16   62.39    9.50
  -3   4  16   68.29   20.50
   2  -4 -16  342.47   21.40
   2  -4 -16  337.17   21.10
  -2   4  16  336.27   53.79
   1  -4 -16  905.51   41.00
   1  -4 -16  892.11   41.20
   0  -4 -16   29.20    9.90
   0   4  16    3.80    8.20
  -1  -4 -16   75.59   15.30
   1   4  16   55.69   17.30
  -2  -4 -16   62.89   15.50
   2   4  16   43.10   18.00
  -3  -4 -16   49.50   15.30
   3   4  16   77.29   23.00
  -4  -4 -16  128.89   26.90
   4   4  16  132.09   27.90
   5   4  16  -25.30   10.70
   6   4  16  162.88   33.10
   7   4  16   -2.70   13.10
  11  -5 -16  112.69   26.70
 -11   5  16   80.19   27.70
  10  -5 -16  269.27   31.00
 -10   5  16  167.98   28.00
   9  -5 -16   23.80   12.20
  -9   5  16    1.90    9.90
   8  -5 -16  -15.80    8.10
  -8   5  16    7.80   10.40
   7  -5 -16  410.56   30.80
  -7   5  16  411.66   45.60
  -6   5  16  634.64   54.09
   5  -5 -16   32.20    9.10
  -5   5  16   15.30   11.40
   4  -5 -16   57.19   12.70
  -4   5  16   99.49   23.10
   3  -5 -16   12.60    7.10
  -3   5  16   -2.00    7.80
   2  -5 -16    8.70    6.30
   2  -5 -16    6.30    7.30
  -2   5  16   -8.70    8.20
   1  -5 -16  412.06   29.60
  -1   5  16  405.26   40.60
   0  -5 -16    2.40   10.00
   0   5  16   31.90   13.10
  -1  -5 -16   42.30   12.10
   1   5  16   23.50   13.70
  -2  -5 -16  212.38   30.90
   2   5  16  176.68   32.20
  -3  -5 -16   30.40   16.70
   3   5  16   86.29   25.20
   4   5  16  745.33   59.39
   5   5  16  215.28   39.50
   6   5  16   31.60   18.70
  11  -6 -16  -14.70   12.40
 -11   6  16  -23.60   16.90
  10  -6 -16  208.08   26.50
 -10   6  16  187.38   37.80
   9  -6 -16   40.00   13.20
  -9   6  16   42.40   20.00
   8  -6 -16  258.17   28.00
  -8   6  16  280.37   43.80
   7  -6 -16   15.90    8.30
  -7   6  16   10.70   13.40
   6  -6 -16   25.10   12.40
  -6   6  16   49.60   18.50
   5  -6 -16   12.20    8.40
  -5   6  16    9.30   13.00
   4  -6 -16   52.49   13.30
  -4   6  16   39.30   16.10
   3  -6 -16    8.00    8.10
  -3   6  16    9.90   10.70
   2  -6 -16    6.40    7.00
   2  -6 -16   10.80    8.00
  -2   6  16   14.70    9.20
   1  -6 -16  697.53   44.10
   1  -6 -16  625.74   43.40
  -1   6  16  770.22   55.29
   0  -6 -16   35.80   13.70
   0   6  16   48.40   16.90
  -1  -6 -16   38.80   13.40
   1   6  16    7.90   10.90
  -2  -6 -16   -0.10   11.70
   2   6  16   -5.90   11.20
   3   6  16  100.09   27.60
   4   6  16   32.10   17.10
   5   6  16   83.69   27.40
  11  -7 -16  -15.20   12.70
 -11   7  16   20.60   19.50
  10  -7 -16   59.59   18.30
 -10   7  16   21.30   16.40
   9  -7 -16   28.30   13.30
  -9   7  16   18.40   15.70
   8  -7 -16  112.99   22.00
  -8   7  16  131.29   29.30
   7  -7 -16   26.10    9.90
  -7   7  16   27.00   13.70
   6  -7 -16   22.50   11.00
  -6   7  16   -0.40    9.10
   5  -7 -16  225.08   24.80
  -5   7  16  196.88   33.70
   4  -7 -16   72.99   17.50
  -4   7  16   89.49   21.80
   3  -7 -16  275.17   29.10
  -3   7  16  298.97   35.10
   2  -7 -16  387.56   34.90
   2  -7 -16  424.96   37.30
  -2   7  16  404.86   39.40
   1  -7 -16   76.99   17.70
  -1   7  16    4.40   12.00
   0  -7 -16   12.30   14.80
   0   7  16   -3.30    8.90
  -1  -7 -16  203.88   34.30
   1   7  16  218.68   35.20
   2   7  16  314.17   38.30
   3   7  16   -7.10   10.50
   4   7  16   11.70   16.80
  11  -8 -16   38.80   18.30
 -11   8  16   36.30   19.90
  10  -8 -16  138.69   25.90
 -10   8  16  141.09   33.80
   9  -8 -16   64.59   18.30
  -9   8  16   45.00   20.40
  -8   8  16  418.66   48.00
   7  -8 -16  219.28   27.50
  -7   8  16  249.58   39.40
   6  -8 -16   16.90   11.10
  -6   8  16  -22.60    9.00
   5  -8 -16   77.29   19.20
  -5   8  16   51.29   17.60
   4  -8 -16   65.89   16.80
  -4   8  16   90.49   21.30
   3  -8 -16    6.90   10.30
  -3   8  16   11.40   11.70
   2  -8 -16  313.17   32.20
   2  -8 -16  304.17   35.90
  -2   8  16  257.77   32.70
   1  -8 -16  142.79   26.30
  -1   8  16  100.29   22.80
   0   8  16  484.85   46.30
   1   8  16   52.69   18.40
   2   8  16   38.30   21.60
   3   8  16  -14.50   13.90
 -10   9  16  -16.20   13.70
   9  -9 -16  176.58   28.80
  -9   9  16   49.00   17.40
   8  -9 -16   58.89   18.50
  -8   9  16   77.29   21.40
   7  -9 -16  334.37   36.20
  -7   9  16  320.27   40.20
   6  -9 -16  163.58   28.50
  -6   9  16  163.08   31.40
   5  -9 -16  626.74   49.20
  -5   9  16  609.64   51.79
   4  -9 -16   -1.30   12.10
  -4   9  16    8.90   12.60
   3  -9 -16   52.69   17.10
  -3   9  16   19.80   18.00
  -2   9  16   11.30   13.10
  -1   9  16   43.90   17.50
   0   9  16  117.59   24.60
   1   9  16   67.49   21.20
  10 -10 -16  112.29   27.10
   9 -10 -16   77.69   23.00
  -9  10  16  108.49   29.80
   8 -10 -16   40.90   18.10
  -8  10  16   57.39   21.60
   7 -10 -16   15.90   12.90
  -7  10  16   -2.90   14.20
   6 -10 -16   19.80   16.70
  -6  10  16   47.70   18.30
   5 -10 -16  271.87   32.90
  -5  10  16  270.97   34.90
   4 -10 -16  147.59   31.50
  -4  10  16  204.58   34.70
   3 -10 -16   49.90   21.00
  -3  10  16   34.10   15.10
   2 -10 -16   90.59   29.10
  -2  10  16  128.69   27.60
  -1  10  16  -32.90   13.10
   8 -11 -16  -23.90   15.30
  -8  11  16    6.20   16.80
   7 -11 -16    6.90   15.40
  -7  11  16   -3.20   13.30
   6 -11 -16  132.79   29.70
  -6  11  16  112.69   26.90
   5 -11 -16   -8.70   14.60
  -5  11  16    5.10   15.50
  -4  11  16  -10.60   15.10
   3 -11 -16  -23.10   28.00
  -3  11  16   20.30   17.60
   2 -10  17    9.50   12.40
   2 -10  17   28.60   13.10
   3 -10  17  268.17   30.20
   3 -10  17  269.37   32.70
   4 -10  17   63.89   19.40
   4 -10  17  100.59   22.30
   5 -10  17  236.48   26.60
   5 -10  17  236.08   35.10
   6 -10  17    9.10   12.30
   6 -10  17   37.70   15.30
   7 -10  17    0.60   11.10
   7 -10  17   16.90   11.00
   8 -10  17   54.49   20.80
   8 -10  17  101.99   23.90
   0  -9  17   83.39   21.60
   0  -9  17   64.49   18.60
   1  -9  17   87.19   20.10
   1  -9  17  136.69   23.70
   1  -9  17  115.49   24.90
   2  -9  17   88.09   22.40
   2  -9  17   84.89   19.10
   2  -9  17   97.09   19.70
   3  -9  17    0.40   10.50
   3  -9  17  -11.60    8.40
   3  -9  17   27.10   11.90
   4  -9  17   11.80   10.70
   4  -9  17  -11.70    8.70
   5  -9  17   38.30   18.40
   5  -9  17   53.29   14.90
   6  -9  17   -4.00   12.30
   6  -9  17   -6.50    9.40
   7  -9  17    2.50   15.20
   7  -9  17   -8.60   10.60
   8  -9  17  110.79   21.30
   8  -9  17  103.59   27.20
   9  -9  17   77.19   21.70
   9  -9  17   97.99   23.70
  -2  -8  17   55.69   20.00
  -2  -8  17   79.59   18.90
  -1  -8  17   75.49   21.20
  -1  -8  17  134.19   22.10
  -1  -8  17  123.79   27.00
   0  -8  17   38.10   14.80
   0  -8  17   48.80   17.60
   0  -8  17   53.99   16.00
   1  -8  17   24.60   10.90
   1  -8  17   17.50    9.60
   1  -8  17   22.40   13.40
   2  -8  17  -15.40   10.60
   2  -8  17   10.90   12.20
   2  -8  17   29.10   11.10
   3  -8  17   11.10   11.20
   3  -8  17   19.40    9.20
   4  -8  17   23.70   13.20
   4  -8  17   49.70   12.00
   5  -8  17   -1.30    8.60
   5  -8  17   -2.70   11.20
   6  -8  17   -8.90    8.80
   6  -8  17   13.60    7.70
   7  -8  17  128.89   22.10
   7  -8  17  127.99   26.40
   8  -8  17   52.39   16.30
   8  -8  17   56.99   20.30
   9  -8  17  107.29   25.10
   9  -8  17   77.39   21.10
  10  -8  17  -18.80    8.50
  10  -8  17   -3.80   12.70
  -3  -7  17  -19.00   12.50
  -2  -7  17   24.20   13.40
  -2  -7  17   46.50   18.00
  -2  -7  17   26.00   10.50
  -1  -7  17  151.08   26.90
  -1  -7  17  134.29   27.40
  -1  -7  17  186.78   20.40
   0  -7  17   17.20   13.60
   0  -7  17   38.40   11.00
   0  -7  17   53.99   12.00
   1  -7  17   84.39   13.40
   1  -7  17   85.09   21.20
   1  -7  17   48.50   19.40
   2  -7  17  345.97   36.70
   2  -7  17  243.18   19.50
   2  -7  17  253.57   20.70
   3  -7  17   99.09   14.50
   3  -7  17  124.29   23.70
   3  -7  17  111.49   13.60
   4  -7  17  434.76   41.80
   4  -7  17  448.46   27.90
   5  -7  17  -10.30    7.90
   5  -7  17   -1.60    7.60
   6  -7  17  139.89   20.50
   6  -7  17  107.29   25.00
   7  -7  17   67.39   14.60
   7  -7  17   23.30   12.50
   8  -7  17   14.70   11.50
   8  -7  17   52.29   18.50
   9  -7  17  121.99   23.60
   9  -7  17  125.39   30.80
  10  -7  17  305.57   38.80
  10  -7  17  277.57   48.00
  -4  -6  17   19.80   15.40
  -3  -6  17   -5.60   10.30
  -3  -6  17    5.20   10.70
  -2  -6  17    2.60    6.60
  -2  -6  17  -23.40    8.00
  -2  -6  17    9.60   12.00
  -1  -6  17  130.19   15.40
  -1  -6  17  190.68   32.00
  -1  -6  17  139.09   15.40
   0  -6  17   71.79   10.40
   0  -6  17  100.59   21.80
   0  -6  17   80.39    9.70
   1  -6  17   59.79    8.30
   1  -6  17   77.49    8.70
   1  -6  17   53.39   17.00
   2  -6  17    3.30    4.40
   2  -6  17   -6.30   10.00
   2  -6  17    9.40    4.30
   3  -6  17   -1.40    3.80
   3  -6  17    3.90    4.60
   3  -6  17   -9.60    8.60
   4  -6  17  874.61   37.60
   4  -6  17  887.21   62.09
   5  -6  17  457.55   28.70
   5  -6  17  498.35   45.70
   6  -6  17   97.39   25.80
   7  -6  17   82.39   16.40
   7  -6  17   45.10   16.10
   8  -6  17   28.70   14.80
   8  -6  17   30.90   12.10
  -9   6 -17   20.90   15.60
   9  -6  17  -27.20   10.00
   9  -6  17   -9.10   10.70
  10  -6  17   96.79   25.50
  -5  -5  17  235.38   38.40
  -5  -5  17  256.97   34.40
  -4  -5  17   30.30   16.50
  -4  -5  17   31.80   12.10
  -3  -5  17   13.90   11.50
  -2  -5  17    1.10    4.50
  -2  -5  17    1.60   10.30
  -2  -5  17    0.70    4.50
  -1  -5  17  460.35   16.70
  -1  -5  17  450.55   44.70
  -1  -5  17  401.96   15.70
   0  -5  17   72.89   19.00
   1  -5  17   40.80   15.30
   2  -5  17   23.90   12.20
   3  -5  17  328.37   37.40
   4  -5  17   11.20    9.60
   4  -5  17   21.30    6.10
   5  -5  17   52.79   18.30
   5  -5  17   61.29   10.90
   6  -5  17   82.79   15.60
   6  -5  17   46.20   16.30
   7  -5  17  295.87   27.50
   7  -5  17  336.47   40.00
  -8   5 -17   -0.70   11.10
   8  -5  17   -6.50    5.50
   8  -5  17    8.80    8.80
  -9   5 -17   37.60   16.10
   9  -5  17  -15.70   11.70
   9  -5  17   -0.40    9.60
  10  -5  17  210.78   41.60
  10  -5  17  224.58   41.00
  -6  -4  17   64.29   22.90
  -5  -4  17   -7.90    9.90
  -5  -4  17   -1.40   10.50
  -4  -4  17   80.69   23.90
  -3  -4  17  383.26   21.30
  -3  -4  17  425.16   43.90
  -3  -4  17  331.07   19.40
  -2  -4  17  831.62   60.19
  -1  -4  17   10.10    9.20
   0  -4  17   18.00   11.90
   1  -4  17   98.09   23.70
   2  -4  17  136.69   28.50
   3  -4  17   37.20   17.40
   4  -4  17   23.90    4.40
   4  -4  17   31.40   15.20
   5  -4  17   27.10    7.70
   5  -4  17   44.80   16.70
   6  -4  17    6.30   10.50
   6  -4  17    7.10    6.50
  -7   4 -17  111.89   20.60
   7  -4  17  104.09   26.60
   7  -4  17  113.29   18.70
  -8   4 -17   20.00   16.40
   8  -4  17   30.90   11.50
   8  -4  17   35.90   16.00
  -9   4 -17   -1.30   16.00
   9  -4  17   61.79   17.40
   9  -4  17   28.30   14.60
  10  -4  17   34.00   17.20
  10  -4  17  -20.60   13.00
  -7  -3  17  244.08   52.99
  -6  -3  17   16.20   12.50
  -6  -3  17   11.70   11.00
  -5  -3  17   11.90   10.30
  -4  -3  17   92.89   11.10
  -4  -3  17  126.09   28.30
  -3  -3  17  -16.40    8.60
  -2  -3  17  298.87   36.00
  -1  -3  17   56.49   17.90
   0  -3  17  203.48   33.60
   1  -3  17   66.99   18.30
   2  -3  17   33.80   14.80
   3  -3  17  259.97   32.30
   4  -3  17  114.99   25.50
   5  -3  17   15.40   13.90
   5  -3  17   18.40    6.60
  -6   3 -17   -4.50    7.90
   6  -3  17   -8.00    6.90
   6  -3  17   -5.70    7.60
  -7   3 -17  434.76   34.80
   7  -3  17  393.66   32.80
   7  -3  17  361.96   42.20
  -8   3 -17  -16.00   10.90
   8  -3  17   11.60   12.50
   8  -3  17   11.00   11.00
  -9   3 -17   17.10   16.80
   9  -3  17   -0.20    9.50
  10  -3  17   -1.20   12.80
  10  -3  17   -4.20   14.80
  -8  -2  17  -22.20   13.70
  -7  -2  17   73.59   16.50
  -7  -2  17  129.99   31.40
  -6  -2  17   29.60   10.30
  -6  -2  17   43.70   17.40
  -5  -2  17  291.47   19.60
  -5  -2  17  230.78   39.70
  -4  -2  17    8.70   11.50
  -3  -2  17   24.60   13.90
  -2  -2  17  127.79   25.80
  -1  -2  17   27.30   11.60
   0  -2  17   67.49   20.10
   1  -2  17   59.39   17.40
   2  -2  17   68.39   19.10
   3  -2  17   38.30   15.30
   4  -2  17  188.58   33.60
  -5   2 -17  299.57   23.40
   5  -2  17  399.16   42.00
  -6   2 -17  866.71   47.10
   6  -2  17  986.10   69.79
   6  -2  17  877.41   47.30
  -7   2 -17  -10.20   11.10
   7  -2  17    3.40    9.10
   7  -2  17   -3.90   11.20
  -8   2 -17  -14.60   13.90
   8  -2  17  -14.30    7.80
   8  -2  17   -0.50   11.20
   9  -2  17   -1.90    9.60
   9  -2  17   58.69   16.90
  10  -2  17   90.59   26.60
  10  -2  17  113.29   28.50
  -8  -1  17  130.29   22.90
  -8  -1  17  135.89   34.20
  -7  -1  17   17.00   15.40
  -7  -1  17   22.00   10.30
  -6  -1  17  100.59   25.60
  -6  -1  17   73.59   12.80
  -5  -1  17   64.09   20.80
  -5  -1  17   74.39    8.50
  -4  -1  17   31.30   14.70
  -3  -1  17  116.89   25.40
  -2  -1  17   59.29   19.40
  -1  -1  17   39.20   15.30
   0  -1  17  416.86   41.60
   1  -1  17  395.66   39.80
   2  -1  17   43.10   15.00
   3  -1  17   44.60   16.60
  -4   1 -17   63.49   10.90
   4  -1  17   80.49   21.80
  -5   1 -17   18.70    9.40
   5  -1  17   11.10   13.20
  -6   1 -17  494.35   36.60
   6  -1  17  445.26   47.50
  -7   1 -17  166.78   26.90
   7  -1  17  157.48   26.20
   7  -1  17  158.98   33.30
  -8   1 -17  131.99   26.40
   8  -1  17  164.38   34.00
   8  -1  17  152.28   27.50
   9  -1  17  144.99   28.00
   9  -1  17   87.39   25.90
  -9   0  17   40.10   25.70
  -8   0  17   48.60   21.10
  -8   0  17   78.69   16.40
  -7   0  17   46.30   12.60
  -7   0  17   79.59   23.30
  -6   0  17   96.99   26.80
  -6   0  17   99.59   14.20
  -5   0  17   41.60   15.80
  -4   0  17   10.90    9.00
  -3   0  17  182.18   31.80
  -2   0  17   51.29   17.10
  -1   0  17  368.26   38.50
   0   0  17    1.00    6.60
   1   0  17  353.36   37.70
   2   0  17   78.39   22.00
  -3   0 -17  250.17   14.80
   3   0  17  222.18   36.90
  -4   0 -17   33.40    9.10
   4   0  17   19.90   12.00
  -5   0 -17   60.69   13.60
   5   0  17   62.19   19.20
  -6   0 -17  105.59   20.20
   6   0  17   70.79   21.20
  -7   0 -17   41.40   15.90
   7   0  17  -20.80    9.30
   8   0  17   21.10   18.30
   9   0  17   83.89   30.50
   9  -1 -17  100.69   21.70
  -9   1  17  119.39   29.40
  -9   1  17   79.89   20.40
   8  -1 -17   74.69   17.40
  -8   1  17  109.99   19.80
  -8   1  17  136.29   33.00
  -7   1  17   58.19   21.00
  -6   1  17  542.05   51.79
  -5   1  17   17.90   11.80
  -4   1  17   51.89   18.30
  -3   1  17   22.20   10.50
  -2   1  17   51.19   16.30
  -1   1  17  369.26   38.50
   0   1  17  350.96   37.90
   1   1  17   38.50   14.60
  -2  -1 -17   61.49    6.20
   2   1  17   39.50   14.80
  -3  -1 -17   93.99   11.60
   3   1  17  134.09   28.00
  -4  -1 -17   24.80    9.90
   4   1  17   49.60   18.50
  -5  -1 -17   68.79   17.30
   5   1  17  105.19   26.70
  -6  -1 -17   92.29   21.00
   6   1  17   80.99   23.80
  -7  -1 -17   22.90   17.60
   7   1  17   24.70   15.90
   8   1  17  115.39   30.10
  10  -2 -17   76.19   22.90
 -10   2  17   92.49   28.80
   9  -2 -17   -5.10   13.10
  -9   2  17   47.10   14.30
  -9   2  17   40.30   19.00
   8  -2 -17   18.30    8.60
  -8   2  17    5.40    9.90
  -8   2  17  -10.70   10.40
   7  -2 -17   -0.50    7.10
  -7   2  17   -6.80   10.90
   6  -2 -17  891.01   37.10
  -6   2  17  924.71   67.79
  -5   2  17  364.26   39.70
  -4   2  17  132.09   27.30
  -3   2  17   90.69   24.40
  -2   2  17  115.49   25.90
  -1   2  17   41.30   17.20
   0   2  17   70.59   18.90
  -1  -2 -17   22.70    4.40
  -1  -2 -17   27.80    4.90
   1   2  17   -0.10   11.30
  -2  -2 -17  170.58   15.60
   2   2  17  147.29   29.90
  -3  -2 -17   21.40    7.80
   3   2  17    6.60   12.10
  -4  -2 -17   16.20    9.40
   4   2  17   24.70   12.50
  -5  -2 -17  313.37   31.40
   5   2  17  400.46   44.50
  -6  -2 -17   11.00   16.10
   6   2  17   60.99   22.90
   7   2  17   93.99   26.60
   8   2  17   -1.00   13.00
  10  -3 -17    7.30   12.00
 -10   3  17  -15.10   16.40
 -10   3  17   39.60   25.70
   9  -3 -17   -3.30    9.60
  -9   3  17   -8.80   10.60
   8  -3 -17   23.20   11.80
  -8   3  17    2.90    9.10
   7  -3 -17  419.56   29.20
  -7   3  17  409.76   45.60
   6  -3 -17    7.60    5.80
  -6   3  17   10.40   10.40
   5  -3 -17    4.80    4.40
  -5   3  17  -14.30    7.00
  -4   3  17   99.79   25.80
  -3   3  17  190.38   33.10
  -2   3  17   10.00   10.80
  -1   3  17   59.19   18.60
   0  -3 -17  223.88   15.20
   0  -3 -17  254.27   15.80
   0   3  17  240.48   36.90
  -1  -3 -17   62.89   11.20
   1   3  17   97.59   23.60
  -2  -3 -17  376.76   27.80
   2   3  17  316.27   37.90
  -3  -3 -17   10.10    9.10
   3   3  17   -3.10   10.70
  -4  -3 -17   86.59   19.40
   4   3  17  116.29   25.50
  -5  -3 -17  -23.10   13.60
   5   3  17   15.00   11.90
   6   3  17   28.00   18.30
   7   3  17  196.48   51.79
  10  -4 -17   29.00   15.30
 -10   4  17   49.40   20.30
 -10   4  17   50.69   23.20
   9  -4 -17   23.80   14.10
  -9   4  17   -4.90   10.40
   8  -4 -17   37.60   11.50
  -8   4  17   37.20   15.00
  -7   4  17   95.69   27.40
   6  -4 -17   -2.80    5.50
  -6   4  17    1.10   11.00
   5  -4 -17   43.50    7.90
  -5   4  17   50.49   18.50
   4  -4 -17   20.30    5.20
  -4   4  17   43.20   15.10
   3  -4 -17   60.39    8.10
   3  -4 -17   51.39    8.50
  -3   4  17   51.69   18.80
   2  -4 -17  179.88   13.50
   2  -4 -17  192.68   15.30
  -2   4  17  190.58   32.60
   1  -4 -17  126.19   13.30
   1  -4 -17  125.19   13.80
  -1   4  17  127.69   27.30
   0  -4 -17   12.20    8.20
   0  -4 -17   12.10    8.50
   0   4  17   18.30   12.40
  -1  -4 -17    5.70    8.70
   1   4  17   32.30   15.10
  -2  -4 -17  882.21   49.30
   2   4  17  858.71   63.69
  -3  -4 -17  394.76   35.80
   3   4  17  401.16   42.90
  -4  -4 -17   76.79   20.30
   4   4  17   32.70   13.80
   5   4  17   18.50   11.20
   6   4  17   69.49   24.40
  10  -5 -17  240.58   34.50
 -10   5  17  278.17   47.80
   9  -5 -17   18.70   11.10
  -9   5  17   -2.60   12.30
   8  -5 -17   -2.90    8.30
  -8   5  17   29.20   14.60
   7  -5 -17  274.27   24.30
  -7   5  17  256.77   41.20
   6  -5 -17   98.69   15.70
  -6   5  17   54.09   17.30
   5  -5 -17   50.79   10.70
  -5   5  17   47.50   17.80
   4  -5 -17   17.90    6.60
  -4   5  17   35.40   15.90
   3  -5 -17  310.07   23.40
   3  -5 -17  342.87   23.60
  -3   5  17  287.27   36.00
   2  -5 -17   22.20    8.20
   2  -5 -17   26.20    9.30
  -2   5  17   23.60   13.40
   1  -5 -17   46.80   14.10
   1  -5 -17   33.70   11.90
  -1   5  17   37.80   16.70
   0  -5 -17   81.39   16.80
   0   5  17   37.00   16.50
  -1  -5 -17  486.05   38.10
   1   5  17  583.54   50.39
  -2  -5 -17   14.90   12.20
   2   5  17   -7.10   11.00
  -3  -5 -17   -1.50   14.70
   3   5  17    1.40   12.00
   4   5  17   72.19   23.50
   5   5  17  231.08   40.70
  10  -6 -17   74.29   20.90
 -10   6  17   73.59   26.80
   9  -6 -17    3.20   11.30
  -9   6  17   -2.90    9.10
   8  -6 -17   39.60   12.70
  -8   6  17    8.30   14.50
   7  -6 -17   56.39   14.30
  -7   6  17   81.89   26.20
   6  -6 -17  104.99   17.40
  -6   6  17   82.69   22.30
   5  -6 -17  530.95   33.90
  -5   6  17  514.25   48.90
   4  -6 -17  958.10   47.10
  -4   6  17  930.21   65.49
   3  -6 -17    6.30    9.80
   3  -6 -17   -2.50    7.10
  -3   6  17   -5.80    6.60
   2  -6 -17    7.20    8.30
   2  -6 -17   26.20   10.30
  -2   6  17   22.20   11.30
   1  -6 -17   43.50   14.90
   1  -6 -17   57.39   15.00
  -1   6  17   74.29   20.80
   0  -6 -17  117.99   24.20
   0   6  17  103.69   25.60
  -1  -6 -17   88.89   22.50
   1   6  17  186.68   31.80
  -2  -6 -17   -2.60   15.10
   2   6  17   24.40   10.30
   3   6  17   21.70   12.60
   4   6  17   20.90   16.80
  10  -7 -17  371.26   38.00
 -10   7  17  235.88   45.80
   9  -7 -17  107.49   23.70
  -9   7  17   73.19   24.00
   8  -7 -17   47.90   15.60
  -8   7  17   18.90   16.20
   7  -7 -17    6.40   12.00
  -7   7  17   38.80   18.10
   6  -7 -17  139.09   21.80
  -6   7  17  190.78   32.60
   5  -7 -17   13.50    7.70
  -5   7  17    7.00   11.70
   4  -7 -17  413.06   33.30
  -4   7  17  421.16   42.80
   3  -7 -17  135.19   22.40
   3  -7 -17  103.49   20.70
  -3   7  17  111.49   25.60
   2  -7 -17  299.27   30.80
   2  -7 -17  271.67   29.90
  -2   7  17  298.67   34.10
   1  -7 -17  109.49   22.90
   1  -7 -17  103.69   21.90
  -1   7  17   46.60   16.50
   0  -7 -17   54.89   20.40
   0   7  17   44.40   19.70
  -1  -7 -17   94.69   26.40
   1   7  17  130.39   28.90
   2   7  17   36.60   17.90
   3   7  17    2.80   17.80
  10  -8 -17   35.60   18.20
 -10   8  17   33.60   20.30
   9  -8 -17  140.29   26.70
  -9   8  17  168.78   37.20
   8  -8 -17   39.00   15.50
  -8   8  17   41.90   19.40
   7  -8 -17  124.69   22.00
  -7   8  17   98.69   27.80
   6  -8 -17  -10.80    8.10
  -6   8  17   12.50   10.10
   5  -8 -17    9.20   12.20
  -5   8  17   16.40   11.50
   4  -8 -17    6.20   11.60
  -4   8  17   32.10   14.10
   3  -8 -17    5.70   11.70
  -3   8  17   -9.50   10.80
   2  -8 -17   20.40   14.40
   2  -8 -17   52.39   17.50
  -2   8  17   -5.70    9.30
   1  -8 -17   19.20   15.40
   1  -8 -17   22.80   13.20
  -1   8  17   35.50   17.00
   0   8  17   48.50   18.70
   1   8  17   98.99   26.60
   2   8  17   72.79   22.70
   9  -9 -17   84.69   23.70
  -9   9  17   -8.80   15.40
   8  -9 -17  148.89   27.40
  -8   9  17  110.09   28.40
   7  -9 -17   17.80   14.70
  -7   9  17   20.90   15.40
   6  -9 -17  -26.60    9.00
  -6   9  17  -14.90   11.10
   5  -9 -17   34.30   14.40
  -5   9  17   64.29   20.80
   4  -9 -17   10.50   10.70
  -4   9  17   11.00   13.70
   3  -9 -17   -4.40   12.60
  -3   9  17    1.30   12.70
   2  -9 -17  128.59   30.50
  -2   9  17   91.89   23.60
   1  -9 -17  129.99   27.60
  -1   9  17  103.79   24.50
   0   9  17   68.29   20.70
   8 -10 -17   84.29   20.70
  -8  10  17  105.89   26.50
   7 -10 -17   25.10   12.70
  -7  10  17   13.90   16.70
   6 -10 -17   23.10   13.50
  -6  10  17   14.60   16.50
   5 -10 -17  231.98   36.30
  -5  10  17  245.68   38.90
   4 -10 -17  114.69   23.90
  -4  10  17   96.39   25.70
   3 -10 -17  346.77   39.90
  -3  10  17  364.86   39.40
   2 -10 -17  -20.50   14.60
  -2  10  17  -11.70   13.20
   4 -10  18   96.59   24.20
   4 -10  18  121.39   20.80
   5 -10  18  169.68   30.10
   5 -10  18  133.29   22.10
   6 -10  18  315.67   40.30
   6 -10  18  308.17   31.50
   1  -9  18  128.89   29.20
   1  -9  18  187.28   22.50
   2  -9  18  168.78   21.20
   2  -9  18  231.18   34.40
   3  -9  18   40.10   17.50
   3  -9  18   64.29   14.50
   4  -9  18  254.67   27.70
   4  -9  18  287.57   41.40
   4  -9  18  210.98   23.70
   5  -9  18  864.11   62.69
   5  -9  18  854.41   47.40
   6  -9  18   -0.30   10.30
   6  -9  18    2.20   12.30
   7  -9  18  534.55   51.39
   7  -9  18  557.54   39.90
   8  -9  18  541.85   40.80
   8  -9  18  550.34   51.69
  -1  -8  18  502.65   35.70
  -1  -8  18  428.16   46.20
   0  -8  18  356.56   33.40
   0  -8  18  451.95   43.60
   1  -8  18  -19.60    7.10
   1  -8  18   10.50   13.40
   1  -8  18   -2.60    9.50
   2  -8  18  485.65   45.10
   2  -8  18  433.06   28.00
   2  -8  18  439.16   30.60
   3  -8  18   40.50   16.10
   3  -8  18   60.89   12.10
   4  -8  18    0.50   12.60
   4  -8  18   11.10    8.50
   5  -8  18  308.87   34.50
   5  -8  18  195.78   30.70
   6  -8  18  158.68   22.50
   6  -8  18  189.38   33.90
   7  -8  18   19.40   12.10
   7  -8  18    3.90   11.90
   8  -8  18  400.26   44.80
   8  -8  18  252.57   30.30
   9  -8  18   92.39   28.10
   9  -8  18  167.08   26.90
  -2  -7  18  435.46   33.80
  -2  -7  18  503.85   48.40
  -1  -7  18   28.90   11.40
  -1  -7  18   36.60   11.20
  -1  -7  18   21.70   15.20
   0  -7  18   -4.80    9.90
   0  -7  18  -12.00    6.70
   0  -7  18   -0.40    6.60
   1  -7  18  452.05   23.10
   1  -7  18  419.86   42.20
   1  -7  18  409.86   22.60
   2  -7  18   92.29   10.40
   2  -7  18   56.99    9.40
   2  -7  18   59.49   19.50
   3  -7  18  112.49   11.50
   3  -7  18  110.59   24.30
   3  -7  18   82.09   11.60
   4  -7  18  308.77   36.40
   4  -7  18  257.27   19.40
   5  -7  18 1801.92   95.19
   5  -7  18 1751.92   64.49
   6  -7  18  -10.80   11.00
   7  -7  18   11.90    8.70
   7  -7  18    4.60    8.30
   8  -7  18   20.20   11.70
   8  -7  18   40.30   15.70
   9  -7  18  190.28   34.50
   9  -7  18  180.38   27.50
  -4  -6  18  319.57   47.80
  -3  -6  18   13.70   17.40
  -2  -6  18  193.88   33.40
  -2  -6  18  180.48   17.30
  -2  -6  18  159.58   16.70
  -1  -6  18    4.40   11.50
  -1  -6  18    3.70    4.10
  -1  -6  18   24.30    5.60
   0  -6  18   67.29   17.50
   1  -6  18  692.43   54.19
   2  -6  18  232.68   36.70
   3  -6  18  869.81   62.69
   4  -6  18  746.63   58.49
   4  -6  18  843.62   30.50
   5  -6  18  373.26   23.70
   5  -6  18  310.87   37.30
   6  -6  18   28.60    9.70
   6  -6  18   42.20   17.10
   7  -6  18  458.25   46.90
   7  -6  18  499.75   35.00
   8  -6  18  430.46   36.70
   8  -6  18  428.46   46.90
  -9   6 -18   25.80   21.70
   9  -6  18   65.39   20.60
   9  -6  18   27.30   16.00
  10  -6  18  161.78   33.20
  -5  -5  18  126.29   27.60
  -4  -5  18  815.52   62.49
  -3  -5  18  238.78   37.60
  -3  -5  18  231.08   17.40
  -3  -5  18  184.78   16.10
  -2  -5  18 1788.42   95.19
  -1  -5  18  412.16   43.70
   0  -5  18  165.98   32.00
   1  -5  18   32.60   13.20
   2  -5  18  188.88   33.70
   3  -5  18   93.89   23.10
   4  -5  18 1513.35   86.79
   5  -5  18  100.99   25.20
   5  -5  18  142.29   12.90
   6  -5  18  686.73   37.20
   6  -5  18  681.33   57.49
   7  -5  18  101.19   27.50
   7  -5  18   72.49   15.10
  -8   5 -18   87.49   21.80
   8  -5  18   78.39   24.30
   8  -5  18   42.90   14.70
  -9   5 -18  232.48   34.50
   9  -5  18  301.07   38.00
   9  -5  18  166.18   28.90
  10  -5  18  117.49   30.60
  -6  -4  18  102.49   27.80
  -5  -4  18  206.28   36.20
  -4  -4  18   21.10   13.70
  -4  -4  18   -0.10    5.90
  -3  -4  18  279.97   35.80
  -2  -4  18  857.41   63.09
  -1  -4  18 1370.76   80.59
   0  -4  18  427.46   41.90
   1  -4  18 1655.83   90.29
   2  -4  18    9.70   11.10
   3  -4  18   -0.50    7.20
   4  -4  18  355.16   39.60
   5  -4  18    6.00    9.50
   5  -4  18    9.80    5.80
   6  -4  18  256.97   41.40
   6  -4  18  182.58   18.80
  -7   4 -18   77.59   18.40
   7  -4  18  107.79   18.50
   7  -4  18  114.79   28.10
  -8   4 -18    4.50   15.20
   8  -4  18    4.90   13.40
   8  -4  18    5.70   13.00
  -9   4 -18  876.21   60.89
   9  -4  18  912.01   72.39
   9  -4  18  799.12   53.79
  10  -4  18  289.17   34.00
  10  -4  18  198.28   42.20
  -6  -3  18   80.59   23.90
  -5  -3  18   88.89   26.00
  -5  -3  18   35.20    9.70
  -4  -3  18   92.09   23.40
  -3  -3  18  801.32   61.89
  -2  -3  18  115.99   27.90
  -1  -3  18   -7.00    7.60
   0  -3  18   46.70   16.40
   1  -3  18  632.64   52.79
   2  -3  18    7.40    8.70
   3  -3  18   45.40   16.20
   4  -3  18 1613.14   91.59
   5  -3  18  250.67   40.30
  -6   3 -18  786.42   42.90
   6  -3  18  836.12   65.59
   6  -3  18  729.73   39.60
  -7   3 -18  284.87   28.60
   7  -3  18  271.77   26.60
   7  -3  18  278.87   45.20
  -8   3 -18  221.28   32.80
   8  -3  18  206.38   29.70
   8  -3  18  214.68   47.90
  -9   3 -18  -16.30   18.40
   9  -3  18    3.10   11.60
   9  -3  18  -10.70   10.40
  -7  -2  18  268.37   43.10
  -6  -2  18  424.46   31.00
  -6  -2  18  529.15   52.49
  -5  -2  18   53.39   19.30
  -5  -2  18   80.09    7.20
  -4  -2  18  199.08   34.80
  -3  -2  18  215.08   37.10
  -2  -2  18   -9.00    4.40
  -1  -2  18  -10.90    9.50
   0  -2  18  157.58   31.30
   1  -2  18  131.29   28.20
   2  -2  18  174.68   31.90
   3  -2  18  709.03   56.49
   4  -2  18   15.60   10.60
  -5   2 -18   98.19   14.50
   5  -2  18  110.59   25.80
  -6   2 -18  735.93   42.10
   6  -2  18  806.22   64.69
  -7   2 -18 1636.54   74.39
   7  -2  18 1751.72   76.59
   7  -2  18 1715.73  101.39
  -8   2 -18  136.89   26.90
   8  -2  18  216.68   27.20
   9  -2  18  499.85   56.49
   9  -2  18  396.06   42.00
  -8  -1  18  157.58   32.50
  -7  -1  18    7.50   10.10
  -7  -1  18   29.60   17.90
  -6  -1  18  490.05   50.49
  -6  -1  18  439.56   24.10
  -5  -1  18  669.43   57.39
  -4  -1  18   22.10   12.20
  -3  -1  18 1597.84   91.29
  -2  -1  18  632.04   53.09
  -1  -1  18  119.89   26.90
   0  -1  18  502.35   46.60
   1  -1  18  469.45   44.80
   2  -1  18  154.68   28.30
   3  -1  18   19.30   11.00
  -4   1 -18   -3.40    3.60
   4  -1  18    3.80    9.80
  -5   1 -18 1403.46   58.29
   5  -1  18 1450.05   87.99
  -6   1 -18  326.07   30.30
   6  -1  18  284.17   45.40
  -7   1 -18    2.90   12.40
   7  -1  18   36.20   15.30
  -8   1 -18   43.70   22.40
   8  -1  18   31.60   19.40
   9  -1  18  510.45   58.19
  -8   0  18  415.26   47.90
  -7   0  18   -9.40    7.50
  -6   0  18   49.10   17.50
  -5   0  18  146.99   31.90
  -4   0  18  377.76   42.10
  -3   0  18  114.09   26.00
  -2   0  18  165.08   30.80
  -1   0  18  513.05   47.90
   0   0  18 4768.92  174.78
   1   0  18  481.35   46.80
   2   0  18  171.28   33.10
   3   0  18   88.79   23.40
  -4   0 -18  390.36   24.10
   4   0  18  390.96   42.50
  -5   0 -18  144.19   21.10
   5   0  18  126.29   30.30
  -6   0 -18   25.20   12.00
   6   0  18  -10.30   14.60
  -7   0 -18   17.90   19.30
   7   0  18   24.50   14.40
   8   0  18  408.26   49.20
  -9   1  18  453.95   53.69
  -8   1  18   41.70   12.90
  -8   1  18    8.00   16.00
  -7   1  18    5.60   15.10
  -6   1  18  407.36   46.40
  -5   1  18 1237.68   80.59
  -4   1  18    3.60    8.40
  -3   1  18   21.90   12.50
  -2   1  18  106.09   24.10
  -1   1  18  516.55   47.40
   0   1  18  603.24   52.19
   1   1  18  174.18   31.80
   2   1  18  572.64   51.59
  -3  -1 -18 1723.23   57.19
   3   1  18 1813.52   98.79
  -4  -1 -18   -4.50    7.60
   4   1  18   14.80   11.60
  -5  -1 -18  627.74   40.20
   5   1  18  634.34   58.19
  -6  -1 -18  534.75   42.40
   6   1  18  478.25   52.09
  -7  -1 -18   34.00   19.90
   7   1  18   27.70   18.60
   8   1  18  160.28   35.60
   9  -2 -18  502.55   37.70
  -9   2  18  448.86   53.49
   8  -2 -18  163.78   20.80
   7  -2 -18 1797.32   62.09
  -7   2  18 1666.33  100.49
  -6   2  18  795.02   63.79
  -5   2  18  125.09   27.80
  -4   2  18   15.80   11.60
  -3   2  18  570.54   51.39
  -2   2  18  176.68   31.80
  -1   2  18  114.99   26.10
   0   2  18  158.28   31.50
   1   2  18    4.30    8.30
  -2  -2 -18    1.30    5.30
   2   2  18   -1.40    8.10
   3   2  18  237.88   39.40
   4   2  18  233.68   39.70
  -5  -2 -18   79.29   19.20
   5   2  18  141.69   31.70
  -6  -2 -18  398.06   41.10
   6   2  18  496.95   51.99
   7   2  18  164.78   37.30
   9  -3 -18   -0.80   10.60
  -9   3  18  -32.00   12.60
   8  -3 -18  212.48   23.10
  -8   3  18  210.18   46.70
   7  -3 -18  300.57   22.10
  -7   3  18  225.48   41.20
   6  -3 -18  813.02   31.20
  -6   3  18  756.82   62.49
  -5   3  18  157.68   32.40
  -4   3  18 1726.63   96.09
  -3   3  18   89.99   24.50
  -2   3  18   24.10   13.50
  -1   3  18  737.43   58.59
   0  -3 -18   95.39    6.10
   0   3  18   94.89   24.50
  -1  -3 -18   -2.00    4.60
  -1  -3 -18    2.50    5.60
   1   3  18   -5.90    5.70
   2   3  18  134.09   29.80
  -3  -3 -18  719.63   42.90
   3   3  18  723.13   61.49
  -4  -3 -18  109.89   23.00
   4   3  18  107.29   27.20
  -5  -3 -18  120.89   23.70
   5   3  18   56.79   21.50
  10  -4 -18  282.77   33.10
 -10   4  18  255.27   49.70
   9  -4 -18  793.22   48.00
  -9   4  18  867.71   75.39
   8  -4 -18   22.20    9.90
  -8   4  18   31.50   16.40
   7  -4 -18   98.99   15.30
  -7   4  18   88.49   25.70
   6  -4 -18  180.28   15.60
  -6   4  18  183.18   34.00
   5  -4 -18    9.40    4.90
  -5   4  18    2.10    7.30
  -4   4  18  395.16   42.50
  -3   4  18   -0.10    5.80
   2  -4 -18    1.30    3.20
   2  -4 -18   -3.40    2.30
   2  -4 -18   -3.00    2.50
  -2   4  18   14.70   10.50
   1  -4 -18 1780.12   57.59
   1  -4 -18 1807.22   58.19
  -1   4  18 2020.60  101.19
   0  -4 -18  388.26   25.30
   0  -4 -18  367.46   24.70
   0   4  18  375.46   41.90
  -1  -4 -18 1419.66   60.79
   1   4  18 1592.44   89.69
  -2  -4 -18  762.72   45.20
   2   4  18  741.43   59.09
  -3  -4 -18  246.28   28.90
   3   4  18  284.37   45.40
  -4  -4 -18   55.19   16.70
   4   4  18   17.40   14.60
   5   4  18  297.07   45.00
   6   4  18   90.19   30.30
  10  -5 -18   72.69   21.40
 -10   5  18  137.99   35.00
   9  -5 -18  225.78   27.10
  -9   5  18  239.68   44.30
   8  -5 -18   73.19   15.30
  -8   5  18   37.20   15.60
  -7   5  18  118.49   28.10
   6  -5 -18  681.63   34.90
  -6   5  18  661.43   58.79
   5  -5 -18  153.68   15.00
  -5   5  18  134.69   28.20
   4  -5 -18 1418.36   52.49
   4  -5 -18 1438.46   50.99
  -4   5  18 1511.35   87.59
   3  -5 -18  117.09   14.20
   3  -5 -18  143.29   14.60
  -3   5  18  132.89   28.90
   2  -5 -18  234.48   20.20
   2  -5 -18  223.38   19.00
  -2   5  18  208.68   34.90
   1  -5 -18   -3.60    7.70
  -1   5  18  -11.90    8.70
   0  -5 -18  148.19   21.50
   0  -5 -18  178.18   20.90
   0   5  18  138.09   28.10
  -1  -5 -18  402.56   33.40
   1   5  18  404.96   43.90
  -2  -5 -18 1714.73   79.79
   2   5  18 1896.41  101.09
  -3  -5 -18  238.38   34.50
   3   5  18  268.77   42.80
   4   5  18  957.90   71.89
  10  -6 -18  102.09   24.00
 -10   6  18  150.98   39.50
   9  -6 -18   55.59   16.90
  -9   6  18   66.69   24.90
   8  -6 -18  482.15   35.70
  -8   6  18  462.15   51.49
   7  -6 -18  507.15   33.70
  -7   6  18  447.66   49.20
   6  -6 -18   72.39   12.50
  -6   6  18    0.70   13.90
  -5   6  18  336.17   39.70
   4  -6 -18  770.42   41.50
  -4   6  18  801.52   61.79
   3  -6 -18  781.32   42.90
   3  -6 -18  872.91   51.09
  -3   6  18  750.02   60.09
   2  -6 -18  175.28   24.00
   2  -6 -18  215.28   22.80
  -2   6  18  229.48   38.00
   1  -6 -18  757.22   45.60
   1  -6 -18  626.84   42.60
  -1   6  18  664.63   55.59
   0  -6 -18   40.30   15.80
   0  -6 -18   25.30   13.90
   0   6  18   11.00   10.70
  -1  -6 -18   -9.10   11.70
   1   6  18  -12.30    6.20
  -2  -6 -18  157.48   28.70
   2   6  18  162.38   33.40
   3   6  18    0.90   13.50
   4   6  18  267.47   47.10
   9  -7 -18  178.38   27.30
  -9   7  18  232.08   43.00
   8  -7 -18   28.60   12.30
  -8   7  18  -19.90   13.90
  -7   7  18   28.80   17.70
   6  -7 -18    4.20    9.30
  -6   7  18    5.60   11.70
   5  -7 -18 1840.72   75.69
   4  -7 -18  229.58   26.90
   4  -7 -18  327.47   28.50
  -4   7  18  228.58   36.90
   3  -7 -18   88.49   20.20
   3  -7 -18  105.69   19.80
  -3   7  18  113.59   28.80
   2  -7 -18  105.69   20.10
   2  -7 -18   74.79   19.20
  -2   7  18   85.49   21.40
   1  -7 -18  527.45   41.60
   1  -7 -18  539.65   43.80
  -1   7  18  387.46   42.30
   0  -7 -18   11.00   16.90
   0   7  18    2.10   13.40
  -1  -7 -18   23.50   21.30
   1   7  18   38.80   19.70
   2   7  18  512.35   53.59
   9  -8 -18  183.88   29.00
  -9   8  18  229.48   43.00
   8  -8 -18  354.26   33.70
  -8   8  18  411.06   49.20
   7  -8 -18   55.49   15.70
  -7   8  18   49.80   19.60
   6  -8 -18  158.78   24.40
  -6   8  18  160.68   30.20
   5  -8 -18  189.48   28.40
  -5   8  18  235.58   37.70
   4  -8 -18   20.00   14.50
   4  -8 -18  -26.10   14.50
  -4   8  18   37.80   18.60
   3  -8 -18   84.59   19.40
  -3   8  18   64.49   22.10
   2  -8 -18  460.85   42.80
   2  -8 -18  425.06   40.10
  -2   8  18  427.96   43.00
   1  -8 -18   17.40   14.10
   1  -8 -18   41.80   20.20
  -1   8  18    2.20   14.30
   0   8  18  342.87   43.30
   8  -9 -18  498.65   42.20
  -8   9  18  517.05   56.79
  -7   9  18  475.85   49.70
   6  -9 -18   26.10   13.00
  -6   9  18   -7.20   15.50
   5  -9 -18  782.22   53.29
  -5   9  18  764.42   64.29
   4  -9 -18  317.27   41.40
   4  -9 -18  286.47   32.80
  -4   9  18  229.98   39.70
   3  -9 -18   87.29   22.40
  -3   9  18   67.09   20.60
   2  -9 -18  219.58   36.10
  -2   9  18  240.58   38.90
   1  -9 -18  247.58   39.90
  -1   9  18  188.88   34.50
   6 -10 -18  327.17   39.20
  -6  10  18  315.77   49.20
   5 -10 -18  135.69   27.00
  -5  10  18  172.98   37.20
   4 -10 -18  115.09   27.50
  -4  10  18  105.29   26.90
   3  -9  19   -7.10   14.90
   4  -9  19   35.50   16.80
   5  -9  19   50.69   19.10
   5  -9  19   30.90   12.00
   6  -9  19   17.40   19.30
   6  -9  19   22.10   12.30
   0  -8  19   53.39   19.30
   1  -8  19   21.60   12.50
   1  -8  19   13.90    6.70
   2  -8  19   44.40   16.60
   2  -8  19   51.49    9.20
   3  -8  19    3.90    5.70
   3  -8  19   19.90   13.70
   4  -8  19   -3.00   10.10
   4  -8  19   19.20    8.30
   4  -8  19   24.60   11.60
   5  -8  19   77.99   14.10
   5  -8  19  135.19   28.90
   6  -8  19   88.99   24.50
   6  -8  19   45.50   18.60
   7  -8  19  128.59   26.70
   7  -8  19  149.39   21.70
   8  -8  19   29.30   14.70
   8  -8  19   58.89   20.40
  -1  -7  19  188.38   33.90
   0  -7  19   26.50   13.90
   1  -7  19   49.30   20.00
   2  -7  19  384.66   39.90
   3  -7  19   70.99   20.50
   4  -7  19  279.97   42.10
   4  -7  19  299.87   14.50
   4  -7  19  343.47   15.70
   5  -7  19    6.30   11.00
   5  -7  19    1.30    6.00
   6  -7  19  140.39   17.70
   6  -7  19  152.68   32.60
   7  -7  19    4.50    9.40
   7  -7  19   32.90   16.30
   8  -7  19   22.90   12.60
   8  -7  19   45.90   18.00
  -3  -6  19   15.10   19.30
  -2  -6  19   57.19   20.40
  -1  -6  19  202.28   34.10
   0  -6  19   -8.10   13.50
   1  -6  19   94.69   23.30
   2  -6  19    8.30   12.20
   3  -6  19  -17.80    8.60
   4  -6  19  686.43   58.29
   5  -6  19  433.06   18.70
   5  -6  19  470.05   46.30
   6  -6  19   25.60   14.40
   6  -6  19   15.00    8.60
   7  -6  19   55.99   15.80
   7  -6  19   56.19   19.10
   8  -6  19   14.90   12.90
   8  -6  19   17.90   16.70
   9  -6  19   -0.50   15.50
   9  -6  19   12.90   12.70
  -4  -5  19    5.50   15.40
  -3  -5  19  122.19   25.90
  -2  -5  19    3.10   10.70
  -1  -5  19  465.05   44.60
   0  -5  19   73.39   21.90
   1  -5  19   13.60   13.10
   2  -5  19    4.20   11.20
   3  -5  19  233.28   37.50
   4  -5  19    1.30    8.40
   5  -5  19   97.49   26.00
   6  -5  19   92.49   23.90
   6  -5  19   75.69   12.20
   7  -5  19  351.16   43.40
   8  -5  19    0.10   11.60
   8  -5  19   22.10   10.90
   9  -5  19   47.50   15.50
   9  -5  19  -22.10   12.70
  -5  -4  19   16.30   18.40
  -4  -4  19  -30.20   11.20
  -3  -4  19  333.07   41.50
  -2  -4  19  711.83   58.89
  -1  -4  19   -7.50    7.20
   0  -4  19  -14.30    9.20
   1  -4  19   48.40   17.20
   2  -4  19  131.19   28.80
   3  -4  19    8.20   12.70
   4  -4  19   -3.80    6.40
   5  -4  19   -2.10    9.90
   6  -4  19   -3.80    6.40
   6  -4  19   15.30   10.70
   7  -4  19   72.19   16.70
   7  -4  19  153.18   32.00
  -8   4 -19  -44.90   15.10
   8  -4  19   -9.00   11.10
   8  -4  19   16.40   12.60
   9  -4  19   53.39   17.60
   9  -4  19   40.20   15.50
  -6  -3  19   21.70   16.60
  -5  -3  19  -14.60   13.80
  -4  -3  19  104.39   25.10
  -3  -3  19   11.20   12.40
  -2  -3  19  231.78   37.90
  -1  -3  19   67.09   19.50
   0  -3  19  277.27   34.40
   1  -3  19   26.40   16.00
   2  -3  19  -13.70   10.00
   3  -3  19  228.48   37.50
   4  -3  19   52.89   20.10
   5  -3  19   12.00   11.20
   6  -3  19   -7.00    8.70
  -7   3 -19  340.37   31.40
   7  -3  19  265.07   52.09
   7  -3  19  264.07   26.80
  -8   3 -19   46.60   21.60
   8  -3  19   75.99   17.20
   8  -3  19   52.89   20.10
   9  -3  19   56.09   22.10
   9  -3  19   32.80   14.30
  -6  -2  19   49.99   16.90
  -5  -2  19  348.17   43.30
  -4  -2  19    7.70   12.10
  -3  -2  19    2.50    8.00
  -2  -2  19   89.59   26.30
  -1  -2  19  -16.30    5.90
   0  -2  19  114.39   26.20
   1  -2  19    2.70   12.80
   2  -2  19   76.79   23.30
   3  -2  19   63.49   19.60
   4  -2  19  147.09   30.20
   5  -2  19  219.78   38.30
  -6   2 -19  757.42   42.30
   6  -2  19  796.92   65.99
  -7   2 -19    0.20   13.20
   8  -2  19   47.80   22.50
  -7  -1  19   -9.80   13.00
  -6  -1  19   51.29   34.60
  -5  -1  19   39.30   21.00
  -3  -1  19   62.49   19.00
  -2  -1  19   63.49   21.60
  -1  -1  19   16.30   11.20
   0  -1  19  448.66   44.70
   1  -1  19  543.75   50.19
   2  -1  19   32.20   16.00
   3  -1  19   -3.70    5.60
   4  -1  19   29.30   15.40
  -5   1 -19   14.90    7.80
   5  -1  19   27.80   13.70
  -6   1 -19  554.84   36.90
   6  -1  19  512.05   53.29
  -7   1 -19  198.68   28.90
   7  -1  19  174.68   37.20
   8  -1  19  116.69   29.80
  -8   0  19   51.79   20.90
  -7   0  19  -15.60    9.70
  -6   0  19   73.49   21.90
  -5   0  19   60.69   18.20
  -4   0  19   16.30   12.60
  -3   0  19  290.57   35.90
  -2   0  19  159.78   30.20
  -1   0  19  486.55   48.10
   0   0  19   -4.90    8.90
   1   0  19  532.65   50.59
   2   0  19  102.79   24.40
   3   0  19  282.47   36.00
  -4   0 -19    0.20    5.40
   4   0  19   -8.90    5.90
  -5   0 -19   71.79   15.30
   5   0  19   86.49   25.90
  -6   0 -19   12.10   14.00
   6   0  19   27.40   17.90
   7   0  19   35.00   20.50
   8   0  19   38.40   18.10
  -8   1  19  138.39   31.20
  -7   1  19  138.09   32.60
  -6   1  19  531.25   51.89
  -5   1  19   24.50   12.90
  -4   1  19   78.99   22.50
  -3   1  19    0.50   11.10
  -2   1  19    8.00    9.70
  -1   1  19  444.46   45.50
   0   1  19  469.25   46.80
   1   1  19   10.20    7.40
   2   1  19   98.99   24.30
  -3  -1 -19   42.20    6.90
   3   1  19   55.29   19.10
  -4  -1 -19    1.30    8.30
   4   1  19    0.10    8.10
  -5  -1 -19  108.39   18.60
   5   1  19   50.39   20.10
  -6  -1 -19   10.70   17.10
   6   1  19    4.40   15.50
  -7  -1 -19  -19.40   25.10
   7   1  19   41.80   21.10
  -8   2  19   76.29   26.20
  -6   2  19  659.03   59.89
  -5   2  19  221.48   38.00
  -4   2  19  137.89   30.90
  -3   2  19   57.29   17.80
  -2   2  19  112.79   27.40
  -1   2  19   11.50   13.50
   0   2  19   84.39   22.90
   1   2  19   10.70   12.10
  -2  -2 -19  132.59    9.60
  -2  -2 -19  111.99    9.00
   2   2  19  153.58   32.20
  -3  -2 -19   -8.60    5.50
   3   2  19    6.00   14.10
  -4  -2 -19   16.00   11.50
   4   2  19    8.10   10.50
  -5  -2 -19  341.27   34.90
   5   2  19  329.07   40.30
  -6  -2 -19  -42.30   17.60
   6   2  19   25.30   21.20
   9  -3 -19  -18.30   12.80
  -9   3  19   -1.60   19.80
  -8   3  19   28.90   18.80
  -7   3  19  446.36   94.39
  -6   3  19   -4.50   11.80
  -5   3  19   10.80    8.30
  -4   3  19   52.09   18.50
  -3   3  19  309.57   38.20
  -2   3  19    7.70    7.60
  -1   3  19   90.09   24.70
   0   3  19  240.28   40.40
  -1  -3 -19   53.59    8.00
  -1  -3 -19   57.39    8.20
   1   3  19   15.50   16.50
  -2  -3 -19  270.87   21.70
   2   3  19  273.07   43.10
  -3  -3 -19   -8.20    8.80
   3   3  19   18.40   13.80
  -4  -3 -19   97.29   20.60
   4   3  19  105.49   30.10
  -5  -3 -19   50.19   19.50
   6   3  19    3.60   14.70
   9  -4 -19   30.00   12.80
  -9   4  19   53.29   25.40
   8  -4 -19  -17.30   14.60
  -8   4  19    1.10   16.00
   7  -4 -19   15.50    6.60
  -7   4  19   42.30   21.40
  -6   4  19   -6.70    8.90
  -5   4  19    3.20   16.40
  -4   4  19   26.70   12.20
  -3   4  19   85.19   23.60
  -2   4  19   83.89   23.60
  -1   4  19   13.30   14.60
   0  -4 -19    0.60    5.40
   0  -4 -19   -3.30    5.40
   0   4  19   -2.30    7.40
  -1  -4 -19   -9.10    6.60
  -1  -4 -19   15.90    9.60
   1   4  19   10.70   12.60
  -2  -4 -19  691.23   41.80
   2   4  19  810.22   64.79
  -3  -4 -19  304.37   32.30
   3   4  19  294.47   45.50
  -4  -4 -19   57.79   20.50
   4   4  19  -21.00   11.40
   5   4  19   46.90   22.10
   9  -5 -19    2.40   12.40
  -9   5  19  -19.00   16.50
   8  -5 -19  -14.00    8.70
  -8   5  19  -38.20   14.20
   7  -5 -19  261.07   21.60
  -7   5  19  242.48   43.90
   6  -5 -19   41.50    8.80
  -6   5  19   45.50   18.80
   5  -5 -19   93.49    9.90
   5  -5 -19  101.99   11.60
  -5   5  19  105.29   27.20
   4  -5 -19   -0.60    4.50
   4  -5 -19    1.30    4.40
  -4   5  19   -4.60   11.60
   3  -5 -19  251.67   15.40
   3  -5 -19  260.67   17.60
  -3   5  19  269.17   43.20
   2  -5 -19    0.50    4.70
   2  -5 -19   -4.40    6.70
  -2   5  19  -10.20    5.40
   1  -5 -19   -5.90    8.20
   1  -5 -19    4.60    6.40
  -1   5  19  -21.40    9.40
   0  -5 -19   85.49   17.50
   0   5  19  120.09   25.40
  -1  -5 -19  447.26   34.90
   1   5  19  447.06   48.40
  -2  -5 -19   30.60   17.60
   2   5  19    6.00   14.00
  -3  -5 -19  122.99   24.50
   3   5  19  125.69   29.00
   9  -6 -19  -14.20   12.20
  -9   6  19  -15.50    8.80
   8  -6 -19   36.70   13.60
  -8   6  19   23.70   24.40
   7  -6 -19   38.10   12.60
  -7   6  19   58.99   26.00
   6  -6 -19   24.20   14.40
  -6   6  19    0.70   12.70
   5  -6 -19  460.35   28.40
  -5   6  19  563.34   53.69
   4  -6 -19  639.84   33.50
  -4   6  19  729.23   60.79
   3  -6 -19   17.50   13.00
   3  -6 -19   -1.20    6.80
  -3   6  19   -5.30   12.40
   2  -6 -19  -17.00   10.60
   2  -6 -19   11.50   12.10
  -2   6  19   17.10   13.20
   1  -6 -19   86.79   18.20
   1  -6 -19   67.89   15.50
  -1   6  19   85.99   22.80
   0  -6 -19   -0.30   11.70
   0  -6 -19   19.40   14.70
   0   6  19   15.00   12.80
  -1  -6 -19  113.49   25.20
   1   6  19  146.69   30.80
  -2  -6 -19   18.20   21.30
   2   6  19   58.89   19.40
   3   6  19    7.80   15.10
   8  -7 -19  -19.00    9.50
  -8   7  19   41.40   20.00
   7  -7 -19   14.50   10.10
  -7   7  19  -15.90   21.20
   6  -7 -19  116.59   19.20
  -6   7  19  148.49   31.80
   5  -7 -19   16.60    8.80
  -5   7  19   27.30   13.70
   4  -7 -19  378.76   32.20
   4  -7 -19  359.66   28.90
  -4   7  19  384.86   43.30
   3  -7 -19   93.89   19.60
   3  -7 -19   72.69   17.30
  -3   7  19   84.49   21.90
   2  -7 -19  358.76   32.20
   2  -7 -19  362.06   34.50
  -2   7  19  308.47   39.20
   1  -7 -19   83.19   18.70
   1  -7 -19   36.60   19.40
  -1   7  19   52.09   19.00
   0  -7 -19   10.50   18.80
   0  -7 -19   21.00   14.20
   0   7  19   10.30   16.10
  -1  -7 -19  105.89   33.80
   1   7  19  144.19   32.10
   8  -8 -19   31.10   16.40
  -8   8  19   17.00   20.20
   7  -8 -19  192.68   27.20
   6  -8 -19   21.40   13.20
  -6   8  19   41.50   19.90
   5  -8 -19   49.10   16.60
  -5   8  19  108.69   25.70
   4  -8 -19  -13.00   16.00
   4  -8 -19   -1.30   11.90
  -4   8  19  -23.90   11.20
   3  -8 -19  -35.80   16.00
   3  -8 -19    0.90   11.40
  -3   8  19   -2.80   15.80
   2  -8 -19   30.40   16.40
   2  -8 -19   -8.90   20.20
  -2   8  19   32.70   18.00
   1  -8 -19   40.60   17.90
   1  -8 -19  -22.70   26.90
  -1   8  19   13.50   15.70
   0  -8 -19   21.90   19.30
   0   8  19   37.50   24.00
   6  -9 -19   14.00   14.50
  -6   9  19   54.79   21.10
   5  -9 -19   43.10   16.60
  -5   9  19   40.10   17.60
   4  -9 -19   18.00   16.00
  -4   9  19   27.00   21.10
   3  -9 -19   22.90   14.90
  -3   9  19  -11.50   14.20
   3  -8  20    1.90   14.60
   4  -8  20  117.19   26.70
   5  -8  20    1.60   10.70
   0  -7  20   28.70   17.00
   1  -7  20   -4.20   15.30
   2  -7  20  105.59   26.60
   3  -7  20   88.29   27.10
   4  -7  20    5.30   12.30
   5  -7  20   29.60   16.80
   6  -7  20   26.40    8.80
   7  -7  20   70.19   23.30
  -1  -6  20    5.30   15.30
   0  -6  20  111.39   27.20
   1  -6  20  250.67   39.70
   2  -6  20   -6.20   10.30
   4  -6  20   32.20   16.90
   5  -6  20   25.20   13.20
   6  -6  20   92.79    9.20
   7  -6  20   17.80   12.50
   7  -6  20   15.50    9.00
  -2  -5  20  -15.10    5.30
  -1  -5  20   10.20   10.00
   0  -5  20   -0.30    7.60
   1  -5  20  178.48   35.50
   2  -5  20   -5.90    9.20
   3  -5  20  -10.30    9.40
   4  -5  20   27.20   15.00
   5  -5  20   19.30   13.50
   7  -5  20  177.98   18.60
   7  -5  20  176.38   34.20
   8  -5  20   21.90   15.90
   8  -5  20   -7.10   11.10
  -4  -4  20   88.09   25.30
  -3  -4  20  -26.40   12.70
  -2  -4  20   38.00   16.80
  -1  -4  20   19.90   12.30
   0  -4  20   10.20   13.00
   1  -4  20  465.85   47.30
   2  -4  20   97.49   22.50
   3  -4  20   38.90   16.80
   4  -4  20   67.39   21.00
   5  -4  20  194.18   38.90
   7  -4  20   49.20   18.10
   8  -4  20  116.99   19.00
   8  -4  20   93.19   27.00
  -5  -3  20   42.90   20.60
  -3  -3  20   14.50   13.00
  -2  -3  20   39.30   14.80
  -1  -3  20   12.80   11.50
   0  -3  20  273.77   42.10
   1  -3  20    7.80   13.90
   2  -3  20   82.99   22.10
   3  -3  20  241.58   40.50
   4  -3  20  597.24   54.09
   5  -3  20   -3.70   10.60
   7  -3  20   14.40   16.10
   8  -3  20    4.50   10.30
  -5  -2  20  139.49   30.20
  -4  -2  20   23.10   15.70
  -3  -2  20  -18.60   10.70
  -2  -2  20  125.69   29.70
  -1  -2  20   70.79   20.00
   0  -2  20  255.47   40.80
   1  -2  20  103.59   24.30
   2  -2  20  231.58   40.20
   3  -2  20   29.70   15.50
   4  -2  20  109.79   26.00
   5  -2  20   -1.30    8.70
   6  -2  20   71.49   21.70
   7  -2  20   11.90   13.40
  -6  -1  20   37.20   18.60
  -5  -1  20  237.78   50.49
  -4  -1  20  235.88   40.30
  -3  -1  20  523.55   51.89
  -2  -1  20   34.70   18.20
  -1  -1  20  103.79   24.50
   0  -1  20   13.20    9.70
   1  -1  20   22.70   13.20
   2  -1  20   87.49   23.20
   3  -1  20   40.80   17.80
   4  -1  20   27.60   15.80
   5  -1  20   39.10   19.90
  -6   1 -20   13.90   11.50
   7  -1  20   22.20   21.80
  -7   0  20   76.79   23.40
  -6   0  20   78.59   24.90
  -5   0  20   26.50   15.70
  -4   0  20   17.10   17.00
  -3   0  20  222.58   37.80
  -2   0  20  192.48   35.40
  -1   0  20   15.50   13.10
   0   0  20  155.58   32.30
   1   0  20   27.70   14.80
   2   0  20  236.48   40.90
   3   0  20  284.57   36.70
   4   0  20   36.00   17.00
  -5   0 -20   17.20    8.70
   5   0  20   -7.80   17.10
  -6   0 -20    9.90   17.60
   6   0  20   59.99   22.80
   7   0  20   99.59   26.40
  -7   1  20   39.80   17.90
  -6   1  20   -3.50    8.50
  -5   1  20   29.60   15.10
  -4   1  20   39.40   18.70
  -3   1  20   93.69   24.60
  -2   1  20   54.29   20.00
  -1   1  20  -12.60    9.50
   0   1  20   35.10   16.00
   1   1  20   77.09   23.10
   2   1  20   29.50   15.20
   3   1  20  551.74   53.99
   4   1  20  214.78   37.90
   5   1  20  257.27   44.00
   6   1  20   14.80   12.30
  -7   2  20   22.00   17.30
  -6   2  20   53.79   19.40
  -5   2  20    0.20    7.90
  -4   2  20  123.69   29.70
  -3   2  20    1.40   10.60
  -2   2  20  246.18   41.30
  -1   2  20   96.29   25.50
   0   2  20  283.87   43.40
   1   2  20   38.40   15.10
   2   2  20  145.99   31.90
  -3  -2 -20   -1.40    7.00
   3   2  20   -3.70   11.00
  -4  -2 -20  -18.80   10.20
   5   2  20  122.79   30.40
  -8   3  20  -17.30    6.80
  -7   3  20   -6.50   15.20
  -6   3  20   -7.30   13.70
  -5   3  20    9.80   13.30
  -4   3  20  516.95   51.99
  -3   3  20  279.37   43.10
  -2   3  20   67.59   21.80
  -1   3  20   11.50   15.00
   0   3  20  304.07   37.80
   1   3  20   52.89   18.50
  -2  -3 -20    9.10    6.10
  -2  -3 -20    4.20    7.60
   2   3  20   11.80   10.70
   3   3  20   -3.20   11.90
  -4  -3 -20   98.59   24.80
   4   3  20  120.79   31.10
   5   3  20    8.30   15.40
  -8   4  20   95.19   28.60
  -7   4  20   54.89   24.70
  -6   4  20   -9.50   10.50
  -5   4  20  214.68   39.80
  -4   4  20   36.10   15.30
  -3   4  20    1.20   16.90
  -2   4  20  199.08   36.90
  -1   4  20  456.85   48.50
   0   4  20   65.79   24.00
  -1  -4 -20   23.10    8.20
  -1  -4 -20    9.30    8.00
   1   4  20   33.40   18.70
  -2  -4 -20   23.00   13.60
   2   4  20    4.90   21.80
  -3  -4 -20   15.00   17.90
   4   4  20   93.19   26.60
   8  -5 -20   -4.20   11.40
  -8   5  20   -8.90   14.90
  -7   5  20  141.39   34.50
   6  -5 -20  -11.20    6.00
  -5   5  20  -10.70   12.70
  -4   5  20   10.70   13.40
  -3   5  20   14.60   15.80
   2  -5 -20   -0.40    2.60
  -2   5  20   10.30   11.40
   0  -5 -20    0.60    8.20
   0   5  20    7.30   15.10
  -1  -5 -20    0.20   12.40
  -1  -5 -20   -4.60    9.30
   1   5  20   -7.00    8.30
   2   5  20   15.00   15.40
   7  -6 -20    4.70    9.20
  -7   6  20   15.70   18.70
  -6   6  20   97.99   30.90
   5  -6 -20  -22.30    8.50
   5  -6 -20    6.40    5.70
  -5   6  20    1.40   13.00
   4  -6 -20   16.00    8.30
  -4   6  20   23.50   14.90
   3  -6 -20   17.30   10.00
   3  -6 -20    4.90    7.20
  -3   6  20    7.90   16.00
  -2   6  20   18.80   19.90
   1  -6 -20  286.37   25.40
  -1   6  20  248.98   42.50
   0  -6 -20   80.09   17.20
   0  -6 -20   73.29   23.40
   0   6  20   89.69   24.80
  -1  -6 -20   47.60   16.20
   1   6  20   24.50   16.80
   7  -7 -20   -9.80   11.40
  -7   7  20   64.89   27.10
   6  -7 -20    3.70   10.10
  -6   7  20   52.39   19.20
   5  -7 -20    6.40   10.20
  -5   7  20    6.00   14.40
   4  -7 -20    4.90    9.70
  -4   7  20    2.80   14.00
   3  -7 -20   89.29   17.30
  -3   7  20   48.30   25.20
   2  -7 -20  197.48   24.60
  -2   7  20  194.18   36.00
   1  -7 -20   23.90   14.70
  -1   7  20   47.70   19.10
   0  -7 -20   75.79   22.00
   0   7  20   27.80   17.70
   5  -8 -20  -24.30   10.70
   4  -8 -20   91.69   20.40
  -4   8  20  140.99   31.00
   3  -8 -20   -7.30   13.20
  -3   8  20   36.00   18.30
   1  -6  21   46.80   20.00
   2  -6  21  373.76   52.99
   4  -6  21  547.35   55.99
   5  -6  21  328.77   41.60
   6  -6  21  222.98   38.70
  -1  -5  21  259.27   54.29
   0  -5  21   -1.70   15.70
   1  -5  21   61.49   19.90
   2  -5  21  265.17   43.50
   3  -5  21  193.18   35.40
   5  -5  21   -3.70   11.80
   6  -5  21   58.59   24.60
  -2  -4  21  671.03   62.29
  -1  -4  21   50.59   20.20
   0  -4  21  262.67   42.60
   1  -4  21   13.50   14.80
   2  -4  21  443.96   47.20
   3  -4  21   33.80   17.20
   5  -4  21   12.30   16.00
   6  -4  21  439.46   49.50
  -3  -3  21   26.20   15.10
  -2  -3  21  192.08   56.79
  -1  -3  21    9.50   14.40
   0  -3  21  883.31   67.39
   1  -3  21 1171.08   80.09
   2  -3  21  469.65   48.80
   3  -3  21  742.53   62.59
   5  -3  21  234.48   41.50
   6  -3  21   20.90   14.10
  -4  -2  21  393.46   48.90
  -3  -2  21  229.58   48.90
  -2  -2  21  482.15   51.09
  -1  -2  21  394.46   46.00
   0  -2  21    5.80    7.50
   1  -2  21  117.79   28.70
   2  -2  21   24.70   12.20
   3  -2  21 1256.57   84.79
   5  -2  21  207.88   37.90
   6  -2  21  579.74   57.59
  -5  -1  21   48.00   19.60
  -4  -1  21   83.79   22.90
  -3  -1  21   44.00   29.00
  -2  -1  21 1224.18   82.79
  -1  -1  21   74.19   22.20
   0  -1  21  103.49   27.70
   1  -1  21  106.09   27.00
   2  -1  21  116.89   28.00
   3  -1  21  373.46   45.10
   4  -1  21    9.00   15.70
   5  -1  21   24.40   18.70
   6  -1  21  210.58   38.20
  -6   0  21  136.89   34.80
  -5   0  21   -6.70    9.00
  -4   0  21  335.17   40.60
  -3   0  21  803.52   80.49
  -2   0  21    9.40   16.40
  -1   0  21  114.39   27.40
   0   0  21   -0.70    9.80
   1   0  21  112.79   27.00
   2   0  21  -23.20   10.40
   3   0  21  847.72   85.29
   4   0  21  329.57   49.99
   5   0  21   -2.80    8.60
   6   0  21  247.38   43.70
  -6   1  21  298.67   48.80
  -5   1  21  -30.90   12.40
  -4   1  21   11.90   13.70
  -3   1  21  354.96   44.20
  -2   1  21   79.79   20.40
  -1   1  21  172.58   33.20
   0   1  21  107.79   26.70
   1   1  21   81.09   23.30
   2   1  21 1245.28   84.59
   4   1  21   69.09   23.50
   5   1  21   29.70   17.50
  -6   2  21  653.83   61.49
  -5   2  21  110.09   30.40
  -4   2  21  288.07   56.99
  -3   2  21 1199.88   81.99
  -2   2  21   22.00   14.60
  -1   2  21  123.59   28.80
   0   2  21   -1.80   13.30
   1   2  21  383.96   46.50
   2   2  21  398.26   66.39
   3   2  21  281.67   46.20
   4   2  21  420.76   50.49
  -6   3  21  -15.00   11.40
  -5   3  21  250.47   43.60
  -4   3  21   15.10   12.00
  -3   3  21  802.12   66.99
  -2   3  21  368.56   44.40
  -1   3  21 1254.17   84.19
   0   3  21  865.01   70.09
   1   3  21    0.30   16.90
   2   3  21  156.18   42.00
   3   3  21  -35.80   14.60
  -6   4  21  407.56   47.40
  -5   4  21   33.10   16.90
  -4   4  21  254.77   52.89
  -3   4  21    4.30    9.70
  -2   4  21  532.65   54.99
  -1   4  21   22.30   16.00
   0   4  21  394.06   48.50
  -1  -4 -21    6.00    5.60
  -1  -4 -21   -5.30    4.70
  -6   5  21   39.70   17.80
  -5   5  21   -9.20   14.80
  -4   5  21   46.20   18.20
  -2   5  21  208.78   45.50
  -1   5  21   27.30   20.50
   0  -5 -21    7.80    7.30
   1   5  21  416.46   49.20
  -6   6  21  158.28   32.50
  -5   6  21  264.27   46.10
   3  -6 -21    3.50    5.10
  -3   6  21    7.20   15.60
  -2   6  21  315.07   57.89
   1  -6 -21  -14.50    9.50
  -1   6  21   14.00   19.30
   0   6  21  193.48   40.70
   1  -5  22  188.08   37.20
   2  -5  22  -19.10    8.90
   3  -5  22   15.10   12.60
   4  -5  22  -10.80   17.70
  -1  -4  22   -4.20   12.10
   0  -4  22  -33.40   12.60
   1  -4  22  495.55   50.19
   2  -4  22  146.99   31.50
   3  -4  22    5.90   16.50
   4  -4  22    8.30   15.50
   5  -4  22  188.38   36.10
  -2  -3  22   12.90   15.80
  -1  -3  22   60.39   26.40
   0  -3  22  194.88   37.20
   1  -3  22   68.59   23.50
   2  -3  22  102.09   25.70
   3  -3  22  249.97   42.50
   4  -3  22  449.86   51.19
   5  -3  22  -12.60   15.80
  -3  -2  22  -28.60   13.80
  -2  -2  22  133.99   31.90
  -1  -2  22  108.09   26.70
   0  -2  22  161.98   31.20
   1  -2  22   27.70   18.20
   2  -2  22  121.59   27.70
   3  -2  22   85.79   27.00
   4  -2  22  142.79   32.70
   5  -2  22  -15.10   14.10
  -4  -1  22  131.59   31.50
  -3  -1  22  437.06   48.80
  -2  -1  22   88.59   25.60
  -1  -1  22   55.59   17.80
   0  -1  22   29.60   16.80
   1  -1  22   28.70   15.20
   2  -1  22   28.90   14.80
   3  -1  22  162.08   37.00
   4  -1  22   37.00   20.70
   5  -1  22   17.50   18.20
  -4   0  22  -28.90   14.10
  -3   0  22  243.78   40.40
  -2   0  22  103.79   32.10
  -1   0  22   34.60   18.90
   0   0  22   38.30   18.90
   1   0  22    0.30   12.00
   2   0  22  131.39   31.70
   3   0  22  266.27   42.60
   4   0  22   34.40   17.70
  -5   1  22    3.20   16.30
  -4   1  22   30.10   17.20
  -3   1  22  115.29   29.20
  -2   1  22   27.30   15.40
  -1   1  22   -5.60   13.50
   0   1  22   22.50   17.30
   1   1  22   31.10   20.50
   2   1  22   28.10   20.20
   3   1  22  439.46   50.69
   4   1  22  250.87   43.10
  -5   2  22  -34.00   12.90
  -4   2  22  133.39   28.00
  -3   2  22   59.29   23.00
  -2   2  22  192.58   37.40
  -1   2  22   49.60   20.10
   0   2  22  144.89   33.10
   1   2  22  107.59   27.70
   2   2  22  148.29   35.10
   3   2  22   -6.80   10.60
  -5   3  22   -7.80   14.90
  -4   3  22  487.25   52.79
  -3   3  22  304.17   48.20
  -2   3  22   84.29   24.80
  -1   3  22   46.90   18.60
   0   3  22  274.27   46.90
   1   3  22   80.09   24.60
   2   3  22    9.30   17.30
  -5   4  22  242.68   41.40
  -4   4  22   -3.70   11.90
  -3   4  22   59.59   24.40
  -2   4  22  145.19   33.80
  -1   4  22  397.06   49.40
   0   4  22   31.50   19.00
   1   4  22   -4.60   12.50
  -4   5  22   17.80   17.60
  -3   5  22   15.70   13.60
  -2   5  22    2.40   10.70
  -1   5  22  204.68   37.30
   0  -2  23  118.29   28.30
   1  -2  23   16.40   14.80
   2  -2  23   66.89   19.90
  -1  -1  23    4.70   12.10
   0  -1  23  199.78   39.90
   1  -1  23  172.08   37.70
   2  -1  23  -16.50   16.00
  -2   0  23   67.79   23.80
  -1   0  23  194.48   38.10
   0   0  23   10.20   14.50
   1   0  23  139.19   32.30
   2   0  23  114.09   27.90
  -2   1  23    2.50   16.60
  -1   1  23  203.18   40.30
   0   1  23  154.38   34.80
   1   1  23    6.90    9.10
  -2   2  23   44.50   25.40
  -1   2  23   22.70   19.90
   0   2  23  119.59   30.50
   0   0   0    0.00    0.00

_computing_structure_solution     'SHELXT 2014/5 (Sheldrick, 2014)'
;
_shelx_hkl_checksum              60122
_olex2_submission_special_instructions 'No special instructions were received'
loop_
_space_group_symop_operation_xyz
'x, y, z'
'-y, x-y, z'
'-x+y, -x, z'
'-x, -y, z+1/2'
'y, -x+y, z+1/2'
'x-y, x, z+1/2'
'-x, -y, -z'
'y, -x+y, -z'
'x-y, x, -z'
'x, y, -z-1/2'
'-y, x-y, -z-1/2'
'-x+y, -x, -z-1/2'
loop_
_atom_site_label
_atom_site_type_symbol
_atom_site_fract_x
_atom_site_fract_y
_atom_site_fract_z
_atom_site_U_iso_or_equiv
_atom_site_adp_type
_atom_site_occupancy
_atom_site_site_symmetry_order
_atom_site_calc_flag
_atom_site_refinement_flags_posn
_atom_site_refinement_flags_adp
_atom_site_refinement_flags_occupancy
_atom_site_disorder_assembly
_atom_site_disorder_group
Gd1 Gd 0.333333 0.666667 0.750000 0.01141(18) Uani 1 6 d S T P A .
Gd2 Gd 0.12688(3) 0.52304(3) 0.58359(2) 0.01467(12) Uani 1 1 d . . . . .
O1 O -0.0756(5) 0.3734(5) 0.5178(3) 0.0188(11) Uani 0.5 1 d . . . A 1
O2 O -0.2166(5) 0.1721(5) 0.4904(3) 0.0283(13) Uani 0.5 1 d . . . A 1
O3 O 0.0129(10) 0.3684(10) 0.8283(5) 0.019(2) Uani 0.5 1 d . . . A 1
O4 O 0.1043(9) 0.4941(9) 0.7301(5) 0.019(3) Uani 0.5 1 d . . . A 1
O5 O 0.333333 0.666667 0.5320(5) 0.0155(17) Uani 1 3 d DS T P A .
H5 H 0.333333 0.666667 0.484876 0.019 Uiso 1 3 d DRS T P . .
O6 O 0.2250(5) 0.7086(5) 0.6524(3) 0.0149(10) Uani 1 1 d D . . . .
H6 H 0.183121 0.739696 0.671294 0.018 Uiso 1 1 d DR . . A .
O7 O -0.0489(5) 0.5515(6) 0.6303(3) 0.0297(13) Uani 1 1 d . . . . .
H7A H -0.114275 0.475339 0.638220 0.045 Uiso 1 1 d R . . . .
H7B H -0.075425 0.583359 0.595460 0.045 Uiso 1 1 d R . . . .
N1 N 0.0131(12) 0.2935(11) 0.6369(6) 0.016(2) Uani 0.5 1 d . . . A 1
H1 H 0.091061 0.287699 0.646013 0.020 Uiso 0.5 1 calc R . . A 1
C1 C -0.1239(7) 0.2545(7) 0.5258(4) 0.0222(16) Uani 0.5 1 d . . . A 1
C2 C -0.0691(14) 0.1994(14) 0.5829(7) 0.016(3) Uani 0.5 1 d . . . A 1
H2A H -0.139936 0.127400 0.609219 0.020 Uiso 0.5 1 calc R . . A 1
H2B H -0.020372 0.166427 0.556279 0.020 Uiso 0.5 1 calc R . . A 1
C3 C -0.0547(14) 0.2833(14) 0.7079(8) 0.020(3) Uani 0.5 1 d . . . A 1
H3A H -0.134605 0.283595 0.698041 0.024 Uiso 0.5 1 d R . . A 1
H3B H -0.073926 0.204285 0.734181 0.024 Uiso 0.5 1 d R . . A 1
C4 C 0.0266(10) 0.3875(11) 0.750000 0.025(2) Uani 1 2 d S T P A 1
Cl1 Cl -0.333333 0.333333 0.6503(7) 0.057(3) Uani 0.5 3 d S T P . .
Cl2 Cl 0.2253(6) 0.2711(6) 0.750000 0.0637(15) Uani 0.8 2 d S T P B 1
Cl3 Cl 0.241(4) 0.266(3) 0.6714(19) 0.079(10) Uani 0.1 1 d . U . C 2
O1A O -0.0756(5) 0.3734(5) 0.5178(3) 0.0188(11) Uani 0.5 1 d . . . A 2
O2A O -0.2166(5) 0.1721(5) 0.4904(3) 0.0283(13) Uani 0.5 1 d . . . A 2
C1A C -0.1239(7) 0.2545(7) 0.5258(4) 0.0222(16) Uani 0.5 1 d . . . A 2
H1A H -0.086510 0.225987 0.561622 0.027 Uiso 0.5 1 calc R . . A 2
loop_
_atom_site_aniso_label
_atom_site_aniso_U_11
_atom_site_aniso_U_22
_atom_site_aniso_U_33
_atom_site_aniso_U_23
_atom_site_aniso_U_13
_atom_site_aniso_U_12
Gd1 0.0121(3) 0.0121(3) 0.0100(4) 0.000 0.000 0.00604(13)
Gd2 0.01094(19) 0.0146(2) 0.01740(19) -0.00205(12) 0.00024(12) 0.00555(14)
O1 0.014(2) 0.017(3) 0.025(3) 0.001(2) 0.000(2) 0.007(2)
O2 0.022(3) 0.017(3) 0.038(3) 0.000(2) -0.015(2) 0.004(2)
O3 0.016(5) 0.023(6) 0.010(5) -0.001(4) -0.003(4) 0.003(5)
O4 0.015(5) 0.017(5) 0.024(7) 0.006(4) 0.004(3) 0.007(4)
O5 0.016(3) 0.016(3) 0.015(4) 0.000 0.000 0.0079(13)
O6 0.017(3) 0.016(3) 0.014(2) -0.0002(19) 0.0011(19) 0.011(2)
O7 0.020(3) 0.036(3) 0.036(3) -0.002(3) -0.001(2) 0.015(3)
N1 0.019(6) 0.016(6) 0.017(6) -0.003(5) -0.001(5) 0.010(5)
C1 0.019(4) 0.020(4) 0.023(4) -0.001(3) -0.004(3) 0.006(3)
C2 0.019(7) 0.020(7) 0.013(6) -0.006(5) -0.010(5) 0.011(6)
C3 0.015(7) 0.016(7) 0.020(8) -0.001(6) -0.002(6) 0.000(6)
C4 0.015(5) 0.020(6) 0.047(7) 0.000 0.000 0.014(5)
Cl1 0.044(3) 0.044(3) 0.083(8) 0.000 0.000 0.0222(16)
Cl2 0.062(3) 0.054(3) 0.085(4) 0.000 0.000 0.036(3)
Cl3 0.111(19) 0.058(15) 0.067(16) 0.004(12) -0.051(14) 0.042(13)
O1A 0.014(2) 0.017(3) 0.025(3) 0.001(2) 0.000(2) 0.007(2)
O2A 0.022(3) 0.017(3) 0.038(3) 0.000(2) -0.015(2) 0.004(2)
C1A 0.019(4) 0.020(4) 0.023(4) -0.001(3) -0.004(3) 0.006(3)
loop_
_atom_type_symbol
_atom_type_description
_atom_type_scat_dispersion_real
_atom_type_scat_dispersion_imag
_atom_type_scat_source
C C 0.0033 0.0016 'International Tables Vol C Tables 4.2.6.8 and 6.1.1.4'
H H 0.0000 0.0000 'International Tables Vol C Tables 4.2.6.8 and 6.1.1.4'
Cl Cl 0.1484 0.1585 'International Tables Vol C Tables 4.2.6.8 and 6.1.1.4'
Gd Gd -0.1653 3.9035 'International Tables Vol C Tables 4.2.6.8 and 6.1.1.4'
N N 0.0061 0.0033 'International Tables Vol C Tables 4.2.6.8 and 6.1.1.4'
O O 0.0106 0.0060 'International Tables Vol C Tables 4.2.6.8 and 6.1.1.4'
loop_
_geom_angle_atom_site_label_1
_geom_angle_atom_site_label_2
_geom_angle_atom_site_label_3
_geom_angle
_geom_angle_site_symmetry_1
_geom_angle_site_symmetry_3
_geom_angle_publ_flag
O4 Gd1 O4 16.2(4) 12_567 3_565 ?
O4 Gd1 O4 120.66(4) 12_567 2_665 ?
O4 Gd1 O4 16.2(4) 11_667 2_665 ?
O4 Gd1 O4 118.05(10) 10_557 11_667 ?
O4 Gd1 O4 118.05(10) . 2_665 ?
O4 Gd1 O4 120.66(3) 10_557 2_665 ?
O4 Gd1 O4 120.66(3) 3_565 10_557 ?
O4 Gd1 O4 120.66(3) 12_567 . ?
O4 Gd1 O4 16.2(4) . 10_557 ?
O4 Gd1 O4 118.05(10) 3_565 2_665 ?
O4 Gd1 O4 118.05(10) 12_567 11_667 ?
O4 Gd1 O4 118.05(10) 12_567 10_557 ?
O4 Gd1 O4 120.66(4) 3_565 11_667 ?
O4 Gd1 O4 120.66(3) . 11_667 ?
O4 Gd1 O4 118.05(10) 3_565 . ?
O6 Gd1 O4 62.6(2) . 3_565 ?
O6 Gd1 O4 65.2(2) 2_665 2_665 ?
O6 Gd1 O4 62.6(2) 12_567 11_667 ?
O6 Gd1 O4 77.7(2) 12_567 3_565 ?
O6 Gd1 O4 75.3(2) 2_665 10_557 ?
O6 Gd1 O4 65.2(2) 3_565 3_565 ?
O6 Gd1 O4 124.8(2) . 2_665 ?
O6 Gd1 O4 124.8(2) 2_665 3_565 ?
O6 Gd1 O4 75.3(2) 11_667 . ?
O6 Gd1 O4 140.9(2) 11_667 3_565 ?
O6 Gd1 O4 124.8(2) 11_667 12_567 ?
O6 Gd1 O4 77.7(2) 10_557 . ?
O6 Gd1 O4 75.3(2) 10_557 3_565 ?
O6 Gd1 O4 65.2(2) 11_667 11_667 ?
O6 Gd1 O4 75.3(2) 12_567 2_665 ?
O6 Gd1 O4 77.7(2) 11_667 2_665 ?
O6 Gd1 O4 62.6(2) 10_557 12_567 ?
O6 Gd1 O4 77.7(2) . 10_557 ?
O6 Gd1 O4 62.6(2) 3_565 2_665 ?
O6 Gd1 O4 140.9(2) 3_565 10_557 ?
O6 Gd1 O4 124.8(2) 10_557 11_667 ?
O6 Gd1 O4 62.6(2) 11_667 10_557 ?
O6 Gd1 O4 75.3(2) . 12_567 ?
O6 Gd1 O4 140.9(2) . 11_667 ?
O6 Gd1 O4 124.8(2) 12_567 10_557 ?
O6 Gd1 O4 75.3(2) 3_565 11_667 ?
O6 Gd1 O4 65.2(2) 12_567 12_567 ?
O6 Gd1 O4 140.9(2) 12_567 . ?
O6 Gd1 O4 77.7(2) 2_665 11_667 ?
O6 Gd1 O4 124.8(2) 3_565 . ?
O6 Gd1 O4 77.7(2) 3_565 12_567 ?
O6 Gd1 O4 62.6(2) 2_665 . ?
O6 Gd1 O4 65.2(2) 10_557 10_557 ?
O6 Gd1 O4 140.9(2) 10_557 2_665 ?
O6 Gd1 O4 140.9(2) 2_665 12_567 ?
O6 Gd1 O4 65.2(2) . . ?
O6 Gd1 O6 94.2(2) 12_567 3_565 ?
O6 Gd1 O6 94.2(2) 2_665 11_667 ?
O6 Gd1 O6 72.22(18) 10_557 12_567 ?
O6 Gd1 O6 72.22(18) . 3_565 ?
O6 Gd1 O6 94.2(2) 10_557 . ?
O6 Gd1 O6 72.22(18) 12_567 11_667 ?
O6 Gd1 O6 140.21(9) 12_567 2_665 ?
O6 Gd1 O6 140.21(9) 10_557 2_665 ?
O6 Gd1 O6 140.21(9) . 11_667 ?
O6 Gd1 O6 72.22(18) 10_557 11_667 ?
O6 Gd1 O6 140.21(9) 3_565 11_667 ?
O6 Gd1 O6 72.22(18) . 2_665 ?
O6 Gd1 O6 140.21(9) 10_557 3_565 ?
O6 Gd1 O6 140.22(9) . 12_567 ?
O6 Gd1 O6 72.22(18) 3_565 2_665 ?
O1 Gd2 Gd1 154.74(12) . . ?
O1 Gd2 Gd1 129.57(12) 7_566 . ?
O1 Gd2 O1 67.30(19) 7_566 . ?
O1 Gd2 O4 140.0(2) 7_566 . ?
O1 Gd2 O4 111.9(2) . . ?
O1 Gd2 O7 73.99(18) 7_566 . ?
O1 Gd2 N1 66.0(3) . . ?
O1 Gd2 N1 133.3(3) 7_566 . ?
O2 Gd2 Gd1 116.03(14) 8_556 . ?
O2 Gd2 O1 73.57(18) 8_556 . ?
O2 Gd2 O1 98.1(2) 8_556 7_566 ?
O2 Gd2 O4 120.6(3) 8_556 . ?
O2 Gd2 O5 76.54(17) 8_556 . ?
O2 Gd2 O6 77.41(19) 8_556 2_665 ?
O2 Gd2 O7 143.1(2) 8_556 . ?
O2 Gd2 N1 69.6(3) 8_556 . ?
O3 Gd2 Gd1 79.6(3) 10_557 . ?
O3 Gd2 O1 136.0(3) 10_557 7_566 ?
O3 Gd2 O1 76.3(3) 10_557 . ?
O3 Gd2 O2 94.4(3) 10_557 8_556 ?
O3 Gd2 O4 39.9(3) 10_557 . ?
O3 Gd2 O5 146.5(3) 10_557 . ?
O3 Gd2 O6 77.8(3) 10_557 2_665 ?
O3 Gd2 O7 70.9(3) 10_557 . ?
O3 Gd2 N1 25.2(4) 10_557 . ?
O4 Gd2 Gd1 42.8(2) . . ?
O5 Gd2 Gd1 75.97(18) . . ?
O5 Gd2 O1 129.1(2) . . ?
O5 Gd2 O1 77.47(18) . 7_566 ?
O5 Gd2 O4 118.6(3) . . ?
O5 Gd2 O7 133.41(15) . . ?
O5 Gd2 N1 136.1(3) . . ?
O5 Gd2 O1A 129.1(2) . . ?
O6 Gd2 Gd1 38.83(12) 2_665 . ?
O6 Gd2 Gd1 38.39(12) . . ?
O6 Gd2 O1 146.12(17) 2_665 7_566 ?
O6 Gd2 O1 92.13(17) . 7_566 ?
O6 Gd2 O1 143.17(17) . . ?
O6 Gd2 O1 139.05(17) 2_665 . ?
O6 Gd2 O2 141.86(18) . 8_556 ?
O6 Gd2 O3 103.4(3) . 10_557 ?
O6 Gd2 O4 64.3(2) . . ?
O6 Gd2 O4 60.9(2) 2_665 . ?
O6 Gd2 O5 68.79(18) 2_665 . ?
O6 Gd2 O5 69.99(19) . . ?
O6 Gd2 O6 73.9(2) . 2_665 ?
O6 Gd2 O7 75.07(19) . . ?
O6 Gd2 O7 128.63(18) 2_665 . ?
O6 Gd2 N1 125.9(3) . . ?
O6 Gd2 N1 77.2(3) 2_665 . ?
O6 Gd2 O1A 139.05(17) 2_665 . ?
O6 Gd2 O1A 143.17(17) . . ?
O7 Gd2 Gd1 95.01(14) . . ?
O7 Gd2 O1 70.09(18) . . ?
O7 Gd2 O4 69.0(3) . . ?
O7 Gd2 N1 89.5(3) . . ?
O7 Gd2 O1A 70.09(18) . . ?
N1 Gd2 Gd1 94.5(3) . . ?
N1 Gd2 O4 61.8(3) . . ?
O1A Gd2 Gd1 154.74(12) . . ?
Gd2 O1 Gd2 112.70(19) 7_566 . ?
C1 O1 Gd2 125.1(5) . 7_566 ?
C1 O1 Gd2 120.0(5) . . ?
C1 O2 Gd2 146.2(5) . 9_556 ?
O4 O3 Gd2 80.8(5) 10_557 10_557 ?
C4 O3 Gd2 124.8(8) . 10_557 ?
C4 O3 O4 44.1(6) . 10_557 ?
Gd1 O4 Gd2 91.8(3) . . ?
C4 O4 Gd1 141.9(7) . . ?
C4 O4 Gd2 114.0(6) . . ?
Gd2 O5 Gd2 106.2(2) . 2_665 ?
Gd2 O5 Gd2 106.2(2) . 3_565 ?
Gd2 O5 Gd2 106.2(2) 3_565 2_665 ?
Gd2 O6 Gd1 102.54(18) 3_565 . ?
Gd2 O6 Gd1 104.80(19) . . ?
Gd2 O6 Gd2 110.34(19) . 3_565 ?
O3 N1 Gd2 62.9(8) 10_557 . ?
O3 N1 C2 138.1(13) 10_557 . ?
O3 N1 C3 49.8(9) 10_557 . ?
C2 N1 Gd2 112.7(8) . . ?
C2 N1 C3 112.0(11) . . ?
C3 N1 Gd2 112.4(9) . . ?
O1 C1 C2 121.0(8) . . ?
O2 C1 O1 125.2(7) . . ?
O2 C1 C2 113.8(8) . . ?
N1 C2 C1 112.2(11) . . ?
O3 C3 N1 47.3(9) 10_557 . ?
O3 C3 C4 67.9(9) 10_557 . ?
C4 C3 N1 106.4(11) . . ?
O3 C4 O3 163.3(13) 10_557 . ?
O4 C4 O3 115.5(9) . . ?
O4 C4 O3 115.5(9) 10_557 10_557 ?
O4 C4 O3 81.2(7) . 10_557 ?
O4 C4 O3 81.2(7) 10_557 . ?
O4 C4 O4 34.2(9) 10_557 . ?
O4 C4 C3 163.5(9) 10_557 . ?
O4 C4 C3 129.4(7) . . ?
O4 C4 C3 163.5(9) . 10_557 ?
O4 C4 C3 129.4(7) 10_557 10_557 ?
C3 C4 O3 115.0(10) . . ?
C3 C4 O3 48.3(8) 10_557 . ?
C3 C4 O3 115.0(10) 10_557 10_557 ?
C3 C4 O3 48.3(8) . 10_557 ?
C3 C4 C3 66.7(13) . 10_557 ?
Gd2 O1A Gd2 112.70(19) 7_566 . ?
C1A O1A Gd2 120.0(5) . . ?
O2A C1A O1A 125.2(7) . . ?
loop_
_geom_bond_atom_site_label_1
_geom_bond_atom_site_label_2
_geom_bond_distance
_geom_bond_site_symmetry_2
_geom_bond_publ_flag
Gd1 O4 2.541(10) 12_567 ?
Gd1 O4 2.541(10) 10_557 ?
Gd1 O4 2.541(10) 3_565 ?
Gd1 O4 2.541(10) 2_665 ?
Gd1 O4 2.541(10) 11_667 ?
Gd1 O4 2.541(10) . ?
Gd1 O6 2.401(5) 10_557 ?
Gd1 O6 2.401(5) 2_665 ?
Gd1 O6 2.401(5) 12_567 ?
Gd1 O6 2.401(5) 3_565 ?
Gd1 O6 2.401(5) . ?
Gd1 O6 2.401(5) 11_667 ?
Gd2 O1 2.512(5) . ?
Gd2 O1 2.470(5) 7_566 ?
Gd2 O2 2.377(5) 8_556 ?
Gd2 O3 2.319(10) 10_557 ?
Gd2 O4 2.661(9) . ?
Gd2 O5 2.416(3) . ?
Gd2 O6 2.390(5) 2_665 ?
Gd2 O6 2.316(5) . ?
Gd2 O7 2.479(6) . ?
Gd2 N1 2.602(12) . ?
Gd2 O1A 2.512(5) . ?
O1 C1 1.268(9) . ?
O2 C1 1.246(9) . ?
O3 O4 1.728(14) 10_557 ?
O3 C4 1.427(10) . ?
O4 C4 1.216(14) . ?
N1 C2 1.454(17) . ?
N1 C3 1.493(18) . ?
C1 C2 1.550(15) . ?
C3 C4 1.381(16) . ?
O1A C1A 1.268(9) . ?
O2A C1A 1.246(9) . ?
