#------------------------------------------------------------------------------
#$Date: 2022-06-28 01:33:40 +0300 (Tue, 28 Jun 2022) $
#$Revision: 276298 $
#$URL: file:///home/coder/svn-repositories/cod/cif/7/24/51/7245104.cif $
#------------------------------------------------------------------------------
#
# This file is available in the Crystallography Open Database (COD),
# http://www.crystallography.net/
#
# All data on this site have been placed in the public domain by the
# contributors.
#
data_7245104
loop_
_publ_author_name
'Gu, Wen-Jun'
'Gu, Jinzhong'
'Kirillova, Marina'
'Kirillov, Alexander'
_publ_section_title
;
 Zn(II) metal-organic architectures from ether-bridged tetracarboxylate
 linkers: assembly, structural variety and catalytic features
;
_journal_name_full               CrystEngComm
_journal_paper_doi               10.1039/D2CE00722C
_journal_year                    2022
_chemical_formula_sum            'C36 H24 N4 O10 Zn2'
_chemical_formula_weight         803.33
_space_group_crystal_system      monoclinic
_space_group_IT_number           14
_space_group_name_Hall           '-P 2yn'
_space_group_name_H-M_alt        'P 1 21/n 1'
_atom_sites_solution_hydrogens   mixed
_audit_creation_method           SHELXL-2014/7
_audit_update_record
;
2021-12-01 deposited with the CCDC.	2022-06-27 downloaded from the CCDC.
;
_cell_angle_alpha                90
_cell_angle_beta                 108.141(7)
_cell_angle_gamma                90
_cell_formula_units_Z            4
_cell_length_a                   11.2220(6)
_cell_length_b                   24.6834(15)
_cell_length_c                   13.1944(9)
_cell_measurement_reflns_used    13024
_cell_measurement_temperature    293(2)
_cell_measurement_theta_max      69.828
_cell_measurement_theta_min      3.581
_cell_volume                     3473.1(4)
_computing_cell_refinement       'Bruker SAINT'
_computing_data_collection       'Bruker APEX2'
_computing_data_reduction        'Bruker SAINT'
_computing_molecular_graphics    'Bruker SHELXTL'
_computing_publication_material  'Bruker SHELXTL'
_computing_structure_refinement  'SHELXL-2014/7 (Sheldrick, 2014)'
_computing_structure_solution    'SHELXL-2014/7 (Sheldrick, 2014)'
_diffrn_ambient_temperature      293(2)
_diffrn_measured_fraction_theta_full 0.997
_diffrn_measured_fraction_theta_max 0.982
_diffrn_measurement_device_type  'Bruker APE-II CCD'
_diffrn_measurement_method       '\f and \w scans'
_diffrn_radiation_type           CuK\a
_diffrn_radiation_wavelength     1.54178
_diffrn_reflns_av_R_equivalents  0.0886
_diffrn_reflns_av_unetI/netI     0.1329
_diffrn_reflns_Laue_measured_fraction_full 0.997
_diffrn_reflns_Laue_measured_fraction_max 0.982
_diffrn_reflns_limit_h_max       13
_diffrn_reflns_limit_h_min       -10
_diffrn_reflns_limit_k_max       29
_diffrn_reflns_limit_k_min       -13
_diffrn_reflns_limit_l_max       15
_diffrn_reflns_limit_l_min       -15
_diffrn_reflns_number            13024
_diffrn_reflns_point_group_measured_fraction_full 0.997
_diffrn_reflns_point_group_measured_fraction_max 0.982
_diffrn_reflns_theta_full        67.679
_diffrn_reflns_theta_max         69.828
_diffrn_reflns_theta_min         3.581
_diffrn_source                   'fine-focus sealed tube'
_exptl_absorpt_coefficient_mu    2.253
_exptl_absorpt_correction_T_max  0.714
_exptl_absorpt_correction_T_min  0.661
_exptl_absorpt_correction_type   multi-scan
_exptl_absorpt_process_details   SADABS
_exptl_crystal_colour            colourless
_exptl_crystal_density_diffrn    1.536
_exptl_crystal_description       needle
_exptl_crystal_F_000             1632
_exptl_crystal_size_max          0.200
_exptl_crystal_size_mid          0.180
_exptl_crystal_size_min          0.160
_exptl_transmission_factor_max   0.697
_exptl_transmission_factor_min   0.669
_refine_diff_density_max         1.037
_refine_diff_density_min         -0.703
_refine_diff_density_rms         0.097
_refine_ls_extinction_method     none
_refine_ls_goodness_of_fit_ref   1.005
_refine_ls_hydrogen_treatment    constr
_refine_ls_matrix_type           full
_refine_ls_number_parameters     469
_refine_ls_number_reflns         6442
_refine_ls_number_restraints     23
_refine_ls_restrained_S_all      1.003
_refine_ls_R_factor_all          0.1598
_refine_ls_R_factor_gt           0.0762
_refine_ls_shift/su_max          0.001
_refine_ls_shift/su_mean         0.000
_refine_ls_structure_factor_coef Fsqd
_refine_ls_weighting_details
'w=1/[\s^2^(Fo^2^)+(0.0852P)^2^] where P=(Fo^2^+2Fc^2^)/3'
_refine_ls_weighting_scheme      calc
_refine_ls_wR_factor_gt          0.1755
_refine_ls_wR_factor_ref         0.2238
_reflns_Friedel_coverage         0.000
_reflns_number_gt                3159
_reflns_number_total             6442
_reflns_threshold_expression     'I > 2\s(I)'
_cod_data_source_file            d2ce00722c1.cif
_cod_data_source_block           474-25Zn2
_cod_original_sg_symbol_H-M      'P 21/n'
_cod_database_code               7245104
_shelx_shelxl_version_number     2014/7
_shelx_space_group_comment
;
The symmetry employed for this shelxl refinement is uniquely defined
by the following loop, which should always be used as a source of
symmetry information in preference to the above space-group names.
They are only intended as comments.
;
_shelx_estimated_absorpt_t_min   0.661
_shelx_estimated_absorpt_t_max   0.714
_shelx_res_file
;

    474-25Zn2.res created by SHELXL-2014/7

TITL 474-25Zn2 in P2(1)/n
CELL 1.54178  11.2220  24.6834  13.1944  90.000 108.141  90.000
ZERR   4.00   0.0006   0.0015   0.0009   0.000   0.007   0.000
LATT 1
SYMM 0.5-X, 0.5+Y, 0.5-Z
SFAC C  H  N  O  Zn
UNIT 144  96  16  40  8
L.S. 22
ACTA
BOND $H
FMAP 2
PLAN 2
HTAB C33 O1_$3
HTAB C30 O1_$3
HTAB C23 O3_$2
HTAB C17 O10
HTAB O10 O9_$1
HTAB O10 O8_$1
HTAB O10 O4
HTAB C33 O1_$3
HTAB C30 O1_$3
HTAB C23 O3_$2
HTAB C17 O10
HTAB O10 O9_$1
HTAB O10 O8_$1
HTAB O10 O4
SIZE 0.20 0.18 0.16
HTAB
CONF
HTAB O10 O4
EQIV $1 -x, -y+2, -z+1
HTAB O10 O8_$1
HTAB O10 O9_$1
HTAB C17 O10
EQIV $2 x, y, z-1
HTAB C23 O3_$2
EQIV $3 x+1/2, -y+3/2, z+1/2
HTAB C30 O1_$3
HTAB C33 O1_$3
HTAB O10 O4
HTAB O10 O8_$1
HTAB O10 O9_$1
HTAB C17 O10
HTAB C23 O3_$2
HTAB C30 O1_$3
HTAB C33 O1_$3
HTAB O10 O4
HTAB O10 O8_$1
HTAB O10 O9_$1
HTAB C17 O10
HTAB C23 O3_$2
HTAB C30 O1_$3
HTAB C33 O1_$3
DELU 0.002 C17 C18 C19 C20
SIMU 0.002 C17 C18 C19 C20
WGHT    0.085200
FVAR       2.72503
MOLE 1
ZN1   5   -0.041348    0.879655    0.514327    11.00000    0.04344    0.04504 =
         0.04357   -0.00003    0.00740    0.00060
ZN2   5    0.842712    0.872106    0.909554    11.00000    0.03767    0.06410 =
         0.05427    0.01121    0.01904    0.00462
N1    3   -0.022866    0.812711    0.428367    11.00000    0.06151    0.03502 =
         0.05792   -0.01342   -0.00008    0.00594
N2    3    0.021112    0.914262    0.388834    11.00000    0.06193    0.05341 =
         0.03922   -0.00699    0.01875    0.00307
N3    3    0.847178    0.789596    0.933455    11.00000    0.05583    0.06267 =
         0.04753    0.00338    0.02892    0.00659
N4    3    0.779191    0.865791    1.043407    11.00000    0.03796    0.06601 =
         0.05443    0.00013    0.01104    0.00639
O1    4    0.152872    0.825310    0.692221    11.00000    0.05603    0.04927 =
         0.06062   -0.00696    0.01605    0.00587
O2    4    0.089428    0.909276    0.638169    11.00000    0.03998    0.05561 =
         0.03815    0.00448    0.00722   -0.00687
O3    4    0.025075    0.896377    0.978113    11.00000    0.04912    0.11007 =
         0.05131   -0.00827    0.03171   -0.00774
O4    4   -0.020531    0.871393    0.813711    11.00000    0.03892    0.08426 =
         0.04709    0.00266    0.01908   -0.00705
O5    4    0.396528    0.903815    0.733553    11.00000    0.03792    0.04623 =
         0.04971    0.00414    0.02498    0.00129
O6    4    0.666892    0.874312    0.768319    11.00000    0.04937    0.07561 =
         0.12499    0.03177    0.02323    0.00900
O7    4    0.753204    0.945875    0.854337    11.00000    0.05758    0.09178 =
         0.07218    0.02169    0.00982    0.00793
O8    4    0.181956    1.067987    0.529571    11.00000    0.03965    0.04995 =
         0.07487    0.01351    0.01517    0.00264
O9    4    0.336924    1.117967    0.512369    11.00000    0.05079    0.08006 =
         0.19490    0.07996    0.02136   -0.00064
O10   4   -0.132066    0.832769    0.606609    11.00000    0.05239    0.06211 =
         0.05875    0.01502    0.00112   -0.01011
AFIX   3
H1W   2   -0.097471    0.844024    0.669851    11.00000   -1.20000
H2W   2   -0.198401    0.847990    0.567485    11.00000   -1.20000
AFIX   0
C1    1    0.151684    0.873889    0.705139    11.00000    0.02655    0.05130 =
         0.04136   -0.00303    0.01544   -0.00165
C2    1    0.230772    0.898241    0.811296    11.00000    0.02939    0.04468 =
         0.03443    0.00976    0.01370    0.01025
C3    1    0.187175    0.904891    0.898077    11.00000    0.03736    0.04783 =
         0.03894    0.00414    0.01240    0.00485
C4    1    0.056998    0.889451    0.895353    11.00000    0.03566    0.06004 =
         0.04581    0.00767    0.01652    0.00088
C5    1    0.267955    0.926011    0.991673    11.00000    0.04664    0.06405 =
         0.04851   -0.00088    0.02191    0.00047
AFIX  43
H5    2    0.239308    0.929861    1.050269    11.00000   -1.20000
AFIX   0
C6    1    0.389652    0.941621    1.001488    11.00000    0.04568    0.06650 =
         0.04780   -0.00049    0.00674   -0.00857
AFIX  43
H6    2    0.441429    0.956155    1.064973    11.00000   -1.20000
AFIX   0
C7    1    0.432297    0.935021    0.914237    11.00000    0.03329    0.06310 =
         0.05262    0.00657    0.01468   -0.00635
AFIX  43
H7    2    0.513398    0.945174    0.918088    11.00000   -1.20000
AFIX   0
C8    1    0.352955    0.913272    0.822113    11.00000    0.03664    0.03786 =
         0.04750    0.01209    0.01533    0.00249
C9    1    0.439327    0.950307    0.693343    11.00000    0.04520    0.03840 =
         0.04684    0.00480    0.02334   -0.00125
C10   1    0.566338    0.958700    0.710469    11.00000    0.03101    0.05363 =
         0.07639    0.00951    0.01993    0.00388
C11   1    0.666441    0.923537    0.781929    11.00000    0.03923    0.06746 =
         0.08911    0.03054    0.03628    0.00169
C12   1    0.601531    1.004576    0.668077    11.00000    0.04558    0.07618 =
         0.08745    0.03537    0.02538    0.00079
AFIX  43
H12   2    0.686195    1.010812    0.678268    11.00000   -1.20000
AFIX   0
C13   1    0.516083    1.040880    0.611903    11.00000    0.04493    0.06527 =
         0.07981    0.02741    0.02381   -0.01067
AFIX  43
H13   2    0.542825    1.071164    0.583049    11.00000   -1.20000
AFIX   0
C14   1    0.387596    1.033507    0.596522    11.00000    0.04168    0.04902 =
         0.04570    0.00998    0.01779   -0.00116
C15   1    0.297283    1.076909    0.541930    11.00000    0.04825    0.06010 =
         0.05193    0.01439    0.01249   -0.00008
C16   1    0.349760    0.988400    0.637618    11.00000    0.03065    0.05865 =
         0.04684    0.00605    0.01746    0.00193
AFIX  43
H16   2    0.265162    0.982861    0.628835    11.00000   -1.20000
AFIX   0
C17   1   -0.043248    0.762169    0.456596    11.00000    0.08904    0.06249 =
         0.09111   -0.02299   -0.00626    0.01315
AFIX  43
H17   2   -0.069016    0.756684    0.516324    11.00000   -1.20000
AFIX   0
C18   1   -0.025936    0.717245    0.396464    11.00000    0.09109    0.06311 =
         0.09276   -0.02339   -0.00710    0.01420
AFIX  43
H18   2   -0.043113    0.682354    0.414602    11.00000   -1.20000
AFIX   0
C19   1    0.016514    0.725762    0.311032    11.00000    0.09135    0.06355 =
         0.09187   -0.02558   -0.00641    0.01604
AFIX  43
H19   2    0.029582    0.696546    0.271257    11.00000   -1.20000
AFIX   0
C20   1    0.039339    0.776767    0.284742    11.00000    0.09038    0.06408 =
         0.08944   -0.02590   -0.00415    0.01695
AFIX  43
H20   2    0.068673    0.782181    0.226910    11.00000   -1.20000
AFIX   0
C21   1    0.019967    0.821406    0.342213    11.00000    0.05462    0.06139 =
         0.04587   -0.01609   -0.00618    0.01364
C22   1    0.037458    0.878274    0.318091    11.00000    0.03326    0.06566 =
         0.04875   -0.00349    0.00735    0.01317
C23   1    0.063925    0.894464    0.226001    11.00000    0.05856    0.07144 =
         0.04614   -0.01141    0.02337    0.01249
AFIX  43
H23   2    0.077448    0.869221    0.178411    11.00000   -1.20000
AFIX   0
C24   1    0.069251    0.949540    0.208301    11.00000    0.04669    0.11181 =
         0.04956   -0.00570    0.02572   -0.00526
AFIX  43
H24   2    0.085333    0.961831    0.147211    11.00000   -1.20000
AFIX   0
C25   1    0.050857    0.986310    0.280702    11.00000    0.05782    0.09256 =
         0.05328    0.00335    0.02606   -0.01149
AFIX  43
H25   2    0.053823    1.023428    0.269633    11.00000   -1.20000
AFIX   0
C26   1    0.028011    0.966028    0.369696    11.00000    0.08336    0.06561 =
         0.04185   -0.00293    0.02906   -0.00360
AFIX  43
H26   2    0.016739    0.990541    0.419457    11.00000   -1.20000
AFIX   0
C27   1    0.891585    0.751431    0.882393    11.00000    0.10468    0.07450 =
         0.08173    0.00661    0.05964    0.01062
AFIX  43
H27   2    0.918700    0.762656    0.825959    11.00000   -1.20000
AFIX   0
C28   1    0.900267    0.697698    0.906253    11.00000    0.15277    0.05586 =
         0.11068    0.01600    0.07491    0.02666
AFIX  43
H28   2    0.932177    0.673410    0.867392    11.00000   -1.20000
AFIX   0
C29   1    0.860980    0.680386    0.988598    11.00000    0.14529    0.06925 =
         0.08902    0.02310    0.05881    0.01391
AFIX  43
H29   2    0.866402    0.644012    1.007875    11.00000   -1.20000
AFIX   0
C30   1    0.813308    0.717750    1.042379    11.00000    0.08995    0.07530 =
         0.05615    0.00611    0.02888   -0.00583
AFIX  43
H30   2    0.783257    0.706643    1.097241    11.00000   -1.20000
AFIX   0
C31   1    0.809801    0.772324    1.014995    11.00000    0.04512    0.05164 =
         0.05005    0.00557    0.01681    0.00000
C32   1    0.768475    0.815334    1.073431    11.00000    0.03952    0.05923 =
         0.03964    0.00495    0.00904    0.00222
C33   1    0.722067    0.804873    1.159106    11.00000    0.05466    0.08291 =
         0.05132    0.00096    0.02289    0.00434
AFIX  43
H33   2    0.713252    0.769586    1.180429    11.00000   -1.20000
AFIX   0
C34   1    0.690174    0.848448    1.210288    11.00000    0.07024    0.09869 =
         0.06426    0.00304    0.03111    0.00336
AFIX  43
H34   2    0.658916    0.842340    1.266812    11.00000   -1.20000
AFIX   0
C35   1    0.703278    0.900436    1.180151    11.00000    0.06264    0.08807 =
         0.07218   -0.01945    0.02132    0.01626
AFIX  43
H35   2    0.682481    0.929826    1.215418    11.00000   -1.20000
AFIX   0
C36   1    0.749261    0.907642    1.094071    11.00000    0.06331    0.07812 =
         0.06426    0.00159    0.02070    0.00955
AFIX  43
H36   2    0.759170    0.942603    1.071668    11.00000   -1.20000
AFIX   0
HKLF 4

REM  474-25Zn2 in P2(1)/n
REM R1 =  0.0762 for    3159 Fo > 4sig(Fo)  and  0.1598 for all    6442 data
REM    469 parameters refined using     23 restraints

END

WGHT      0.0854      0.0000

REM Instructions for potential hydrogen bonds
HTAB O10 O4
HTAB O10 O8_$1
HTAB O10 O9_$1
HTAB C17 O10
HTAB C23 O3_$2
HTAB C30 O1_$3
HTAB C33 O1_$3

REM Highest difference peak  1.037,  deepest hole -0.703,  1-sigma level  0.097
Q1    1   1.1603  0.7592  0.8768  11.00000  0.05    1.04
Q2    1   0.1534  0.7496  0.1039  11.00000  0.05    0.75
;
_shelx_res_checksum              63822
_shelx_hkl_file
;
   0   0   1-73.1888 227.213  16
   0   0   2 96520.0 3794.36  16
   0   0   3-1374.50 988.301  16
   0   0  -3 183.188 296.976   3
   0   0  -4 998.761 418.496   3
   0   0  -4 650.965 704.471  16
   0   0  -5 821.912 514.574   3
   0   0   6 2423.71 668.379  13
   0   0  -6 3221.78 776.679   3
   0   0   7 1367.07 749.367  13
   0   0   8 4394.83 958.617  13
   0   0   9-554.806 522.630  13
   0   0  10 73642.8 4585.91  14
   0   0  11 1366.58 1072.58  14
   0   0  12 2591.52 1074.55  14
   0   0  13 1166.68 741.069  14
   0   0  14-270.493 515.719  14
   0   0  15 176.013 333.158  14
   0  -1   1 10735.6 901.293  16
   0  -1   2 193639. 5286.05  16
   0  -1   3 8419.43 1599.82  16
   0  -1  -4 37753.4 1704.10   3
   0  -1   4 34346.5 3329.66  16
   0   1  -4 35637.2 3218.66  16
   0   1  -4 37793.2 1799.63   3
   0  -1  -4 36699.5 3342.08  16
   0  -1   5 34305.1 3834.51  16
   0  -1  -5 33076.5 1804.04   3
   0   1  -5 32539.0 1903.96   3
   0   1  -6 19002.8 1662.66   3
   0  -1   6 15812.1 1445.04  13
   0   1   6 16218.8 1537.60  13
   0  -1  -6 18765.3 1552.02   3
   0   1   7 52620.5 2916.91  13
   0  -1   7 49331.9 2730.26  13
   0  -1   8 21371.9 1954.66  13
   0   1   8 22851.2 2155.78  13
   0  -1   9 3535.21 889.135  13
   0   1   9 3225.47 1015.25  13
   0   1  10 15267.6 2223.34  14
   0   1  10 15290.0 2023.82  13
   0  -1  10 15936.3 2285.02  14
   0  -1  11 7412.70 1626.66  14
   0   1  11 7507.95 1601.05  14
   0  -1  12-116.779 610.622  14
   0   1  12 329.546 763.868  14
   0  -1  13 755.225 805.426  14
   0   1  13-885.232 565.212  14
   0   1  14 247.556 462.639  14
   0  -1  14 857.830 645.046  14
   0   1  15 3.17866 323.712  14
   0  -1  15 985.988 504.275  14
   0   2   0 24314.0 970.803   2
   0   2   1 181372. 3007.95   1
   0  -2   2 42522.8 2560.51  16
   0  -2   3 8426.16 1579.15  16
   0  -2  -3 10817.4 1828.69  16
   0  -2  -4 1726.77 1147.01  16
   0   2  -4 1304.22 465.626   3
   0  -2   4 2270.15 1162.57  16
   0   2  -4 922.092 762.781  16
   0  -2  -4 1784.89 436.358   3
   0   2  -5 3626.83 784.830   3
   0  -2   5 3010.44 1239.00  16
   0  -2  -5 2291.53 551.699   3
   0  -2  -6 9513.05 1100.91   3
   0  -2   6 6937.93 928.543  13
   0   2  -6 8053.00 1152.87   3
   0   2   6 8762.44 1203.58  13
   0  -2   7 3155.40 738.039  13
   0   2   7 4677.39 1055.04  13
   0  -2   8 10588.5 1373.95  13
   0   2   8 8715.22 1401.47  13
   0   2   9 868.783 658.533  13
   0  -2  10 2803.00 1166.83  14
   0   2  10 1743.50 773.598  13
   0   2  10 1516.52 1027.62  14
   0   2  11 12929.5 1924.81  13
   0  -2  11 12457.3 2055.09  14
   0   2  11 8971.82 1781.57  14
   0   2  12 2143.72 1093.99  14
   0  -2  12 1902.53 1075.69  14
   0   2  13 7851.74 1498.36  14
   0  -2  13 9995.61 1711.29  14
   0  -2  14 526.667 627.457  14
   0   2  14-311.856 441.781  14
   0  -2  15 1929.59 603.656  14
   0   3   0-83.2140 283.148   2
   0  -3  -1 4986.95 675.610   1
   0   3   1 4734.85 623.278   1
   0  -3   2 54914.4 2955.82  16
   0  -3   3 138236. 5665.37  16
   0  -3   4 45499.5 3818.96  16
   0   3  -4 45954.7 2097.28   3
   0  -3  -4 48164.5 4053.85  16
   0  -3  -4 47057.1 1763.13   3
   0  -3   5 62951.4 2358.29  13
   0  -3  -5 63659.4 2385.21   3
   0  -3  -6 15512.1 1325.64   3
   0  -3   6 15562.0 1324.97  13
   0   3   6 13836.7 1491.57  13
   0   3  -6 15696.3 1564.54   3
   0   3   7 45685.9 2909.01  13
   0  -3   7 41380.5 2366.69  13
   0   3   8 4514.57 1101.99  13
   0   3   9 897.490 783.897  13
   0   3  10 8485.82 1648.30  14
   0  -3  10 12161.1 1955.13  14
   0   3  10 9805.63 1661.96  13
   0   3  11 647.903 754.307  13
   0  -3  11 77.4114 659.315  14
   0   3  11 1857.09 1121.23  14
   0  -3  12 3626.95 1179.25  14
   0   3  12 3028.74 1004.71  14
   0  -3  13 588.148 677.742  14
   0   3  13 267.114 578.718  14
   0   3  14-0.50299 470.062  14
   0  -3  14 253.838 405.528  14
   0  -3  15 501.878 398.407  14
   0   4   0 700221. 7300.29   2
   0  -4  -1 26010.8 1545.75   1
   0   4  -1 25235.2 1636.27   2
   0   4   2 48273.0 2220.66   1
   0  -4   3 15969.0 1710.10   2
   0  -4   3 13313.4 1894.40  16
   0  -4   4 81251.1 5187.78  16
   0  -4   4 80230.1 4106.59   2
   0   4  -4 78882.6 2855.48   3
   0  -4  -4 77655.0 2173.41   3
   0  -4  -4 79915.7 5391.87  16
   0  -4   5 1863.58 428.923  13
   0  -4  -5 3041.20 550.157   3
   0   4  -5 2341.50 663.765   3
   0   4  -6 1941.87 693.108   3
   0   4   6 2175.23 666.935  13
   0   4   7 4505.74 1111.70  13
   0   4   8 2434.37 955.912  13
   0   4   9 2384.77 1039.54  13
   0  -4  10 33518.3 3190.57  14
   0   4  10 31866.8 3008.50  14
   0   4  10 30884.0 2976.80  13
   0   4  11 1217.84 764.261  14
   0  -4  11 3363.57 1112.18  14
   0   4  12 6578.79 1408.83  14
   0  -4  12 5586.54 1424.54  14
   0   4  13-373.586 452.958  14
   0  -4  13-207.319 607.037  14
   0  -4  14 896.491 538.191  14
   0  -4  15 1580.89 573.262  14
   0   5   0 158.679 415.130   2
   0   5  -1 67141.6 2898.11   2
   0  -5  -1 61715.2 2621.29   1
   0   5  -2 41394.8 1611.60   3
   0   5   2 38316.5 2090.12   1
   0   5   3 177171. 4954.18   1
   0  -5   3 167321. 6585.16  16
   0   5  -3 174689. 3825.87   3
   0  -5   3 176522. 5810.34   2
   0   5  -4 5135.66 794.323   3
   0  -5   4 4094.95 1450.79  16
   0   5   4 6188.72 1095.84   1
   0   5   5 25717.4 1926.32  13
   0   5  -5 27308.3 1999.73   3
   0   5   6 1569.95 639.693  13
   0   5   7 60984.5 3519.79  13
   0   5   8 11011.9 1652.64  13
   0   5   9-209.508 687.329  13
   0  -5  10 11219.0 1978.56  14
   0   5  10 10672.5 1819.17  13
   0  -5  11 1550.43 1068.06  14
   0  -5  12 1456.01 807.024  14
   0  -5  13-265.258 520.417  14
   0  -5  14 956.634 699.820  14
   0  -5  15 1193.13 487.911  14
   0   6   0 251451. 5467.75   2
   0   6   0 265461. 4936.79   7
   0  -6  -1 110222. 3828.24   1
   0   6  -1 105199. 3857.12   2
   0   6  -2 31722.0 1520.47   3
   0   6  -3 85229.7 2821.35   3
   0  -6   3 84097.5 4936.03  16
   0   6   3 77363.8 3387.78   1
   0  -6   3 89051.2 4327.35   2
   0   6   4 29495.8 2326.89   1
   0   6  -4 30281.6 1882.87   3
   0  -6   4 30384.2 3388.18  16
   0   6   5 26355.6 1972.48  13
   0   6  -5 26260.0 1961.82   3
   0   6   6 3472.88 959.185  13
   0   6   7 7151.13 1312.98  13
   0   6   8 5096.35 1256.68  13
   0   6   9-442.178 874.403  13
   0   6  10 2142.34 1877.12   6
   0   6  10 725.625 695.239  13
   0  -6  10 1821.87 998.160  14
   0  -6  11 8172.80 1735.51  14
   0  -6  12-127.294 531.855  14
   0  -6  13 8570.72 1566.43  14
   0  -6  14 812.213 574.028  14
   0   7   0 198.263 590.820   7
   0   7   0 405.852 530.880   2
   0   7   0 67.5553 234.826   4
   0  -7  -1 19623.8 1816.33   1
   0   7   1 21296.2 1703.43   2
   0   7   1 19861.7 1606.45   7
   0   7  -1 22710.6 1962.04   2
   0   7  -1 23591.3 1717.27   7
   0   7   2 44028.4 2489.86   7
   0  -7   2 43870.9 2921.24   2
   0   7   2 39803.5 1810.20  13
   0   7   3 158.226 431.245   1
   0   7  -3 749.712 353.828   3
   0   7   3-40.7582 392.371  13
   0   7  -4 10621.2 1212.22   3
   0   7   4 10037.3 1158.43  13
   0   7   5 64951.9 3151.15  13
   0   7   6 368.441 599.785  13
   0   7   7 29256.3 2568.07  13
   0   7   8 29844.6 2808.09  13
   0   7   9 1625.79 885.980  13
   0  -7   9-121.737 709.866  14
   0  -7  10 13599.1 2158.84  14
   0   7  10 15249.8 2159.28  13
   0  -7  11 2491.44 1092.66  14
   0   7  11 3406.77 1535.88   6
   0  -7  12 2028.18 979.126  14
   0  -7  13 1155.29 854.666  14
   0  -7  14 1053.95 606.138  14
   0   8   0 90007.4 3878.68   2
   0  -8   0 95951.8 4324.59   1
   0   8   0 89488.5 3434.82   7
   0   8   0 87989.5 2304.25   4
   0  -8  -1 17487.9 1851.25   1
   0   8   1 17831.8 1030.45  13
   0   8   1 19654.6 1666.83   7
   0   8  -1 17589.3 1585.56   7
   0   8  -1 17525.6 1880.71   2
   0   8   1 17214.4 1644.83   2
   0   8   2 6855.24 819.891  13
   0  -8   2 6101.73 1249.21   2
   0   8   2 7063.14 1200.49   7
   0   8   3 2822.59 649.547  13
   0   8   4 26941.3 1908.20  13
   0   8   5 3122.23 837.244  13
   0   8   6 289.466 563.201  13
   0   8   7 1295.95 842.909  13
   0   8   8 4620.70 1235.89  13
   0   8   9 1916.58 1279.04   6
   0  -8   9 871.326 597.650  14
   0   8   9 1478.70 833.124  13
   0  -8  10 9766.29 1810.26  14
   0   8  10 12524.1 2848.53   6
   0   8  10 12174.0 1897.10  13
   0   8  11 493.465 1455.56   6
   0  -8  11-706.263 603.353  14
   0  -8  12 636.939 784.524  14
   0  -8  13-334.818 460.372  14
   0  -8  14 469.667 432.053  14
   0   9   0 380.579 336.732   4
   0   9   0-124.253 439.892   2
   0   9   0 125.064 535.599   7
   0  -9   0 767.518 512.850   1
   0   9   1 2331.93 654.308   2
   0   9   1 2781.17 776.445   7
   0   9   1 2625.11 438.443  13
   0   9  -1 4682.71 1031.56   7
   0  -9  -1 4584.93 1115.21   1
   0   9   2 18696.1 1834.63   2
   0   9   2 18848.8 1313.23  13
   0   9   2 18542.2 1877.55   7
   0   9  -2 19569.6 1829.60   7
   0   9   3 59195.4 2576.39  13
   0   9   4 2855.46 697.948  13
   0   9   5 59830.3 3208.55  13
   0   9   6 28878.2 2422.46  13
   0   9   7 31624.6 2756.18  13
   0   9   8 17585.8 2216.82  13
   0  -9   9 1011.09 579.179  14
   0   9   9 622.852 1417.96   6
   0   9   9 1818.10 1017.02  13
   0  -9  10 4627.59 1353.19  14
   0   9  10 5042.12 1293.02  13
   0   9  10 5102.05 2154.68   6
   0   9  11 824.513 1261.54   6
   0  -9  11 3013.79 1220.87  14
   0  -9  12 249.636 501.191  14
   0  -9  13 1146.00 562.075  14
   0  -9  14-289.174 555.711  14
   0  10   0 56023.6 3087.18   7
   0 -10   0 59881.3 3980.40   1
   0  10   0 54782.4 3489.42   2
   0  10   0 50322.4 1980.86   4
   0  10  -1 14279.7 1633.76   7
   0  10   1 13442.5 1622.98   2
   0  10   1 12667.4 1566.03   7
   0 -10  -1 15065.2 2006.25   1
   0  10   2 814.061 551.747   2
   0  10   2 1813.20 930.816   7
   0  10   2 404.669 391.433  13
   0  10  -2-155.073 625.341   7
   0  10   3 80309.3 3047.53  13
   0  10   4 80.7547 429.667  13
   0  10   5 20539.6 1944.98  13
   0  10   6 1066.22 817.223  13
   0  10   7-760.532 733.351  13
   0  10   8-149.936 867.003  13
   0 -10   9 182.464 558.500  14
   0  10   9 1179.91 998.131  13
   0  10  10 1242.69 1452.29   6
   0 -10  10-350.533 602.762  14
   0  10  11-3057.81 1541.30   6
   0 -10  11 338.386 658.010  14
   0 -10  12 2573.39 1051.93  14
   0 -10  13 2707.87 860.253  14
   0  10 -14 569.552 1141.06  12
   0 -10  14-96.0597 455.635  14
   0  11   0 29.2081 341.128   4
   0  11   0 273.385 467.081   2
   0  11   0-180.047 680.354   7
   0  11  -1 22596.8 2143.80   7
   0  11   1 23841.2 2348.39   2
   0  11   1 22552.1 1559.59   4
   0  11   1 21399.7 2154.52   7
   0  11  -2 9677.43 1537.26   7
   0  11   2 11865.7 1097.07  13
   0  11   2 12436.0 1804.94   7
   0  11  -3 20397.1 2159.83   7
   0  11   3 20887.7 1658.57  13
   0  11   4 1373.98 691.594  13
   0  11   5 31004.1 2437.67  13
   0  11   6 5053.42 1117.62  13
   0  11   7 1842.79 980.639  13
   0  11   8 38356.9 3328.74  13
   0  11   9-807.633 742.899  13
   0  11   9-411.513 1217.01   6
   0 -11   9-1198.26 782.880  14
   0  11  10 13396.2 2898.45   6
   0 -11  10 13912.4 2058.84  14
   0  11  11 901.991 1523.91   6
   0 -11  11-1185.22 632.708  14
   0  11  12-159.819 1031.88   6
   0 -11  12 390.381 701.467  14
   0 -11  13 2080.39 847.890  14
   0  12   0 112420. 3317.92   4
   0  12   0 115588. 4942.52   7
   0  12   1 4980.49 825.855   4
   0  12  -1 4819.38 1112.44   7
   0  12   1 5378.53 1186.08   7
   0  12   2 41004.0 3216.34   7
   0  12  -2 38973.3 3039.16   7
   0  12   3 7035.85 998.157  13
   0  12  -3 5563.63 1318.58   7
   0  12   4 13917.7 1518.15  13
   0  12   5 10190.4 1465.90  13
   0  12   6 980.118 782.928  13
   0  12   7 6797.82 1435.96  13
   0  12   8 206.209 651.404  13
   0  12   9 10551.1 2586.59   6
   0  12   9 11018.0 1907.36  13
   0  12  10 12151.8 2493.76   6
   0 -12  10 7743.87 1657.17  14
   0  12  11 3753.69 1719.33   6
   0 -12  11 2732.52 1048.44  14
   0  12  12 1852.68 1394.23   6
   0 -12  12 1216.70 655.052  14
   0 -12  13-519.417 436.053  14
   0  12 -13-2239.16 1567.10  12
   0  13   0 180.106 721.050   7
   0  13   1 11681.9 1825.94   7
   0  13  -1 10977.7 1742.89   7
   0  13   1 11030.5 1250.97   4
   0  13   2 27116.6 2819.40   7
   0  13  -2 26731.9 2608.85   7
   0  13  -3 18674.5 2280.54   7
   0  13  -4 630.475 799.070   7
   0  13   4 1354.30 535.198  13
   0  13   5 44061.6 2978.94  13
   0  13   6 9385.52 1554.55  13
   0  13   7 12102.3 1845.27  13
   0  13   8 9851.84 1789.55  13
   0  13   9 7576.43 2472.33   6
   0  13  10 463.808 1467.78   6
   0 -13  11 3347.54 1066.06  14
   0  13  11 1301.36 1342.21   6
   0  13  12 869.608 1042.77   6
   0  13 -12 609.950 1340.75  12
   0 -13  12 1493.64 728.567  14
   0 -13  13 228.730 363.735  14
   0  13 -13 773.235 1444.00  12
   0  14   0 14372.4 2029.47   7
   0  14  -1 2419.85 984.233   7
   0  14   1 3248.49 1327.50   7
   0  14   1 3397.31 757.876   4
   0  14   2 1238.55 1137.36   7
   0  14  -2 474.434 909.234   7
   0  14   2 119.178 402.432   4
   0  14  -3 3645.64 1311.29   7
   0  14  -4-985.233 1001.42   7
   0  14   5 11752.0 1600.26  13
   0  14  -5 11202.5 2019.40   7
   0  14  -6 388.810 1059.21   7
   0  14   6 2189.89 860.788  13
   0  14   7 1038.89 863.315  13
   0  14   8 2962.30 1016.47  13
   0  14   9 2244.22 2099.67   6
   0  14  10 1847.22 1648.99   6
   0  14 -10 5218.45 2845.29  12
   0  14 -11 4650.12 2678.86  12
   0  14  11 1818.30 1491.40   6
   0  14 -12-332.173 1367.81  12
   0  14  12 1661.83 964.664   6
   0  14 -13 1429.44 743.919  10
   0  14 -13 1520.23 1494.86  12
   0  15   0 2589.42 1238.85   7
   0  15   1 5266.72 1477.37   7
   0  15  -1 4573.52 1235.87   7
   0  15   2 2893.88 738.205   4
   0  15  -2 2940.54 1145.77   7
   0  15   2 5343.88 1709.40   7
   0  15   3 12014.2 1547.95   4
   0  15  -3 12486.9 2052.20   7
   0  15  -4 1434.50 790.503   7
   0  15  -5 20245.4 2719.08   7
   0  15   6 19244.0 2221.28  13
   0  15  -6 15768.6 2489.13   7
   0  15   7 6561.70 1478.08  13
   0  15  -7 6295.49 2962.28  12
   0  15   8 1483.76 1068.39  13
   0  15  -8-695.002 1829.50  12
   0  15   9-18.0066 1188.03   6
   0  15  -9-3080.87 2203.44  12
   0  15 -10 1218.53 2340.15  12
   0  15  10 341.660 1303.80   6
   0  15  11-874.234 1221.47   6
   0  15 -11-224.301 1602.71  12
   0  15 -12 2974.82 1897.59  12
   0  15  12 2268.48 1340.34   6
   0  15 -13 497.396 481.827  10
   0  16   0 67008.1 4631.84   7
   0  16  -1 1710.91 907.430   7
   0  16   1 3640.15 1555.91   7
   0  16   2 52397.2 4370.24   7
   0  16  -2 47091.4 3887.40   7
   0  16   3-288.921 544.508   4
   0  16  -3 878.494 1044.87   7
   0  16  -4 12200.6 2127.26   7
   0  16   4 9466.76 1515.44   4
   0  16  -5 1144.65 845.034   7
   0  16  -6 7026.72 3565.66  12
   0  16  -7 3217.97 2348.08  12
   0  16  -8-3986.41 2537.54  12
   0  16   9-16.4258 1348.60   6
   0  16  -9 2678.18 2723.33  12
   0  16 -10 4702.14 3209.81  12
   0  16  10 4315.03 1784.77   6
   0  16  11 2036.43 945.555   6
   0  16 -11 368.544 1357.37  12
   0  16 -12 3654.02 1201.08  10
   0  16 -12 1941.73 1222.04  12
   0  16  12 2175.07 1290.70   6
   0  17   0-887.183 1038.67   7
   0  17   1 11974.4 2336.78   7
   0  17  -1 6362.33 1619.33   7
   0  17  -2 16618.8 2491.97   7
   0  17   3 13401.0 1791.71   4
   0  17  -3 15345.6 2409.24   7
   0  17  -4 1765.63 1386.37   7
   0  17   4 573.980 655.517   4
   0  17   5 41882.4 4983.91  11
   0  17   5 45639.9 3501.77   4
   0  17  -5 59687.8 7977.89  12
   0  17   5 44218.4 5483.58   8
   0  17   6 2995.21 970.952   4
   0  17  -6 3408.16 2920.50  12
   0  17  -7 7744.47 3440.95  12
   0  17  -8 8546.62 3550.62  12
   0  17  -9 3140.19 2064.12  12
   0  17   9 241.832 1324.31   6
   0  17  10 2007.78 1554.28   6
   0  17 -10 371.821 1446.15  12
   0  17 -11 627.542 1195.30  12
   0  17  11 1019.58 1041.03   6
   0  17 -12 63.2663 510.687  10
   0  17 -12-1137.30 1165.60  12
   0  18   0 4194.90 1655.51   7
   0  18   1 2327.59 1393.58   7
   0  18  -1 3105.52 1627.18   7
   0  18  -2-689.120 1103.07   7
   0  18  -3 1455.34 1093.23   7
   0  18  -4 9485.32 3668.86  12
   0  18   4 13782.8 3098.73  11
   0  18   4 11956.7 3220.40   8
   0  18   4 12882.0 1859.72   4
   0  18   5-723.193 1529.46   8
   0  18   5 1310.94 1562.79  11
   0  18   5-172.568 569.270   4
   0  18  -5-2442.03 2109.94  12
   0  18  -6 9517.95 3948.91  12
   0  18   6 12134.5 1903.50   4
   0  18  -7 8219.58 3627.38  12
   0  18  -8-1725.17 1869.04  12
   0  18  -9-2862.58 2158.35  12
   0  18   9 1421.94 1710.91   6
   0  18  10 1250.30 1222.32   6
   0  18 -10 2652.89 2359.29  12
   0  18 -10 2241.84 1114.92  10
   0  18 -11 3367.51 1990.86  12
   0  18 -11 3416.00 1241.01  10
   0  18  11 2283.51 1197.55   6
   0  18 -12-399.950 562.326  10
   0  19   0 769.292 1437.00   8
   0  19   0-604.181 1215.72   7
   0  19   1 724.373 1596.40  12
   0  19   1 1361.55 1254.20   7
   0  19  -1-1063.67 1794.60   8
   0  19   1 4074.44 1460.24   8
   0  19  -1 2718.87 1518.91   7
   0  19   2-1598.49 2063.22   8
   0  19  -2-1008.42 1936.52  12
   0  19  -2 1791.73 1069.40   7
   0  19   2-167.135 1149.12  11
   0  19  -2-2443.06 2375.59   8
   0  19   3 2650.63 1686.53  11
   0  19   3 2452.75 2043.79   8
   0  19  -3 5.35216 1911.84  12
   0  19   4 4135.05 1896.67   8
   0  19  -4 2096.99 2605.63  12
   0  19   4 2563.93 1584.68  11
   0  19   5 5168.96 2108.83  11
   0  19  -5 3445.50 2659.02  12
   0  19   5 2620.83 1917.09   8
   0  19   6 2155.71 1593.06   8
   0  19  -6 303.190 871.768  10
   0  19  -6 795.084 1822.01  12
   0  19  -7-120.695 2232.67  12
   0  19  -8 4472.67 2707.47  12
   0  19   9-317.692 1304.97   6
   0  19  -9-193.333 685.844  10
   0  19  10 3113.12 1592.58   6
   0  19 -10 3186.76 1259.32  10
   0  19 -10 3389.05 2303.14  12
   0  19  11 633.685 911.778   6
   0  19 -11 1446.19 823.075  10
   0  19 -11 1251.44 1191.79  12
   0  20   0 40068.0 4132.92   7
   0  20   0 54378.5 8482.86  12
   0  20   0 52659.1 6235.89   8
   0  20  -1 25.5409 854.428   7
   0  20  -1-871.812 1330.43   8
   0  20   1-1788.40 1690.98  11
   0  20   1-52.4178 1585.56   8
   0  20  -1-70.2916 2062.05  12
   0  20  -2 20065.3 5097.09  12
   0  20  -2 27621.8 4400.98   8
   0  20   2 24866.8 4367.84   8
   0  20   2 21338.9 3842.68  11
   0  20  -3 30515.9 5991.17  12
   0  20   3 22928.2 3860.41  11
   0  20   3 28169.8 4584.57   8
   0  20   4 8044.79 2448.52  11
   0  20  -4 6159.75 3002.55  12
   0  20   4 5495.86 2423.02   8
   0  20  -5 911.854 2316.76  12
   0  20   5 2487.54 1854.11   8
   0  20   6 944.918 1401.18   8
   0  20  -6 963.958 1017.02  10
   0  20  -6-45.0499 1711.54  12
   0  20  -7 430.955 859.888  10
   0  20  -7 820.951 1768.83  12
   0  20  -8-763.560 1418.12  12
   0  20  -8 729.933 942.567  10
   0  20  -9-665.823 1618.82  12
   0  20  -9-871.097 861.765  10
   0  20   9 448.059 1033.09   6
   0  20 -10 3534.14 1315.72  10
   0  20 -10 1538.59 1277.52  12
   0  20  10 2530.86 1164.85   6
   0  20  11-191.093 769.600   6
   0  20 -11 245.530 561.255  10
   0  21   0 2277.70 2366.06  12
   0  21   0 190.467 1620.64   8
   0  21   0 1499.62 1288.63   7
   0  21   1 5524.93 2453.05   8
   0  21  -1 4217.76 2198.26  12
   0  21  -1 9762.14 3046.57   8
   0  21   1 8179.31 2403.03  11
   0  21  -2 7318.05 2700.46   8
   0  21  -2 2955.05 2744.50  12
   0  21   2 5787.08 2461.03  11
   0  21   2 6183.97 2429.75   8
   0  21  -3 9425.94 3536.19  12
   0  21   3 9680.59 3132.44   8
   0  21   3 6133.13 2165.30  11
   0  21  -4 127.651 2038.37  12
   0  21   4 1324.36 1202.24   8
   0  21   4-259.337 1110.53  11
   0  21  -5 9298.82 3746.73  12
   0  21   5 11586.0 3250.81   8
   0  21   6 3562.39 1930.25   8
   0  21  -6-193.842 1525.34  12
   0  21  -7 8825.94 3323.92  12
   0  21  -7 4046.92 1585.87  10
   0  21  -8 3793.64 2138.51  12
   0  21  -8 721.340 782.781  10
   0  21  -9 298.606 659.344  10
   0  21  -9 1775.16 1492.18  12
   0  21   9-521.184 951.993   6
   0  21  10 755.158 1003.70   6
   0  21 -10 69.6360 528.376  10
   0  21 -10 1629.71 1524.89  12
   0  22   0 5398.10 2200.15   8
   0  22  -1 6116.74 3276.16  12
   0  22   1 5242.56 2392.37   8
   0  22   1 966.317 1450.35  11
   0  22  -1 6466.81 2270.00   8
   0  22   2 10837.9 2817.08  11
   0  22  -2 14737.1 3572.64   8
   0  22   2 9978.51 3212.82   8
   0  22  -2 5787.30 3808.33  12
   0  22   3 3536.61 2060.12   8
   0  22   3 2158.41 1373.56  11
   0  22  -3 563.957 1831.17  12
   0  22   4 6258.73 2218.14  11
   0  22   4 5479.47 2515.19   8
   0  22  -4 7503.41 3573.02  12
   0  22   5 6988.48 2402.36   8
   0  22  -5 2267.07 2344.35  12
   0  22  -6 691.458 1965.77  12
   0  22   6 115.309 1030.62   8
   0  22  -7 939.301 975.508  10
   0  22  -7 3233.32 2296.09  12
   0  22  -8 1463.25 1717.66  12
   0  22   8 538.793 1496.58   6
   0  22  -8 1221.00 857.599  10
   0  22  -9 1271.33 1393.43  12
   0  22   9 1354.10 1090.67   6
   0  22  -9 1068.53 743.415  10
   0  22 -10 110.523 448.918  10
   0  22  10 808.841 888.390   6
   0  23   0 1412.96 1763.45   8
   0  23  -1-24.4831 1209.00   8
   0  23   1 2098.06 1589.61  11
   0  23  -1 514.681 1938.83  12
   0  23   1-653.974 1900.30   8
   0  23   2 541.670 952.853  11
   0  23   2-394.220 1225.33   8
   0  23  -2 467.875 1805.70  12
   0  23  -2 2642.07 1839.93   8
   0  23   3 1153.12 1349.57  11
   0  23   3 271.947 1133.44   8
   0  23  -3-233.279 1619.08  12
   0  23  -4-2469.41 2121.11  12
   0  23   4 1090.32 1415.05   8
   0  23   5 1952.18 1753.86   8
   0  23  -5 3515.69 2527.08  12
   0  23   6 503.454 1248.98   8
   0  23  -6-4585.37 2321.14  12
   0  23  -7-1120.01 1846.73  12
   0  23  -8 2321.72 1519.86  12
   0  23   8 555.488 941.474   6
   0  23   9 1848.20 991.134   6
   0  23  -9 1067.45 780.391  10
   0  24   0 13246.7 3350.85   8
   0  24   1 5035.07 2228.08   8
   0  24  -1 1639.22 1605.09   8
   0  24   1 3466.81 1840.24  11
   0  24   2 1866.54 1587.24  11
   0  24  -2 2349.81 1035.42   8
   0  24  -2 2742.27 2720.12  12
   0  24   2 1140.83 1503.13   8
   0  24  -3 241.390 1728.34  12
   0  24   3 1010.71 1345.13   8
   0  24   3 537.429 1118.38  11
   0  24  -4-4345.28 2456.31  12
   0  24   4-1093.24 1453.49   8
   0  24  -5 2147.94 1793.88  12
   0  24   5-1072.47 1636.09   8
   0  24   6-1181.98 1221.82   8
   0  24  -6-2573.19 1901.20  12
   0  24  -7-465.897 1361.57  12
   0  24  -8-178.683 1040.07  12
   0  24   8-570.240 819.796   6
   0  24   9 1143.05 818.236   6
   0  25   0 966.361 1734.67   8
   0  25  -1 8169.27 2891.68   8
   0  25   1 6838.91 2203.28  11
   0  25   1 7312.29 2863.91   8
   0  25   2-992.543 1371.87   8
   0  25  -2 1093.67 1532.84   8
   0  25   2 1103.37 1358.79  11
   0  25   3 2238.43 1778.41   8
   0  25  -3 4106.17 2580.38  12
   0  25   4-851.825 1736.13   8
   0  25  -4 2969.28 2609.45  12
   0  25  -5 1597.95 1830.26  12
   0  25   5 456.833 1149.39   8
   0  25   6 1268.08 1246.86   8
   0  25  -6 3587.80 2198.02  12
   0  25   7-211.684 954.474   6
   0  25  -7 4638.13 2084.88  12
   0  25   8 2218.36 1098.73   6
   0  26   0-815.819 1448.30   8
   0  26   1 3234.05 1766.87   8
   0  26  -1-1050.79 1032.88   8
   0  26   2 2916.99 1707.84   8
   0  26  -2 1109.08 1381.47   8
   0  26   3-4088.94 1843.74   8
   0  26   4 1072.77 1040.52   8
   0  26  -4 2034.91 1953.98  12
   0  26   5 1627.94 1034.15   8
   0  26  -5-110.465 1369.53  12
   0  26   6 2731.65 1258.33   8
   0  26  -6 4557.95 2059.50  12
   0  26   7 447.088 865.121   6
   0  27   0 1071.61 1154.22   8
   0  27   1 1642.20 1403.00   8
   0  27  -1-840.037 1427.03   8
   0  27   2 2202.12 1553.24   8
   0  27  -2-2765.35 1391.50   8
   0  27   3-401.353 1310.42   8
   0  27   4 1854.24 1359.36   8
   0  27   5 235.916 896.755   8
   0  27   6 160.390 832.507   6
   0  28   0 2874.56 1472.94   8
   0  28   1 436.457 1189.41   8
   0  28  -1 1296.62 967.582   8
   0  28   2-1191.30 1092.76   8
   0  28   3-860.489 1040.27   8
   0  28   4-316.359 894.141   8
   0  28   5-829.644 788.072   8
   0  29   0 274.412 768.545   8
   0  29  -1 2519.88 1329.87   8
   0  29   1-1584.69 1043.20   8
   0  29   2-748.458 1024.64   8
   0  29   3 900.141 839.267   8
  -1   0  15 361.764 474.298  14
  -1   0  14 503.599 521.598  14
  -1   0  13 164.547 723.827  14
  -1   0  12 432.607 698.650  14
  -1   0  11 1091.44 972.784  14
  -1   0  10-340.511 714.677  13
  -1   0  10 185.865 806.378  14
  -1   0   9 6014.03 1144.06  13
   1   0  -8-12.2170 595.175   3
   1   0  -7 241890. 6124.86   3
   1   0  -6-65.5784 395.990   3
   1   0  -5 91121.4 3082.06   3
   1   0  -4 987.464 437.058   3
  -1   0   3 5168.76 1193.44  16
  -1   0   2-808.938 777.535  16
  -1   0   0 264.207 196.604   1
   1   0   1 3077.08 642.574  16
  -1   0  -1 3703.86 421.005   2
  -1   0  -1 3456.94 597.734  16
   1   0   2-1269.53 809.767  16
  -1   0  -2-271.373 593.547  16
   1   0   2 64.6210 286.535   2
   1   0   3 6503.62 810.012   2
   1   0   3 8856.92 786.919  13
  -1   0  -3 8111.00 1430.78  16
   1   0   3 7168.85 1447.14  16
  -1   0  -4 127.934 645.234  16
   1   0   4-380.624 413.601   2
   1   0   4 525.378 372.748  13
   1   0   5 43438.5 2196.89  13
   1   0   5 44380.2 2767.97   2
   1   0   6 288.931 414.495  13
   1   0   7 964.188 589.991  13
   1   0   8 297.625 521.013  13
   1   0   9 188.830 490.563  13
   1   0  10 537.694 944.754  14
   1   0  11 641.572 760.486  14
   1   0  12 431.266 866.738  14
   1   0  13 2125.68 800.026  14
   1   0  14 656.095 585.301  14
  -1  -1  15-25.7869 350.921  14
  -1   1  15 28.2629 350.696  14
  -1   1  14 87.4525 499.891  14
  -1  -1  14 631.132 622.793  14
  -1   1  13 1216.30 691.991  14
  -1  -1  13 2379.99 1058.45  14
  -1   1  12 3014.49 1099.36  14
  -1  -1  12 1448.28 962.787  14
  -1   1  11 6331.99 1282.17  13
  -1   1  11 5634.48 1349.81  14
  -1  -1  11 6635.26 1622.76  14
  -1   1  10 8923.51 1573.25  13
  -1   1  10 10026.1 1839.42  14
  -1  -1  10 10956.7 1859.63  14
  -1  -1   9 1496.27 683.079  13
  -1   1   9 1221.84 780.160  13
   1   1  -8 631.254 769.693   3
   1  -1  -8-0.98588 483.327   3
   1  -1  -7 36018.0 2351.74   3
   1   1  -7 34120.4 2404.79   3
   1   1  -6 5868.65 1004.58   3
   1  -1  -6 5435.22 887.905   3
   1   1  -5 497.647 456.883   3
   1  -1  -5 431.586 486.106   3
  -1  -1   5 813.704 983.619  16
   1   1  -4 6456.06 835.011   3
   1  -1  -4 6116.25 747.415   3
  -1  -1   4 5318.24 1536.07  16
  -1  -1   3 281450. 7876.31  16
  -1  -1   2 94936.5 3715.62  16
  -1  -1   1 130117. 3021.86  16
  -1   1   0 160430. 3083.50   1
  -1  -1  -1 35962.7 1732.07  16
   1  -1   1 36051.9 1716.89  16
   1  -1   2 17406.7 1748.58  16
  -1  -1  -2 12921.1 1479.62  16
   1  -1   2 18340.5 1272.93   2
   1   1   2 14752.2 837.416   2
   1  -1   3 1967.64 589.656   2
   1  -1   3 1991.55 1023.04  16
   1  -1   3 2523.68 445.310  13
  -1   1  -3 1599.38 711.997  16
  -1  -1  -3 2980.49 1072.93  16
   1   1   3 2504.95 522.566  13
   1  -1   4 475.386 373.917   2
   1  -1   4 1740.47 1213.81  16
  -1   1  -4 918.916 816.044  16
   1  -1   4 1099.75 460.465  13
  -1  -1  -4 1098.92 944.091  16
   1   1   4 890.948 481.003  13
   1   1   5 4311.98 783.910  13
   1  -1   5 5969.09 854.227  13
   1  -1   5 4797.89 1088.54   2
   1   1   6 8768.13 1195.60  13
   1  -1   6 10113.9 1202.08  13
   1   1   7 17239.1 1751.14  13
   1  -1   7 15806.2 1594.75  13
   1   1   8 14590.2 1792.79  13
   1  -1   8 14310.6 1658.89  13
   1   1   9 329.276 557.797  13
   1   1  10 1000.42 728.604  13
   1   1  10 3093.99 1083.62  14
   1  -1  10 4261.71 1462.10  14
   1  -1  11 5666.25 1484.63  14
   1   1  11 6796.41 1539.62  14
   1   1  12 2087.39 998.163  14
   1  -1  12 1927.46 965.542  14
   1  -1  13 4875.31 1217.30  14
   1   1  13 5481.09 1209.55  14
   1   1  14-702.814 517.625  14
   1  -1  14 299.453 428.676  14
  -1   2  15 630.420 414.769  14
  -1  -2  15 36.6110 443.317  14
  -1  -2  14 449.158 657.406  14
  -1   2  14 575.942 610.519  14
  -1  -2  13 1224.26 855.410  14
  -1   2  13 564.133 761.174  14
  -1   2  12 1875.25 885.010  14
  -1  -2  12 2037.22 976.593  14
  -1   2  11 1410.88 584.624  13
  -1   2  11 858.258 801.856  14
  -1  -2  11 154.974 639.907  14
  -1  -2  10 17933.6 2245.03  14
  -1   2  10 18223.2 2301.21  14
  -1   2  10 16044.0 2097.76  13
  -1   2   9-78.5167 608.786  13
   1   2  -8 11617.1 1601.22   3
  -1  -2   8 8874.81 1291.39  13
   1  -2  -8 11017.8 1415.71   3
   1   2  -7 1339.24 802.252   3
   1  -2  -7 1533.14 697.448   3
   1  -2  -6 16456.0 1416.60   3
   1   2  -6 17162.2 1598.96   3
  -1  -2   5 3690.54 1138.53  16
   1  -2  -5 6311.83 813.900   3
   1   2  -5 5961.57 881.417   3
   1  -2  -4 919.105 380.137   3
   1   2  -4 1442.94 556.040   3
  -1  -2   4 1137.41 1042.99  16
  -1  -2   3 171931. 6147.30  16
  -1  -2   2 26402.9 2033.37  16
  -1   2   1 1951.66 656.667   1
  -1   2   0 219271. 4164.31   1
  -1   2  -1 806.172 391.870   2
   1  -2   2 206225. 5701.97  16
  -1  -2  -2 210572. 5862.95  16
   1  -2   2 207630. 4589.99   2
   1  -2   3 2673.97 727.932   2
   1  -2   3 2304.27 419.396  13
   1  -2   3 1863.37 1064.07  16
  -1  -2  -3 1895.47 987.562  16
   1   2   4 1673.13 521.974  13
   1  -2   4 3075.02 1250.91  16
   1  -2   4 1237.65 334.301  13
   1  -2   4 1750.08 678.679   2
  -1  -2  -4 2665.01 1289.07  16
   1   2   5 8760.08 1078.62  13
   1  -2   5 8201.20 1347.52   2
   1  -2   5 6951.64 854.949  13
   1   2   6 48574.3 2690.16  13
   1  -2   6 46930.7 2398.63  13
   1   2   7 24697.2 2106.79  13
   1  -2   7 24123.4 1903.45  13
   1   2   8 16443.9 1879.56  13
   1   2   9 1379.26 798.738  13
   1   2  10 8770.78 1687.20  14
   1   2  10 9889.57 1684.52  13
   1  -2  10 10441.8 1887.62  14
   1  -2  11 767.967 706.213  14
   1   2  11 278.132 634.836  14
   1   2  12-222.964 594.349  14
   1  -2  12 1938.75 967.671  14
   1   2  13-909.036 576.536  14
   1  -2  13 74.3952 584.965  14
   1   2  14 490.584 449.655  14
   1  -2  14-235.704 408.088  14
  -1  -3  15 2008.75 691.981  14
  -1   3  14-90.0208 436.387  14
  -1  -3  14 387.347 487.246  14
  -1  -3  13 3561.36 1176.28  14
  -1   3  13 2051.26 1010.20  14
  -1   3  12 4006.45 1137.85  14
  -1  -3  12 1935.55 1075.61  14
  -1  -3  11 6611.11 1578.16  14
  -1   3  11 6798.05 1469.31  13
  -1   3  11 7623.25 1692.98  14
  -1   3  10 2727.24 1038.95  13
  -1  -3  10 4242.75 1309.52  14
  -1   3  10 3540.56 1201.45  14
  -1   3   9 2331.10 924.563  13
   1  -3  -8 21080.2 1881.25   3
   1   3  -8 23779.8 2280.39   3
  -1   3   8 21062.2 2200.17  13
   1   3  -7 56036.4 3127.43   3
   1  -3  -7 52673.3 2722.72   3
   1  -3  -6 11765.5 1214.37   3
   1   3  -6 10882.2 1333.97   3
  -1  -3   5 98995.5 6442.82  16
   1  -3  -5 101493. 3062.45   3
   1   3  -5 97237.7 3410.05   3
   1   3  -4 4616.57 744.713   3
   1  -3  -4 5247.12 662.630   3
  -1  -3   4 4229.91 1179.43  16
   1  -3  -4 4456.96 1334.01  16
  -1  -3   3 573232. 11355.9  16
  -1  -3   2 11864.4 1418.78  16
  -1   3   1 44851.9 2267.80   1
  -1  -3   0 454620. 4399.93   2
  -1   3  -1 81854.2 2838.97   2
   1  -3   2 65324.4 2850.46   2
   1  -3   2 60706.3 3245.74  16
   1  -3   3 3363.32 792.717   2
  -1  -3  -3 2357.56 1118.13  16
   1  -3   3 4128.62 1260.39  16
   1  -3   4 3335.33 507.363  13
   1  -3   4 4379.07 990.501   2
   1   3   4 3087.23 619.327  13
   1  -3   4 2681.15 1223.88  16
  -1  -3  -4 2407.30 1192.24  16
   1  -3   5 23859.9 1486.16  13
   1   3   5 25121.1 1798.24  13
   1  -3   6 1840.83 530.516  13
   1   3   6 761.635 610.043  13
   1   3   7 359.181 514.511  13
   1   3   8 11089.2 1663.81  13
   1   3   9 3543.82 1168.55  13
   1   3  10 17710.6 2253.74  13
   1  -3  10 19176.5 2523.40  14
   1   3  10 21512.4 2558.74  14
   1  -3  11 2368.80 1030.90  14
   1   3  11 1121.18 680.281  14
   1   3  12 2643.14 999.306  14
   1  -3  12 2527.07 1030.61  14
   1  -3  13 3332.42 1011.58  14
   1   3  13 2836.11 849.243  14
   1  -3  14 841.885 616.246  14
  -1  -4  15 187.019 377.856  14
  -1  -4  14-444.696 599.351  14
  -1  -4  13 3060.89 1189.17  14
  -1   4  13 3236.53 1038.56  14
  -1   4  12 5740.64 1448.54  14
  -1  -4  12 6507.87 1599.28  14
  -1   4  11 775.692 780.256  13
  -1  -4  11 455.698 609.585  14
  -1   4  11 901.541 852.510  14
  -1  -4  10 5449.89 1328.56  14
  -1   4  10 6037.09 1363.89  13
  -1   4   9 1515.20 963.357  13
  -1   4   8 419.082 674.154  13
   1   4  -8-354.923 595.532   3
   1  -4  -7 130130. 4181.88   3
   1   4  -7 134723. 4992.03   3
   1  -4  -6 3435.03 714.932   3
   1   4  -6 4504.45 974.549   3
   1  -4  -5 12169.7 1065.51   3
   1   4  -5 12517.3 1327.32   3
   1   4  -4 11937.7 1155.14   3
   1  -4  -4 15332.0 1029.24   3
  -1  -4   4 13690.6 2277.13  16
  -1  -4   3 19137.1 2226.76  16
  -1   4   2 947.711 562.583   1
  -1   4   1 52640.9 2622.39   1
  -1  -4   0 13077.4 907.060   2
   1   4   1 1708.61 336.395   2
  -1  -4  -1 1671.53 346.898   1
   1  -4   2 1619.52 779.381   2
   1  -4   3 47430.6 3521.49  16
   1   4   3 49340.6 2088.30  13
   1  -4   3 48741.3 2907.57   2
   1   4   3 40723.0 1816.55   1
  -1  -4  -4 84.6587 878.163  16
   1  -4   4-436.978 901.886  16
   1   4   4 229.314 464.408  13
   1  -4   4 455.013 520.638   2
   1  -4   4 375.379 284.669  13
   1   4   5 53152.8 2698.77  13
   1   4   6 1071.00 531.608  13
   1   4   7 9886.42 1538.36  13
   1   4   8 1445.99 910.194  13
   1   4   9 1648.22 789.036  13
   1  -4   9 229.997 712.424  14
   1   4  10-346.939 653.281  14
   1  -4  10 1247.83 958.777  14
   1   4  10 565.358 885.668  13
   1   4  11 1826.71 917.906  14
   1  -4  11 1509.98 978.433  14
   1   4  12 945.997 803.383  14
   1  -4  12 790.752 726.983  14
   1  -4  13 2084.17 890.134  14
   1  -4  14-45.4908 410.602  14
  -1  -5  15 1074.14 524.916  14
  -1  -5  14-284.759 450.646  14
  -1  -5  13 340.037 582.987  14
  -1  -5  12 504.591 579.575  14
  -1  -5  11 2648.62 1099.16  14
  -1   5  11 2058.04 745.533  13
  -1  -5  10 18981.7 2479.35  14
  -1   5  10 17343.8 2257.33  13
  -1   5   9 4003.34 1207.75  13
  -1   5   8 3098.86 1031.63  13
   1   5  -8 1116.23 813.967   3
   1   5  -7 55176.1 3277.03   3
   1   5  -6 20069.1 1869.67   3
   1   5  -5 12853.9 1352.18   3
   1  -5  -5 13410.4 1080.64   3
  -1  -5   4 1353.10 1027.60  16
   1  -5  -4 2800.98 482.834   3
   1   5  -4 2168.51 623.085   3
  -1   5   3 1328.38 717.637   1
   1   5  -3 752.102 488.065   3
  -1  -5   3 225.051 635.747  16
  -1   5   2 118617. 4454.28   1
   1   5  -2 115685. 2722.71   3
  -1   5   1 24072.7 1964.45   1
  -1  -5   1 25465.4 1692.14   2
  -1  -5   0 193964. 3870.91   2
  -1  -5  -1 318154. 4596.69   1
  -1   5  -1 327935. 6713.19   2
   1   5   1 316845. 4148.01   2
   1   5   1 327897. 4151.23  13
  -1   5  -2 75987.8 3524.71   2
   1   5   2 60657.6 2139.29  13
   1   5   3 10611.8 920.203   1
   1  -5   3 13080.1 1654.29   2
   1  -5   3 12518.5 1935.78  16
   1   5   3 14691.2 1223.53  13
   1   5   4 8032.26 998.828  13
   1  -5   4 3714.03 1300.40  16
   1   5   5 12298.4 1438.38  13
   1   5   6 22368.4 2028.78  13
   1   5   7 6144.44 1289.19  13
   1   5   8 34033.3 2893.29  13
   1   5   9 130.500 646.180  13
   1   5   9 531.134 1541.13   6
   1  -5   9-666.590 925.836  14
   1   5  10 9205.10 1616.00  13
   1   5  10 5403.14 1853.92   6
   1  -5  10 10556.4 1926.92  14
   1  -5  11 19050.1 2556.59  14
   1  -5  12 3945.61 1167.36  14
   1  -5  13 54.1021 484.300  14
   1  -5  14 775.793 545.838  14
  -1  -6  15 631.766 479.779  14
  -1  -6  14-178.581 454.647  14
  -1  -6  13 563.163 699.045  14
  -1  -6  12-273.162 684.260  14
  -1  -6  11 2160.10 808.259  14
  -1   6  10 46556.0 3726.12  13
  -1  -6  10 45889.9 3771.36  14
  -1   6   9-775.816 708.661  13
   1   6  -8 45919.7 3372.92   3
  -1   6   8 47548.2 3435.26  13
   1   6  -7 8356.26 1480.18   3
   1   6  -6 4768.46 1024.90   3
   1   6  -5 1810.57 693.264   3
  -1   6   5 2983.50 1119.89   1
  -1   6   4 1232.28 763.721   1
   1   6  -4 1101.10 537.545   3
  -1  -6   4 1225.71 752.166  16
  -1  -6   3 39365.6 2852.64   2
   1   6  -3 36370.7 1840.09   3
  -1  -6   3 34030.1 3150.99  16
  -1   6   3 34630.1 2738.29   1
  -1  -6   2 114.850 499.005   2
   1   6  -2 966.047 407.095   3
  -1   6   2 334.614 503.835   1
   1  -6  -1 35561.2 2557.94   1
   1   6  -1 32376.7 1393.81   4
  -1  -6   1 33924.7 2136.53   2
  -1   6   1 30120.2 1672.28   7
  -1   6   0 75800.6 3382.20   2
   1   6   0 80367.8 2198.53   4
  -1  -6  -1 812.757 427.234   1
   1   6   1 1095.16 369.151  13
   1   6   1 179.541 289.794   2
   1   6   2 111741. 2978.92  13
  -1   6  -2 110346. 4528.11   2
   1   6   2 117753. 3993.03   7
   1   6   2 110946. 2585.81   2
   1  -6   3 13651.8 1792.96   2
   1  -6   3 12204.6 1973.98  16
   1   6   3 11744.8 1133.76  13
   1   6   4 3722.45 766.363  13
   1   6   5 1047.95 652.259  13
   1   6   6 51530.0 3114.73  13
   1   6   7 6564.23 1385.62  13
   1   6   8 22142.3 2393.93  13
   1  -6   9-1179.24 813.276  14
   1   6   9 207.091 779.209  13
   1   6   9-453.389 1215.70   6
   1   6  10 2037.89 1168.39   6
   1  -6  10 2344.34 1077.46  14
   1   6  10 2819.98 1083.47  13
   1  -6  11 630.992 666.245  14
   1  -6  12 1857.46 966.649  14
   1  -6  13 2109.65 924.090  14
   1  -6  14 519.167 508.151  14
  -1  -7  15 3232.55 788.560  14
  -1  -7  14 243.108 440.990  14
  -1  -7  13 96.3480 490.736  14
  -1  -7  12 9007.56 1765.74  14
  -1  -7  11 2426.36 1051.11  14
   1   7 -10 885.429 1083.53   9
  -1   7  10-503.696 637.527  13
  -1  -7  10 2163.94 1111.76  14
  -1   7   9 957.511 916.293  13
  -1   7   8 19077.4 2220.85  13
   1   7  -7 45371.1 3097.47   3
   1   7  -6 12524.9 1577.82   3
   1   7  -5 27184.4 2021.65   3
   1   7  -4 1979.93 580.410   3
  -1   7   4 4522.23 1148.43   1
   1   7  -3 50379.6 2187.38   3
  -1  -7   3 51771.9 3462.46   2
  -1   7   3 48897.0 3335.99   1
  -1   7   2 22354.3 2186.10   1
  -1  -7   2 20979.3 2043.31   2
   1   7  -2 19989.0 1210.15   3
  -1  -7   1 17162.9 1647.78   2
   1  -7  -1 16345.7 1878.70   1
  -1   7   1 14869.1 1282.75   7
   1   7  -1 16901.2 1077.50   4
  -1   7   0 119573. 4540.06   2
   1   7   0 126107. 2937.23   4
  -1   7   0 121046. 3344.16   7
   1  -7   0 132270. 5166.16   1
   1   7   1 1535.43 505.514   2
  -1  -7  -1 2146.85 618.853   1
  -1   7  -1 1659.44 533.637   7
   1   7   1 1527.09 389.283  13
  -1   7  -1 2071.73 737.866   2
   1   7   2 1276.15 826.553   7
  -1   7  -2 636.605 729.909   2
   1   7   2 354.281 304.857  13
   1   7   2 329.019 305.940   2
   1   7   3 25433.4 1683.30  13
   1   7   4 2134.33 698.256  13
   1   7   5 20110.1 1911.52  13
   1   7   6 25290.0 2269.57  13
   1   7   7-409.339 611.597  13
   1   7   8 15359.9 2016.19  13
   1   7   9 4800.39 1865.44   6
   1   7   9 8044.10 1572.81  13
   1  -7   9 5290.50 1265.00  14
   1   7  10 28690.0 2972.38  13
   1   7  10 26299.6 3777.34   6
   1  -7  10 25273.6 2893.62  14
   1  -7  11 834.544 717.730  14
   1  -7  12-1148.96 750.744  14
   1  -7  13 380.975 598.181  14
   1  -7  14 756.862 499.976  14
  -1  -8  15 290.130 336.920  14
  -1  -8  14 407.855 507.693  14
  -1  -8  13 5889.55 1300.62  14
  -1  -8  12 546.694 617.301  14
  -1  -8  11-81.7534 730.299  14
  -1   8  10-505.184 712.349  13
  -1  -8  10 1134.61 809.336  14
  -1   8   9 15167.9 2112.49  13
  -1   8   8 1304.96 966.065  13
  -1   8   7 14749.0 1916.91  13
   1   8  -7 14994.9 1880.92   3
   1   8  -6 7379.03 1262.71   3
   1   8  -5 45461.1 2737.56   3
   1   8  -4 3641.43 780.560   3
  -1   8   4 2418.15 975.221   1
  -1   8   3 7203.08 1409.33   1
   1   8  -3 7550.03 943.403   3
  -1   8   2 3496.65 938.394   7
  -1  -8   2 5055.72 1144.15   2
   1   8  -2 2838.16 517.084   3
  -1  -8   1 45560.5 2817.35   2
   1  -8  -1 45034.6 3249.04   1
   1   8  -1 46159.8 2634.24   7
  -1   8   1 43185.2 2333.54   7
   1   8  -1 45450.5 1871.79   4
  -1   8   0 16501.3 1418.30   7
   1   8   0 13047.0 854.781  13
  -1   8   0 17727.3 1909.21   2
   1   8   0 13713.7 1102.41   4
   1   8   0 15893.0 1556.61   7
  -1  -8  -1 1800.72 634.080   1
  -1   8  -1 1576.75 751.075   2
   1   8   1 1405.00 364.781  13
   1   8   1 283.098 514.690   7
   1   8   1 996.388 508.129   2
  -1   8  -1 823.687 487.404   7
   1   8   2 8842.92 1394.14   7
   1   8   2 8810.38 951.171   2
   1   8   2 9048.10 968.664  13
   1   8   3 118704. 3650.03  13
   1   8   4 44539.1 2512.05  13
   1   8   5 143527. 4861.20  13
   1   8   6 8381.17 1371.38  13
   1   8   7 2935.01 873.420  13
   1   8   8 3560.22 1059.16  13
   1   8   9 402.342 800.917  13
   1  -8   9 497.687 740.939  14
   1  -8  10 1907.42 833.999  14
   1   8  10 244.363 1448.31   6
   1  -8  11-333.366 636.846  14
   1   8  11 716.467 1398.15   6
   1  -8  12 232.482 508.870  14
   1  -8  13 2570.72 845.217  14
   1  -8  14-1628.05 591.288  14
  -1  -9  14-446.789 478.915  14
  -1  -9  13 6421.60 1390.12  14
  -1  -9  12 381.978 706.363  14
  -1  -9  11-137.804 665.932  14
   1   9 -10 6512.99 1654.71   9
  -1   9  10 9826.98 1808.94  13
  -1   9  10 11035.1 2766.78   6
  -1  -9  10 6660.07 1580.09  14
  -1   9   9 4549.95 1604.79   6
   1   9  -9 4417.13 1458.26   9
  -1  -9   9 5096.45 1409.38  14
  -1   9   9 2939.21 1120.65  13
  -1   9   8 1843.53 868.800  13
  -1   9   7-864.505 815.114  13
   1   9  -6 290.766 532.452   3
  -1   9   6 701.104 677.945  13
   1   9  -5 11717.9 1499.81   3
   1   9  -4 126650. 4028.79   3
  -1   9   4 121237. 5955.49   1
   1   9  -3 13944.9 1238.36   3
  -1   9   2 66731.4 3290.92   7
   1   9  -2 73488.0 3668.58   7
   1   9  -2 72753.1 2401.46   3
  -1   9   1 253.626 531.957   7
  -1   9   1 928.952 656.267   2
   1  -9  -1 440.582 632.299   1
   1   9  -1 813.205 420.070   4
   1   9  -1-175.680 566.033   7
   1   9   0 157766. 5070.15   7
   1   9   0 151622. 3654.61   4
  -1   9   0 144819. 5702.03   2
  -1   9   0 145275. 4344.06   7
  -1   9  -1 54710.0 3667.87   2
  -1   9  -1 49216.7 2586.77   7
   1   9   1 53105.7 3044.87   7
   1   9   1 52468.9 1999.51  13
  -1  -9  -1 55303.7 3099.63   1
   1   9   2 40071.8 1997.55  13
  -1   9  -2 43524.9 2583.82   7
   1   9   2 44905.1 2979.80   7
   1   9   3 20746.5 1618.02  13
   1   9   4 1938.08 625.056  13
   1   9   5 1617.26 673.851  13
   1   9   6 9076.25 1467.65  13
   1   9   7 7222.95 1453.38  13
   1   9   8 25359.2 2714.48  13
   1   9   9 2420.23 1125.36  13
   1   9   9-845.105 1562.29   6
   1  -9   9-1099.33 690.532  14
   1  -9  10 15213.0 2199.70  14
   1   9  10 16473.8 3157.27   6
   1  -9  11 3614.77 1173.99  14
   1   9  11-1387.40 1654.56   6
   1  -9  12 5455.72 1379.83  14
   1  -9  13 687.681 636.275  14
   1  -9  14 561.309 325.888  14
  -1 -10  14 958.672 506.637  14
  -1 -10  13-150.376 479.252  14
  -1 -10  12 8650.77 1696.13  14
  -1  10  11-784.277 1009.91   6
  -1 -10  11 151.219 571.650  14
  -1  10  10 24855.3 3681.15   6
  -1 -10  10 24868.1 2835.95  14
  -1  10  10 30503.9 3177.06  13
  -1 -10   9 198.105 802.197  14
  -1  10   9-657.138 794.541  13
   1  10  -9-471.976 982.135   9
  -1  10   8 24904.5 2679.89  13
  -1  10   7 2398.12 1042.10  13
  -1  10   6 1717.91 977.774  13
   1  10  -5 14012.5 1578.38   3
   1  10  -4 12415.1 1364.90   3
   1  10  -3 3493.73 733.741   3
   1  10  -2 119.037 291.907   3
  -1  10   2 1188.83 800.403   7
   1  10  -2 1179.81 819.186   7
  -1  10   1 35168.9 2947.49   2
  -1  10   1 35662.8 2402.83   7
   1  10  -1 35393.6 2614.34   7
   1  10   0 63712.6 3469.39   7
  -1  10   0 59438.1 2997.98   7
   1  10   0 60357.8 2447.72   4
  -1  10   0 63236.2 4021.60   2
  -1 -10   0 65339.6 3861.49   1
   1  10   1 24967.9 1437.99  13
   1  10   1 25097.6 1685.05   4
   1  10   1 25991.6 2335.65   7
  -1 -10  -1 24459.2 2280.96   1
  -1  10  -1 23548.6 1954.70   7
   1  10   2 91134.5 4482.06   7
   1  10   2 91565.6 3039.18  13
  -1  10  -2 82176.3 3687.45   7
   1  10   3 32492.9 2082.37  13
   1  10   4 179.811 478.799  13
   1  10   5 13158.3 1667.44  13
   1  10   6 4778.48 1138.84  13
   1  10   7 3051.33 991.370  13
   1  10   8 8041.73 2318.28   6
   1 -10   8 8619.53 1645.55  14
   1  10   8 8836.23 1671.11  13
   1 -10   9-223.470 608.227  14
   1  10   9 1057.74 953.540  13
   1  10   9 225.254 1224.98   6
   1 -10  10 58.2886 539.929  14
   1  10  10 613.118 1333.07   6
   1  10  11-1106.38 1587.30   6
   1 -10  11-172.647 800.652  14
   1 -10  12 254.244 508.027  14
   1 -10  13 609.190 470.378  14
   1  11 -14 2217.71 1465.34  12
  -1 -11  14 612.039 491.557  14
  -1 -11  13 2407.28 897.706  14
  -1 -11  12 5185.74 1282.03  14
  -1  11  11 4024.86 1898.85   6
  -1 -11  11 2337.75 934.410  14
  -1 -11  10 4380.42 1388.16  14
  -1  11  10 894.771 1165.46   6
  -1  11   9-295.170 658.645  13
  -1 -11   9-5.90681 629.007  14
   1  11  -9 192.064 1128.72   9
  -1  11   8 8829.41 1629.40  13
  -1  11   7 20963.0 2320.75  13
  -1  11   6-399.304 626.352  13
  -1  11   5 35541.9 2550.77  13
  -1  11   4 43415.0 2581.49  13
  -1  11   3 29059.5 1863.35  13
   1  11  -3 27465.9 2624.58   7
   1  11  -2 97332.4 4642.38   7
  -1  11   2 102090. 4486.81   7
   1  11  -1 30696.2 2608.98   7
  -1  11   1 25960.2 2221.22   7
  -1 -11   0 1049.82 719.181   1
   1  11   0 1263.91 767.633   7
   1  11   0 1644.43 484.295   4
  -1  11   0 312.710 683.457   7
   1  11   1 24233.4 2374.01   7
  -1  11  -1 22604.2 2026.44   7
   1  11   1 22185.4 1662.67   4
   1  11   2 36941.1 2002.74  13
   1  11   2 37611.2 3034.42   7
  -1  11  -2 34143.7 2533.87   7
   1  11   3 34242.8 2162.03  13
  -1  11  -3 33932.2 2667.37   7
   1  11   4 2309.97 790.788  13
   1  11   5-248.300 593.873  13
   1  11   6 9725.43 1514.43  13
   1  11   7-396.053 869.667  13
   1  11   8 10212.4 2647.35   6
   1  11   8 8824.80 1727.72  13
   1  11   9-52.6828 659.314  13
   1 -11   9-150.622 626.267  14
   1  11  10 7778.54 2375.42   6
   1 -11  10 6558.08 1470.64  14
   1 -11  11 2683.19 1085.02  14
   1  11  11 1747.49 1406.85   6
   1 -11  12 979.253 557.178  14
  -1  11 -13 6411.59 2461.09  12
  -1  11 -13 4552.19 1264.66  10
   1 -11  13 3500.84 881.907  14
   1  12 -14 53.7410 1196.49  12
  -1 -12  13-194.936 403.690  14
   1  12 -13-348.355 1432.27  12
  -1 -12  12 3586.32 971.767  14
  -1  12  12 2776.06 1491.05   6
  -1 -12  11 1411.57 825.678  14
  -1  12  11 1364.07 1474.32   6
  -1 -12  10 96.1100 514.418  14
  -1  12  10-1042.53 1182.68   6
  -1  12   9 5242.05 1318.05  13
   1  12  -9 7403.50 1890.12   9
   1  12  -8 757.167 747.588   9
  -1  12   8-54.1570 634.196  13
  -1  12   7 44834.4 3383.57  13
  -1  12   6 1702.22 854.220  13
  -1  12   5 20564.3 1985.35  13
  -1  12   4 1.67080 380.511  13
   1  12  -3 12052.3 1896.62   7
  -1  12   2 1982.33 1066.92   7
   1  12  -2 574.007 952.490   7
  -1  12   1 51674.5 3219.34   7
   1  12  -1 54226.2 3611.89   7
  -1  12   0 35757.2 2695.17   7
   1  12   0 38290.7 3022.48   7
   1  12   0 37115.5 2134.91   4
   1  12   1 15373.7 2082.86   7
   1  12   1 16724.1 1519.23   4
  -1  12  -1 15041.4 1819.27   7
   1  12   2 12872.3 1991.30   7
   1  12   2 11847.5 1372.16   4
  -1  12  -2 10010.0 1465.18   7
   1  12   2 10583.6 1152.27  13
  -1  12  -3 93601.2 4569.96   7
   1  12   3 94159.1 3673.49  13
  -1  12  -4 137.162 748.269   7
   1  12   4 440.194 481.434  13
   1  12   5 46471.8 3091.64  13
   1  12   6 1888.22 833.125  13
   1  12   7 13066.8 2043.74  13
   1  12   8 967.434 804.690  13
   1  12   8 1784.29 1883.22   6
   1  12   9 1664.84 1804.17   6
   1  12  10 1326.81 1418.30   6
   1 -12  10-120.355 600.975  14
   1 -12  11 63.4326 551.179  14
   1  12  11-1148.27 1184.32   6
  -1  12 -12 938.877 1529.20  12
   1 -12  12 155.896 406.777  14
   1 -12  13 2853.47 791.142  14
  -1  12 -13 2469.02 1001.81  10
  -1 -13  13 1763.71 648.740  14
   1  13 -13 1177.52 1419.23  12
  -1 -13  12 2218.59 829.590  14
   1  13 -12 1698.80 2159.12  12
  -1  13  12 2472.27 1287.48   6
  -1  13  11 2112.00 1219.27   6
  -1  13  10-2313.07 1461.62   6
   1  13  -9 839.993 1192.18   9
  -1  13   9 1170.49 982.814  13
  -1  13   8 3245.10 1063.41  13
  -1  13   7 4262.92 1189.51  13
  -1  13   6 3325.61 970.521  13
  -1  13   5 31062.7 2481.66  13
  -1  13   4 5723.86 988.635  13
   1  13  -4 6427.01 1624.38   7
   1  13  -3 2929.20 1082.93   7
   1  13  -2 21824.8 2549.82   7
  -1  13   2 20090.2 2318.37   7
  -1  13   1 5683.88 1199.65   7
   1  13  -1 6034.28 1499.88   7
   1  13   0 46364.3 2492.88   4
  -1  13   0 43084.8 3057.92   7
   1  13   0 47488.5 3602.34   7
  -1  13  -1 11279.2 1623.23   7
   1  13   1 10112.6 1285.99   4
   1  13   1 8370.42 1662.59   7
   1  13   2 3083.78 764.246   4
   1  13   2 4389.78 1559.52   7
  -1  13  -2 2436.04 913.125   7
  -1  13  -3-336.251 804.385   7
   1  13   3 140.597 417.807  13
   1  13   4 8565.08 1297.01  13
   1  13   5 2875.19 946.299  13
   1  13   6 12351.7 1809.17  13
   1  13   7 10761.0 1859.85  13
   1  13   8 10052.5 1775.23  13
   1  13   8 8678.67 2593.19   6
   1  13   9 1982.23 1590.49   6
   1  13  10 1824.52 1590.76   6
   1 -13  11-168.651 511.845  14
   1  13  11-64.0113 1152.23   6
  -1  13 -11-2432.86 2384.59  12
  -1  13 -12 2903.38 2212.99  12
   1 -13  12 951.476 650.333  14
  -1  13 -13-342.627 658.201  10
   1  14 -13 2772.73 1954.04  12
   1  14 -12 4266.49 2617.24  12
  -1  14  12 1054.52 1270.47   6
   1  14 -11 1452.64 2204.53  12
  -1  14  11-2660.94 1833.77   6
  -1  14  10 9804.43 2643.87   6
   1  14  -9 23015.8 3084.41   9
  -1  14   8 2946.63 1106.79  13
  -1  14   7 2810.23 857.277  13
   1  14  -6 445.068 1025.05   7
  -1  14   6 1019.62 691.055  13
  -1  14   5 255.530 535.005  13
   1  14  -5 14.0164 1118.46   7
   1  14  -4-1833.34 1367.78   7
   1  14  -3 193.447 835.743   7
   1  14  -2 857.542 1008.03   7
  -1  14   2 1639.73 1031.61   7
   1  14  -1 9117.98 1647.67   7
  -1  14   1 11246.7 1803.36   7
   1  14   0 65425.3 3111.16   4
   1  14   0 67934.3 4437.73   7
  -1  14   0 61336.6 3872.52   7
   1  14   1 1769.64 707.130   4
  -1  14  -1 306.141 711.338   7
  -1  14  -2 10656.2 1705.14   7
   1  14   2 14889.7 2405.88   7
   1  14   2 11639.9 1503.67   4
  -1  14  -3 3046.71 1080.07   7
   1  14   3 3000.00 840.895   4
   1  14   4 9771.57 1370.95  13
   1  14   5 1922.60 708.573  13
   1  14   6 6052.65 1377.70  13
   1  14   7 9216.91 1678.96  13
  -1  14  -7 16723.3 4633.66  12
   1  14   8 2967.05 1821.06   6
  -1  14  -8 2731.28 2536.87  12
   1  14   8 3558.67 1114.11  13
   1  14   9-33.6032 1313.08   6
  -1  14  -9 1728.25 1944.94  12
  -1  14 -10 10294.4 4086.66  12
   1  14  10 8739.84 2443.90   6
  -1  14 -11 1681.23 1856.21  12
   1  14  11 744.399 1107.49   6
  -1  14 -12 356.746 570.899  10
   1  15 -13 3101.80 1872.90  12
  -1  15  12 2699.21 1184.70   6
   1  15 -12 5716.35 2416.14  12
   1  15 -11-79.7291 1600.96  12
  -1  15  11 175.760 1087.82   6
  -1  15  10-907.798 1143.34   6
   1  15 -10 643.759 1701.71  12
   1  15  -9 12143.1 4225.91  12
  -1  15   8 7631.95 1534.29  13
   1  15  -8 8155.07 3550.85  12
   1  15  -8 9213.43 2339.22   7
   1  15  -7 1374.35 1204.03   7
  -1  15   7 1899.14 860.910  13
   1  15  -7 1106.38 2641.16  12
   1  15  -6 218.062 1044.83   7
   1  15  -5 9377.63 1991.25   7
   1  15  -4 12072.7 2189.42   7
   1  15  -3 26044.3 3044.52   7
   1  15  -2 21751.4 2763.06   7
  -1  15   1 2737.62 1125.73   7
   1  15  -1 2862.35 1223.40   7
   1  15   0 572.589 488.404   4
   1  15   0-82.0237 1092.90   7
  -1  15   0-233.414 919.261   7
   1  15   1 2504.27 1314.00   7
  -1  15  -1 2680.18 1065.96   7
   1  15   1 3047.16 841.224   4
   1  15   2 14254.6 2500.11   7
   1  15   2 15331.9 1725.61   4
  -1  15  -2 13451.5 1976.59   7
   1  15   3 728.408 574.443   4
   1  15   4-1131.51 801.030   4
   1  15   5 673.930 488.260  13
   1  15   6 1370.01 808.601  13
  -1  15  -6 226.608 1708.92  12
  -1  15  -7 2349.66 2684.96  12
   1  15   7 4252.14 1218.60  13
   1  15   8 1420.14 1466.08   6
  -1  15  -8 1953.25 2243.77  12
   1  15   9-67.7490 1316.05   6
  -1  15  -9 1985.27 1699.97  12
  -1  15 -10 1862.55 2149.44  12
   1  15  10 1815.72 1383.15   6
   1  15  11 5898.28 2073.21   6
  -1  15 -11 9549.74 2863.21  12
  -1  15 -12 475.690 709.064  10
   1  16 -13 895.453 637.105  10
   1  16 -13 361.766 1242.80  12
   1  16 -12 265.817 1459.72  12
  -1  16  12 2206.14 1229.26   6
   1  16 -11 9.63223 1956.71  12
  -1  16  11-464.911 1153.06   6
   1  16 -10 3927.76 2646.91  12
  -1  16  10 1588.83 1600.62   6
   1  16  -9 8674.93 3454.36  12
   1  16  -8 5246.49 3140.90  12
   1  16  -7 6306.35 1823.47   7
   1  16  -7 4683.82 2665.33  12
  -1  16   6 1640.18 1476.70  11
   1  16  -6 3850.19 2754.94  12
   1  16  -6-303.697 1046.22   7
   1  16  -5 25601.0 3333.90   7
   1  16  -4-1187.24 1132.08   7
   1  16  -3 16325.1 2488.23   7
   1  16  -2 108.318 1015.14   7
   1  16  -1 2224.29 1305.95   7
  -1  16   1 3454.26 1337.80   7
  -1  16   0-287.385 715.982   7
   1  16   0-549.236 1177.08   7
   1  16   1 37402.5 2646.32   4
  -1  16  -1 35116.1 3200.67   7
   1  16   1 44148.9 4060.40   7
   1  16   2 21.0481 581.975   4
   1  16   2 3400.54 1703.43   7
   1  16   3 65787.9 3791.79   4
   1  16   4 808.621 678.368   4
   1  16   5 17368.7 2262.41   4
   1  16   6 2118.63 1019.47   4
  -1  16  -6 297.378 1748.66  12
   1  16   7-472.753 655.902  13
  -1  16  -7 861.441 2074.95  12
   1  16   7 972.006 712.369   4
   1  16   8 1611.69 1442.28   6
  -1  16  -8 2765.19 2203.52  12
  -1  16  -9 370.143 1717.70  12
   1  16   9-826.444 1258.15   6
   1  16  10 1085.62 1721.02   6
  -1  16 -10 1265.28 1641.35  12
   1  16  11-222.047 1049.43   6
  -1  16 -11-1192.61 867.790  10
  -1  16 -12-49.7553 596.654  10
   1  17 -12 2792.46 1605.42  12
  -1  17  12 653.262 957.998   6
   1  17 -11 1302.64 1753.90  12
  -1  17  11 401.290 1208.60   6
   1  17 -10 1100.57 2027.84  12
  -1  17  10 1473.30 1268.02   6
   1  17  -9 4555.85 2911.36  12
   1  17  -8 3811.64 2482.95  12
   1  17  -7 3165.78 1371.60   7
   1  17  -7 7452.33 3948.04  12
  -1  17   6 658.512 1138.99  11
   1  17  -6 920.554 2380.99  12
   1  17  -6 1012.48 945.077   7
   1  17  -5 15240.4 4488.34  12
  -1  17   5 12995.6 3111.85   8
   1  17  -5 8753.94 2021.89   7
  -1  17   5 11760.1 2924.52  11
   1  17  -4 2084.18 1151.09   7
   1  17  -3 2303.17 1267.17   7
   1  17  -2 16573.1 2576.47   7
   1  17  -1-2261.10 1484.53   7
  -1  17   1-153.675 940.845   7
   1  17   0 37921.8 3884.78   7
  -1  17   0 35471.9 3452.88   7
   1  17   1 16093.5 2698.82   7
   1  17   2 644.173 774.009   4
   1  17   3 14333.0 1892.09   4
   1  17   4 17987.9 3504.49  11
  -1  17  -4 20681.2 3233.60  10
   1  17   4 19546.5 3721.41   8
   1  17   4 22196.9 2462.53   4
   1  17   5 3992.11 1282.75   4
   1  17   5 6366.73 2302.07   8
  -1  17  -5 5971.98 2897.30  12
  -1  17  -6-4735.96 2577.61  12
   1  17   6 443.185 610.855   4
  -1  17  -7 1559.63 1492.81  12
   1  17   8 2995.19 1890.89   6
  -1  17  -8 2650.22 1837.40  12
  -1  17  -9-1219.86 2078.59  12
   1  17   9 9.11454 1309.29   6
  -1  17 -10 5031.56 1608.44  10
   1  17  10 4678.26 1793.91   6
   1  17  11 2559.49 1222.88   6
  -1  17 -11 1463.70 925.875  10
  -1  17 -12 1530.53 719.767  10
   1  18 -12 2880.93 1993.81  12
   1  18 -12 4061.66 1355.02  10
  -1  18  12 1460.41 981.431   6
   1  18 -11 2353.54 1954.20  12
  -1  18  11 4227.99 1640.16   6
   1  18 -10 4515.49 3022.08  12
  -1  18  10 5953.10 2200.69   6
   1  18  -9 1885.85 1735.93  12
   1  18  -8 4040.85 3246.75  12
   1  18  -7 518.642 2089.25  12
   1  18  -6 1113.35 1004.81   7
  -1  18   6 1410.27 1494.23  11
   1  18  -6-64.9666 1578.91  12
  -1  18   5 1383.87 1508.72  11
   1  18  -5-2655.20 2310.45  12
  -1  18   5 2081.79 1651.09   8
   1  18  -5 1395.40 1287.74   7
  -1  18   4-2784.98 1742.89   8
   1  18  -4-3970.72 2607.43  12
   1  18  -4 1028.96 948.811   7
   1  18  -3 388.811 982.429   7
   1  18  -2 317.247 1175.89   7
  -1  18   1 3549.47 1392.83   7
   1  18  -1 2637.06 1294.00   7
   1  18   0 23926.3 3305.69   7
   1  18   1 6707.74 1961.20   7
   1  18   3 4142.39 1984.26   8
   1  18   3 4328.76 1191.84   4
   1  18   3 2638.19 1714.46  11
  -1  18  -4 2393.39 2715.87  12
   1  18   4-714.918 1227.40   8
  -1  18  -4 1118.38 998.616  10
   1  18   4 1689.20 792.972   4
   1  18   4 79.3787 1319.83  11
  -1  18  -5 1460.03 1682.23  12
   1  18   5-725.589 843.803   4
  -1  18  -5-1466.19 1066.04  10
   1  18   5 546.079 1342.26   8
  -1  18  -6 25718.3 5420.67  12
  -1  18  -6 20837.1 3331.86  10
  -1  18  -7 2327.15 2489.79  12
  -1  18  -7 1690.36 1241.72  10
  -1  18  -8 1162.76 1055.12  10
  -1  18  -8 582.186 1889.72  12
   1  18   8 1318.41 1715.34   6
  -1  18  -9 3612.89 2521.96  12
   1  18   9-432.989 1178.67   6
  -1  18  -9 1996.33 1247.94  10
  -1  18 -10 771.857 857.112  10
   1  18  10 2156.64 1495.41   6
   1  18  11-1170.48 849.086   6
  -1  18 -11 83.2967 531.937  10
   1  19 -12 2245.67 880.677  10
   1  19 -11-664.210 1264.10  12
   1  19 -11-109.725 653.728  10
  -1  19  11-629.228 1110.26   6
  -1  19  10 455.634 1146.07   6
   1  19 -10 1160.05 1803.80  12
   1  19  -9-311.944 1987.47  12
   1  19  -8 4469.45 3156.97  12
   1  19  -7 12857.3 4380.15  12
  -1  19   6 1544.68 1686.64   8
  -1  19   6-661.713 1052.20  11
   1  19  -5 6628.23 1886.99   7
  -1  19   5 5809.83 2261.96  11
  -1  19   5 9522.30 3079.33   8
   1  19  -5 5533.95 3319.89  12
   1  19  -4-2268.50 2116.88  12
   1  19  -4-1844.05 1606.35   7
  -1  19   4 530.553 1076.84  11
  -1  19   4-442.023 1622.98   8
   1  19  -3 3123.63 1388.30   7
  -1  19   3 5606.06 1927.09  11
   1  19  -3 5401.07 2345.99  12
  -1  19   3 8198.16 2646.17   8
   1  19  -2 10822.9 2340.24   7
  -1  19   2 10501.0 2623.89  11
   1  19  -2 11315.9 3777.89  12
   1  19  -2 10406.3 2851.07   8
   1  19  -1 2013.16 1440.30   7
   1  19  -1 311.843 1892.53  12
   1  19  -1 3615.06 1774.98   8
   1  19   0 17386.2 2981.87   7
   1  19   0 21589.5 5075.27  12
   1  19   0 21190.1 3937.40   8
   1  19   1 743.470 2073.77  12
   1  19   1-258.998 1221.84   7
   1  19   1 253.543 1211.86   8
   1  19   2 143.337 1186.90   8
   1  19   2 353.650 1218.04  11
  -1  19  -3 4224.34 2871.07  12
   1  19   3 4915.09 2050.12  11
   1  19   3 6905.22 2601.63   8
   1  19   4 1815.39 919.647   4
  -1  19  -4 2972.45 2032.24  12
   1  19   4 4030.79 2179.39   8
  -1  19  -4 3047.39 1387.68  10
   1  19   5 3541.11 1984.49   8
  -1  19  -5 5515.01 3266.01  12
   1  19   5 2393.78 812.887   4
  -1  19  -5 6995.32 1901.78  10
  -1  19  -6 216.880 933.777  10
  -1  19  -6-2508.09 2050.21  12
  -1  19  -7 724.807 1097.24  10
  -1  19  -7-338.394 1489.24  12
  -1  19  -8 4295.54 1459.09  10
   1  19   8 314.404 1452.25   6
   1  19   9-687.716 1236.03   6
  -1  19  -9-2444.53 1141.80  10
   1  19  10 2727.15 1215.52   6
  -1  19 -10-335.145 604.680  10
   1  19  11 3015.33 1180.69   6
  -1  19 -11 3581.18 1132.91  10
  -1  20  11 198.181 1043.40   6
   1  20 -11-641.806 1430.40  12
   1  20 -11 277.125 607.307  10
   1  20 -10 1040.55 765.275  10
   1  20 -10-102.950 1348.88  12
  -1  20  10 1634.61 1285.74   6
   1  20  -9 7703.17 1879.64  10
   1  20  -9 9677.52 3333.74  12
   1  20  -8-729.882 816.374  10
   1  20  -8 781.231 1624.22  12
   1  20  -7 10613.7 4049.08  12
  -1  20   6 464.108 1117.11   8
   1  20  -6 5092.90 2977.52  12
  -1  20   5 15654.2 3535.65   8
  -1  20   5 12776.9 3077.06  11
   1  20  -5 14266.6 4756.67  12
   1  20  -4 2871.12 2441.32  12
   1  20  -4-2247.51 1320.88   7
  -1  20   4 3263.49 1509.58   8
  -1  20   4 3470.07 2075.88  11
  -1  20   3 1294.71 987.447  11
  -1  20   3-1988.64 1965.57   8
   1  20  -3-289.460 936.471   7
  -1  20   2 649.202 1168.00  11
   1  20  -2 1499.87 1726.52   8
  -1  20   2 2174.16 1921.44   8
   1  20  -2 3173.72 2917.69  12
   1  20  -2 869.731 998.469   7
   1  20  -1 1305.37 2308.08  12
   1  20  -1 377.921 1883.00   8
   1  20  -1 2818.19 1247.73   7
  -1  20   0 181.546 1940.43  12
   1  20   0-1275.42 1767.00  12
   1  20   0 2050.73 1532.55   7
   1  20   0 369.079 1460.65   8
  -1  20  -1 27260.5 5510.14  12
   1  20   1 23137.7 4248.20   8
   1  20   1 22757.9 3422.16   7
   1  20   2 2441.35 1709.39   8
   1  20   2 840.600 1606.89  11
  -1  20  -2 1805.99 1688.29  12
  -1  20  -2-871.710 2022.24   8
   1  20   3 516.371 1341.16  11
  -1  20  -3-114.931 2351.16  12
   1  20   3-861.722 1609.71   8
  -1  20  -4 5064.14 3159.70  12
   1  20   4 138.215 1222.20   8
  -1  20  -5 14473.3 2686.06  10
   1  20   5 15205.8 3569.97   8
  -1  20  -5 11666.9 3940.56  12
  -1  20  -6 271.205 964.708  10
  -1  20  -6-2407.82 2013.03  12
  -1  20  -7 1340.60 963.209  10
  -1  20  -8 299.738 914.568  10
   1  20   8-236.872 1098.40   6
  -1  20  -9-121.756 678.640  10
   1  20   9-4485.44 1596.81   6
   1  20  10 60.6334 1051.99   6
  -1  20 -10 1507.88 808.171  10
  -1  21  11-449.482 690.247   6
  -1  21  10-422.071 817.141   6
   1  21 -10 65.7514 622.046  10
   1  21 -10 145.975 1226.83  12
   1  21  -9 1789.88 971.161  10
  -1  21   9 1516.32 1187.32   6
   1  21  -8-751.649 2234.45  12
   1  21  -8-417.664 771.507  10
   1  21  -7-288.600 2574.40  12
   1  21  -6 8519.72 3658.60  12
  -1  21   6 7265.62 2456.92   8
  -1  21   5 1937.57 1710.57   8
   1  21  -5 35.6472 1856.52  12
  -1  21   5 2766.86 1524.65  11
  -1  21   4 15590.4 3584.62   8
   1  21  -4 11930.0 4380.54  12
  -1  21   4 14490.1 3233.54  11
   1  21  -3 515.414 2150.42  12
   1  21  -3-1549.76 1120.22   7
  -1  21   3 2316.23 1809.42  11
  -1  21   3-584.042 1805.61   8
  -1  21   2 5733.85 2331.74   8
   1  21  -2 9373.47 2360.57   8
  -1  21   2 5741.77 2111.28  11
   1  21  -2 5678.60 1891.71   7
   1  21  -2 11032.3 4249.61  12
  -1  21   1 2740.30 1304.94  11
   1  21  -1 2439.34 1118.19   7
  -1  21   1 5853.55 2335.37   8
   1  21  -1 3463.50 1824.14   8
   1  21  -1 5838.59 3391.35  12
   1  21   0 11758.7 3107.94   8
   1  21   0 11127.9 4594.46  12
  -1  21   0 15194.8 4396.60  12
  -1  21   0 16454.9 3775.13   8
   1  21   0 8840.79 2351.82   7
   1  21   1 4836.26 2047.89   8
  -1  21  -1 2240.87 1509.32   8
  -1  21  -2-296.876 1707.32   8
  -1  21  -2 2105.07 2479.07  12
   1  21   2 937.334 1126.08  11
   1  21   2-1098.21 1647.84   8
   1  21   3 2975.42 1473.70  11
   1  21   3 1738.31 1947.32   8
  -1  21  -3 1354.79 1576.88  12
   1  21   4 4189.84 2005.62   8
  -1  21  -4 8519.10 3920.84  12
   1  21   5 1162.17 1476.33   8
  -1  21  -5 1049.19 948.043  10
  -1  21  -6 191.304 755.866  10
   1  21   6-800.403 1117.25   8
  -1  21  -7 1721.10 1174.91  10
  -1  21  -8 2959.35 1467.83  10
   1  21   8 401.615 1077.26   6
  -1  21  -9-796.846 824.209  10
   1  21   9-755.778 1205.52   6
  -1  21 -10 3375.83 1054.71  10
   1  21  10 1396.52 961.567   6
  -1  22  10 4864.94 1462.32   6
   1  22 -10 4633.10 1129.36  10
   1  22 -10 6923.40 2462.72  12
  -1  22   9 2733.56 1364.12   6
   1  22  -9 3658.24 2082.43  12
   1  22  -8 1916.20 1870.62  12
   1  22  -7-1260.59 1767.99  12
  -1  22   6-258.721 1302.58   8
   1  22  -6-276.395 1838.63  12
   1  22  -5 2669.98 2500.87  12
  -1  22   5 3909.70 2141.44  11
  -1  22   5 3261.95 1627.97   8
   1  22  -4-2190.82 2113.72  12
  -1  22   4-141.858 984.986  11
  -1  22   4 1379.39 1554.78   8
   1  22  -3 3579.47 2307.17  12
  -1  22   3 2786.49 1848.94  11
  -1  22   3 6457.98 2656.49   8
   1  22  -2-23.4743 1174.63   8
   1  22  -2 2512.85 2939.17  12
  -1  22   2 2032.43 1613.20  11
  -1  22   2 2934.75 1989.52   8
  -1  22   1-238.641 1384.87   8
   1  22  -1 1122.90 1979.75  12
   1  22  -1 517.287 1402.06   8
  -1  22   1-1654.50 1558.08  11
  -1  22   0 8257.54 2374.67  11
   1  22   0 8908.37 2918.66   8
  -1  22   0 7843.05 2623.90   8
  -1  22  -1 3817.74 2016.03   8
   1  22   1 2860.64 2110.73   8
  -1  22  -1 6178.07 3078.31  12
  -1  22  -2 998.229 1113.19   8
   1  22   2 2814.02 1682.62  11
  -1  22  -2 1518.91 1556.53  12
   1  22   2 287.262 1848.10   8
   1  22   3 3301.38 2181.64   8
  -1  22  -3 6636.75 2953.17  12
   1  22   4-65.3006 1341.17   8
   1  22   5 4429.92 1906.92   8
   1  22   6 5589.82 2362.78   8
  -1  22  -6 8698.11 2124.34  10
   1  22   7 2541.24 1539.17   6
  -1  22  -7 1360.77 975.340  10
  -1  22  -8 1047.03 840.054  10
   1  22   8 470.594 971.531   6
   1  22   9 445.343 886.556   6
  -1  22  -9 738.401 728.883  10
  -1  23  10-1181.16 989.686   6
  -1  23   9-186.207 913.918   6
   1  23  -9 2843.44 1769.32  12
   1  23  -8 3042.21 1949.19  12
   1  23  -7 5689.71 2942.94  12
   1  23  -6-190.873 2011.17  12
  -1  23   6 827.440 1491.82   8
  -1  23   5 4478.54 2201.48   8
   1  23  -5 8772.67 3539.18  12
  -1  23   4 565.613 1236.66  11
   1  23  -4 100.762 2289.70  12
  -1  23   4 1173.31 1515.10   8
  -1  23   3 3704.52 1586.80  11
  -1  23   3 3271.66 1866.14   8
   1  23  -2 3946.90 1872.15   8
  -1  23   2 3315.75 2248.56   8
  -1  23   2 2626.59 1644.33  11
   1  23  -2 3722.72 2696.58  12
   1  23  -1 11255.1 4223.65  12
   1  23  -1 11099.7 3294.12   8
  -1  23   1 6749.27 2297.90  11
  -1  23   1 10867.7 3010.59   8
  -1  23   0-859.647 1456.56  11
  -1  23   0 437.686 1345.67   8
   1  23   0 1351.82 1694.79   8
  -1  23  -1-1317.26 1575.86   8
   1  23   1 79.7496 1503.07   8
  -1  23  -1-2189.09 1962.52  12
  -1  23  -2 985.722 1767.98  12
  -1  23  -2 1202.12 1334.51   8
   1  23   2 198.709 971.553  11
   1  23   2 1493.65 1533.04   8
   1  23   3-250.042 1258.54   8
   1  23   4-707.137 1633.86   8
   1  23   5 4217.33 2251.23   8
   1  23   6-140.824 1232.17   8
  -1  23  -6 142.408 650.542  10
   1  23   7 1042.21 972.452   6
  -1  23  -7 725.048 929.584  10
   1  23   8 888.021 1160.79   6
  -1  23  -8 707.239 597.544  10
   1  23   9 559.615 724.139   6
  -1  23  -9 88.0544 444.751  10
  -1  24   9 1683.08 927.738   6
   1  24  -9 2401.73 1615.75  12
  -1  24   8-117.275 985.595   6
   1  24  -8 456.371 1180.35  12
   1  24  -7 9515.58 3306.32  12
   1  24  -6-1320.69 1984.03  12
  -1  24   6 1144.87 1299.00   8
   1  24  -5 794.752 1729.87  12
  -1  24   5 1921.08 1727.68   8
  -1  24   4 5669.18 2562.75   8
   1  24  -4 3003.61 2154.19  12
  -1  24   4 605.797 1185.39  11
   1  24  -3-1301.18 2217.03  12
  -1  24   3-22.6184 964.272  11
  -1  24   3 654.801 1619.54   8
  -1  24   2-97.4010 1285.65   8
   1  24  -2-230.283 1752.83  12
   1  24  -2-905.653 1268.76   8
  -1  24   2-124.915 1118.07  11
  -1  24   1 5.92374 990.970  11
  -1  24   1-103.003 1112.29   8
   1  24  -1 791.971 1494.66   8
   1  24   0 2507.34 1608.95   8
  -1  24   0 1844.90 1294.22  11
  -1  24   0 1661.52 2061.94   8
  -1  24  -1 3008.41 1749.84   8
   1  24   1 4534.93 2077.36   8
  -1  24  -2 370.012 1324.66   8
   1  24   2 458.299 1281.84   8
   1  24   3 10402.1 3173.79   8
   1  24   4-789.762 1799.83   8
   1  24   5 2241.06 1548.17   8
   1  24   6-546.905 1160.91   8
   1  24   7 848.781 1119.08   6
   1  24   8-293.293 861.772   6
  -1  24  -8 582.847 565.508  10
   1  25  -8 1820.34 1275.77  12
  -1  25   8-1317.91 951.353   6
   1  25  -7-463.178 1117.69  12
  -1  25   6 2974.16 1119.47   8
   1  25  -6 794.045 1438.72  12
   1  25  -5-3476.97 2185.03  12
  -1  25   5 3380.09 1664.20   8
  -1  25   4 5603.77 2210.57   8
   1  25  -4 908.971 1887.57  12
  -1  25   3 1010.40 1444.39   8
   1  25  -3 1589.15 2274.62  12
  -1  25   3 3835.33 1866.51  11
  -1  25   2 6560.66 2531.82   8
   1  25  -2 8424.45 2633.30   8
  -1  25   2 6418.03 2080.30  11
   1  25  -1 1237.11 1697.35   8
  -1  25   1 495.837 1450.00   8
  -1  25   1 1270.37 909.135  11
  -1  25   0 4553.62 2180.83   8
   1  25   0 3500.39 1906.50   8
  -1  25   0 1279.11 1194.82  11
  -1  25  -1 6000.87 2175.86   8
   1  25   1 5576.08 2532.77   8
  -1  25  -2 2207.68 1604.48   8
   1  25   2 3763.49 2023.52   8
   1  25   3-669.185 1311.98   8
   1  25   4-965.819 1300.53   8
   1  25   5-829.315 1262.69   8
   1  25   6 2648.90 1384.11   8
   1  25   6 264.378 857.558   6
   1  25   7 1009.50 971.020   6
   1  26  -7 710.629 1371.07  12
  -1  26   6-886.934 1135.10   8
   1  26  -6 638.481 1166.50  12
  -1  26   5 855.139 985.924   8
   1  26  -5 823.517 1450.35  12
   1  26  -4 2556.27 2063.10  12
  -1  26   4 2147.96 1505.64   8
  -1  26   3 1739.38 1390.05  11
  -1  26   3 4687.31 1907.62   8
  -1  26   2-1212.22 1218.25   8
  -1  26   2 216.610 868.789  11
   1  26  -2 625.103 960.595   8
  -1  26   1 1125.95 1100.31   8
   1  26  -1 429.108 1202.35   8
  -1  26   1 825.494 954.479  11
  -1  26   0 2821.39 1939.71   8
   1  26   0 634.235 1165.54   8
  -1  26  -1 4661.23 2099.15   8
   1  26   1 751.677 1211.95   8
   1  26   2 972.735 1494.89   8
  -1  26  -2-1169.02 1383.09   8
   1  26   3 77.9169 1154.21   8
   1  26   4-340.575 1110.43   8
   1  26   5 1756.74 1377.64   8
   1  26   5 356.688 907.010   6
   1  26   6 1668.51 1261.46   6
   1  26   6-110.646 733.431   8
  -1  27   6-269.134 823.028   8
  -1  27   5-1619.45 1120.94   8
  -1  27   4-807.427 1272.45   8
  -1  27   3 2914.87 1806.80   8
   1  27  -2-2082.57 1512.40   8
  -1  27   2-733.512 980.341  11
   1  27  -1 57.3749 1023.52   8
  -1  27   1-723.607 1238.91   8
  -1  27   1 483.139 857.248  11
   1  27   0 428.731 1017.03   8
  -1  27   0 428.225 1180.81   8
  -1  27  -1 821.741 1214.48   8
   1  27   1-3781.65 1725.19   8
  -1  27  -2 1555.01 1234.15   8
   1  27   2-1737.59 1176.34   8
   1  27   3-2075.68 1294.53   8
   1  27   4 2514.10 1571.23   8
   1  27   5-145.309 848.913   6
   1  27   5 1367.40 1153.18   8
  -1  28   5-1699.95 1195.77   8
  -1  28   4 590.721 843.355   8
  -1  28   3-1598.11 1220.32   8
   1  28  -2-2043.95 1268.74   8
  -1  28   2 856.163 970.853   8
   1  28  -1 206.660 876.302   8
  -1  28   1-501.776 1220.89   8
  -1  28   0-3957.62 1573.26   8
   1  28   0-2599.47 1390.56   8
   1  28   1 682.873 1045.65   8
  -1  28  -1 3078.56 1512.01   8
   1  28   2-205.768 1141.57   8
   1  28   3 62.4873 889.397   8
   1  28   4 88.5494 927.225   8
  -1  29   3-1260.40 1180.28   8
  -1  29   2-210.611 1091.57   8
  -1  29   1 152.689 860.834   8
   1  29  -1 2134.89 1136.05   8
   1  29   0 794.773 1081.77   8
  -1  29   0-617.078 804.233   8
   1  29   1 30.3583 843.739   8
  -1  29  -1 168.230 1114.09   8
   1  29   2 2428.58 1142.11   8
   1  29   3-14.1046 925.384   8
  -2   0  15-86.5790 436.077  14
  -2   0  14-1021.95 670.474  14
  -2   0  13-401.400 716.620  14
  -2   0  12 1177.36 767.810  14
  -2   0  11 289.547 590.862  13
  -2   0  11 486.779 840.982  14
   2   0 -10 7038.19 1433.26   3
  -2   0  10 7413.70 1447.07  13
   2   0  -9 966.533 774.002   3
   2   0  -8 1860.34 861.033   3
   2   0  -7-538.936 657.550   3
   2   0  -6 10710.3 1288.84   3
   2   0  -5 178.044 561.884   3
   2   0  -4 4447.28 1417.92  16
   2   0  -4 4201.31 738.541   3
   2   0  -3 699.858 779.610  16
   2   0  -2 45108.0 2640.93  16
   2   0  -1 138.902 384.942  16
  -2   0   0 81076.6 2626.07   1
   2   0   1 244.272 321.950   1
   2   0   2 155589. 3193.90  13
   2   0   2 150570. 3697.89   1
   2   0   3 241.746 361.720  13
   2   0   4 16803.3 1305.37  13
   2   0   5 446.064 388.067  13
   2   0   6 20227.0 1797.15  13
   2   0   7-1085.81 677.241  13
   2   0   8 40883.4 2915.66  13
   2   0   9-412.356 611.250  14
   2   0  10 33164.0 3210.98  14
   2   0  11 1602.78 718.372  14
   2   0  12-471.052 600.117  14
   2   0  13 812.482 628.317  14
   2   0  14 1086.78 483.474  14
  -2   1  15 586.081 409.839  14
  -2  -1  15 868.351 541.917  14
  -2   1  14 788.994 507.415  14
  -2  -1  14 825.460 579.439  14
  -2  -1  13-89.0610 599.639  14
  -2   1  13 691.560 560.112  14
  -2  -1  12 8502.56 1684.91  14
  -2   1  12 6373.36 1519.43  14
  -2   1  11 2590.64 965.573  13
  -2  -1  11 1386.03 685.846  14
  -2   1  11 793.046 742.134  14
  -2   1  10 11709.4 1850.93  13
   2  -1 -10 16539.8 2060.59   3
   2   1 -10 15560.4 2084.63   3
  -2  -1  10 13935.7 1803.33  13
   2  -1  -9 27539.0 2483.81   3
   2   1  -9 34187.0 2851.90   3
   2   1  -8 4196.47 1050.02   3
   2  -1  -8 3519.20 919.637   3
   2   1  -7 18151.1 1819.23   3
   2  -1  -7 19212.6 1809.60   3
   2  -1  -6 28419.3 1950.80   3
   2   1  -6 28890.3 2061.12   3
   2   1  -5 5895.39 948.815   3
   2  -1  -5 4860.36 852.664   3
   2   1  -4 1344.22 446.683   3
   2   1  -4 2034.44 1086.94  16
   2  -1  -4 1998.74 896.854  16
  -2  -1   4 1294.93 790.822  16
   2  -1  -4 1797.90 611.281   3
   2  -1  -3 165604. 6219.20  16
   2   1  -3 160159. 5808.37  16
  -2  -1   3 146898. 5769.57  16
  -2  -1   2 55469.8 2847.02  16
   2  -1  -2 53681.2 2996.61  16
   2   1  -2 52314.1 2753.76  16
  -2  -1   1 49712.8 1883.60  16
  -2  -1   0 104687. 2778.90   1
  -2   1   0 102352. 3227.61   1
   2  -1   1 415355. 5888.94  16
   2  -1   1 416559. 6693.02   1
  -2  -1  -1 410121. 4843.92  16
   2  -1   2 791273. 6961.43  13
  -2  -1  -2 795413. 9979.53  16
   2  -1   2 783096. 11155.6  16
   2   1   2 783741. 7452.89  13
   2   1   2 790240. 7063.34   1
  -2  -1  -3-147.769 719.415  16
   2   1   3 435.771 312.973  13
   2  -1   3 990.424 420.300  13
   2  -1   3 683.231 791.407  16
  -2  -1  -4 5992.23 1290.47  16
   2   1   4 6687.25 890.302  13
   2  -1   4 7266.51 831.023  13
   2  -1   5 7383.66 1022.55  13
   2   1   5 6898.74 975.821  13
   2  -1   6 6199.21 987.091  13
   2   1   6 6749.69 1152.43  13
   2   1   7 141.571 469.066  13
   2  -1   7 1297.13 646.720  13
   2   1   8 2214.36 892.486  13
   2  -1   9 1396.70 952.312  14
   2   1   9-539.702 600.903  13
   2   1   9 2.31107 600.517  14
   2   1  10 2627.40 1116.80  14
   2  -1  10 2512.36 1312.96  14
   2  -1  11 3133.34 1172.50  14
   2   1  11 2863.45 1126.70  14
   2  -1  12 158.885 522.814  14
   2   1  12 459.984 648.173  14
   2  -1  13 3785.97 955.966  14
   2   1  13 3777.98 976.931  14
   2   1  14 738.146 524.748  14
   2  -1  14 1122.10 511.592  14
  -2   2  15-107.253 358.190  14
  -2  -2  15 659.452 492.409  14
  -2   2  14 614.886 467.693  14
  -2  -2  14 971.974 699.665  14
  -2  -2  13 1091.78 811.128  14
  -2   2  13 1142.87 856.631  14
  -2   2  12 465.431 618.061  14
  -2  -2  12 316.238 826.451  14
  -2   2  11 683.634 791.963  13
  -2  -2  11 250.254 689.874  14
  -2   2  11 34.1174 617.285  14
  -2   2  10 2153.49 974.537  13
   2   2 -10 3027.80 1150.42   3
   2  -2 -10 832.480 545.929   3
   2   2  -9 63159.3 3830.70   3
   2  -2  -9 62705.0 3585.39   3
   2   2  -8 11492.0 1605.49   3
   2  -2  -8 10138.2 1367.56   3
   2   2  -7 138595. 4886.80   3
   2  -2  -7 140847. 4647.48   3
   2  -2  -6 530.015 434.704   3
   2   2  -6 315.482 539.436   3
   2  -2  -5 197482. 4616.64   3
  -2  -2   5 196799. 8985.99  16
   2   2  -5 195069. 4869.09   3
   2  -2  -4 5810.38 780.993   3
  -2  -2   4 3930.48 1265.50  16
   2   2  -4 6337.75 824.701   3
   2  -2  -4 5536.81 1433.00  16
   2   2  -4 5775.59 1432.81  16
   2  -2  -3 45896.5 1842.77   3
   2  -2  -3 44032.0 3425.89  16
   2   2  -3 45959.6 3141.84  16
  -2  -2   3 43255.4 3133.56  16
  -2  -2   2 26806.4 2049.84  16
  -2  -2   1 40883.8 1797.72  16
  -2   2   1 44959.0 2562.36   1
  -2   2   0 5441.80 885.951   1
   2  -2   0 4308.40 886.219   1
   2  -2   1 10.7416 463.606   1
  -2   2  -1 425.734 526.030   2
  -2  -2  -1-37.1700 441.186  16
  -2  -2  -1-41.6530 94.2190   2
  -2  -2  -2 10376.5 1286.86  16
   2  -2   2 10980.5 1478.71  16
  -2   2  -2 8740.33 1070.22   2
   2  -2   2 9662.31 801.598  13
   2  -2   3 1756.32 927.323  16
   2  -2   3 3364.66 570.352  13
  -2  -2  -3 2711.89 889.980  16
   2   2   3 2541.93 578.179  13
  -2  -2  -4 4402.30 1218.03  16
   2  -2   4 3159.42 1138.30  16
   2   2   4 4775.19 788.871  13
   2  -2   4 4265.62 640.515  13
   2   2   5 3546.81 771.899  13
   2  -2   5 3431.06 667.014  13
   2   2   6 3504.40 822.770  13
   2  -2   6 5065.31 857.626  13
   2  -2   7 10457.0 1334.47  13
   2   2   7 10658.2 1477.92  13
   2   2   8 821.753 605.150  13
   2   2   9 2580.81 888.139  13
   2   2   9 2118.30 699.051  14
   2  -2   9 3686.85 1265.52  14
   2   2  10 848.052 878.969  14
   2  -2  10 190.605 631.079  14
   2  -2  11 9707.31 1799.10  14
   2   2  11 10480.5 1816.17  14
   2  -2  12 21.9489 485.731  14
   2   2  12-932.967 634.178  14
   2   2  13 3269.17 870.177  14
   2  -2  13 1731.67 812.030  14
   2  -2  14 829.851 378.001  14
  -2  -3  15 55.6619 440.921  14
  -2  -3  14 2052.04 912.144  14
  -2   3  14 2255.26 776.239  14
  -2   3  13-218.151 676.213  14
  -2  -3  13 833.266 572.338  14
  -2   3  12 7776.96 1563.96  14
  -2  -3  12 10895.1 1979.88  14
  -2   3  11 3495.77 1088.44  14
  -2  -3  11 3652.94 1274.85  14
  -2   3  11 2215.61 985.880  13
   2   3 -10 16889.7 2615.07   9
  -2  -3  10 15646.5 2185.44  14
  -2   3  10 15410.3 2107.88  13
   2   3 -10 18658.6 2289.91   3
   2  -3  -9 2166.18 816.298   3
   2   3  -9 1190.02 876.963   3
   2  -3  -8 4681.82 939.145   3
   2   3  -8 5107.73 1092.96   3
   2  -3  -7 2908.83 807.657   3
   2   3  -7 1532.78 684.145   3
   2   3  -6 53345.3 2848.35   3
   2  -3  -6 51944.2 2538.48   3
  -2  -3   5 4741.07 1663.29  16
   2   3  -5 6912.17 1056.67   3
   2  -3  -5 8603.34 1055.30   3
   2   3  -4 1271.88 539.702   3
  -2  -3   4 808.330 829.190  16
   2  -3  -4 1147.40 478.736   3
   2  -3  -3 471.228 383.522   3
  -2  -3   3 1221.72 934.627  16
   2   3  -2 101626. 2647.84   3
  -2  -3   2 98719.2 3894.32  16
  -2   3   2 99716.5 4326.62   1
  -2   3   1 53306.4 2951.14   1
   2   3   1 96996.3 2906.51   7
  -2   3  -1 93198.6 3405.12   2
   2  -3   1 95402.2 3955.09   1
  -2  -3  -2 4096.57 986.464  16
   2  -3   2 4381.44 558.732  13
   2  -3   2 4285.71 992.116  16
  -2   3  -2 3778.27 801.108   2
   2  -3   3 119092. 2874.92  13
  -2  -3  -3 125757. 5448.93  16
   2  -3   3 123866. 5687.24  16
   2   3   3 115237. 3376.67  13
  -2  -3  -4 5264.94 1385.20  16
   2  -3   4 4879.10 698.177  13
   2  -3   4 4313.86 1462.06  16
   2   3   4 5065.78 844.822  13
   2  -3   5 2652.12 573.888  13
   2   3   5 4017.90 809.217  13
   2   3   6 19769.3 1871.87  13
   2   3   7 513.268 540.476  13
   2   3   8 3497.13 1084.65  13
   2  -3   9 686.034 774.899  14
   2   3   9 743.707 806.413  14
   2   3   9 1195.48 750.852  13
   2  -3  10 298.288 674.610  14
   2   3  10-706.169 637.397  13
   2   3  10 81.6830 511.236  14
   2  -3  11 1393.67 966.025  14
   2   3  11 2359.46 852.532  14
   2   3  12 2849.24 1020.80  14
   2  -3  12 2684.39 1049.53  14
   2   3  13 5473.42 1087.85  14
   2  -3  13 6631.76 1333.23  14
   2  -3  14 1204.39 568.987  14
  -2  -4  15 537.227 503.756  14
  -2  -4  14 238.608 495.303  14
  -2   4  13-992.485 771.491  14
  -2  -4  13 767.133 796.229  14
  -2   4  12 495.033 682.414  14
  -2  -4  12 540.644 734.848  14
  -2  -4  11 1174.22 859.566  14
  -2   4  11 51.0955 741.802  14
  -2   4  11 11.6441 637.703  13
  -2   4  10 5893.60 1487.45  13
   2   4 -10 9460.54 1756.82   3
  -2  -4  10 8622.63 1791.10  14
   2   4 -10 6762.14 1868.19   9
   2   4  -9-753.734 810.014   3
   2   4  -8 61.6971 601.550   3
   2  -4  -8 1952.76 711.611   3
   2   4  -7 1045.89 649.368   3
   2  -4  -7 1015.92 581.518   3
   2  -4  -6 50664.6 2507.89   3
   2   4  -6 55490.2 2964.67   3
   2  -4  -5 107368. 3318.94   3
   2   4  -5 108657. 3816.41   3
  -2  -4   4 15119.8 2287.75  16
   2   4  -4 15382.2 1336.14   3
   2  -4  -4 16726.1 1239.12   3
  -2  -4   3 2692.18 983.589  16
   2  -4  -3 1293.72 485.799   3
   2   4  -3 1142.09 453.363   3
  -2   4   3 738.832 879.836   1
  -2  -4   2 143746. 4920.79  16
   2   4  -2 140769. 3221.07   3
  -2   4   2 146956. 5462.88   1
  -2   4   1 41409.3 2767.37   1
   2   4   0 13214.4 933.656  13
   2   4   0 13181.6 1171.63   7
  -2   4  -1 4935.41 985.089   2
   2  -4   1 3412.17 1076.18   1
   2  -4   2 9314.32 1488.05  16
   2   4   2 9128.70 905.078  13
  -2   4  -2 10581.3 1389.21   2
  -2  -4  -3 6727.10 1393.40  16
   2   4   3 9414.37 1036.19  13
   2  -4   3 9165.64 800.402  13
   2  -4   3 9893.70 1739.13  16
   2   4   4 31090.7 2021.77  13
   2  -4   4 26380.8 3156.56  16
  -2  -4  -4 27647.3 2999.85  16
   2  -4   4 27719.6 1519.24  13
   2   4   5 1787.02 679.741  13
   2   4   6 92249.1 4063.06  13
   2   4   7 19297.4 2059.53  13
   2   4   8 58457.1 3782.39  13
   2   4   9 719.435 712.195  13
   2  -4   9 378.231 676.228  14
   2   4   9 1045.34 890.989  14
   2  -4  10 3353.13 1072.70  14
   2   4  10 4619.10 1277.57  14
   2   4  11 137.336 506.201  14
   2  -4  11 340.299 728.320  14
   2  -4  12 2197.78 957.719  14
   2   4  12 2016.03 913.988  14
   2  -4  13 1144.99 676.972  14
   2  -4  14-388.721 427.093  14
  -2  -5  15 617.820 488.868  14
  -2  -5  14 983.847 610.306  14
  -2  -5  13 6848.25 1516.44  14
  -2  -5  12 1952.88 1003.81  14
  -2   5  11 5322.60 1388.70  13
  -2  -5  11 4133.93 1202.86  14
   2   5 -10 16934.4 2755.19   9
  -2  -5  10 12914.0 2042.19  14
  -2   5  10 14950.9 2221.13  13
   2   5  -9 24788.2 2600.60   3
   2   5  -8 232.949 759.952   3
   2   5  -7 2618.16 893.227   3
   2  -5  -6 80886.7 3082.87   3
   2   5  -6 80266.2 3611.86   3
   2  -5  -5 1521.13 524.714   3
   2   5  -5 912.462 630.023   3
   2  -5  -4 3505.30 679.676   3
   2   5  -4 3824.36 764.993   3
  -2   5   4 3674.22 1205.50   1
  -2  -5   4 2927.66 1202.15  16
  -2   5   3 848.961 664.835   1
   2   5  -3 563.400 468.101   3
  -2  -5   3-639.351 766.914  16
   2  -5  -3 347.910 307.074   3
   2   5  -2 12819.8 1071.30   3
  -2   5   2 12033.3 1734.22   1
   2  -5  -2 13384.4 1001.24   3
   2   5  -1 4003.14 566.198  13
  -2   5   1 3543.02 1010.91   1
   2   5  -1 3876.89 737.764   7
  -2  -5   0 3802.82 581.922   2
   2   5   0 3204.35 750.418   7
   2   5   0 3620.40 578.102  13
   2  -5   1 32920.0 2751.06   1
   2   5   1 30068.4 1501.04  13
   2   5   1 30622.1 1999.29   7
  -2   5  -1 32906.8 2389.37   2
   2   5   2 7999.75 894.139  13
  -2   5  -2 8864.19 1290.83   2
   2  -5   3 214.909 616.027  16
  -2  -5  -3 193.533 690.845  16
   2   5   3 265.420 384.085  13
   2   5   4 132009. 4139.18  13
   2  -5   4 125016. 6936.83  16
   2   5   5 14470.6 1570.65  13
   2   5   6 4470.84 1113.30  13
   2   5   7 16214.8 1913.69  13
   2   5   8 2697.64 998.927  13
   2  -5   9 679.779 711.085  14
   2   5   9-176.640 697.155  13
   2  -5  10-31.3981 530.944  14
   2  -5  11 3621.14 1170.11  14
   2  -5  12-103.352 512.523  14
   2  -5  13 823.844 515.601  14
   2  -5  14 1302.70 552.348  14
  -2  -6  15 764.374 507.885  14
  -2  -6  14-1186.90 630.090  14
  -2  -6  13 756.947 743.843  14
  -2  -6  12 2548.91 1133.44  14
   2   6 -11-737.934 845.037   9
  -2  -6  11 1220.39 778.397  14
  -2   6  11 1323.98 671.381  13
   2   6 -10 248.751 856.088   9
  -2   6  10 1628.52 1066.35  13
  -2  -6  10-916.726 841.396  14
   2   6  -9 49090.4 3689.50   3
   2   6  -8 8775.08 1540.67   3
   2   6  -7 53702.0 3355.15   3
   2   6  -6 31203.1 2379.15   3
   2   6  -5 54912.0 2804.66   3
   2  -6  -5 55425.8 2315.00   3
   2  -6  -4 2603.87 558.921   3
  -2  -6   4 1914.36 1060.82  16
  -2   6   4 3836.87 1220.54   1
   2   6  -4 2702.29 640.300   3
  -2   6   3 63434.7 4167.24   1
   2  -6  -3 61651.8 2196.13   3
   2   6  -3 64447.6 2559.87   3
  -2  -6   3 58632.1 4001.80  16
   2  -6  -2 4151.66 620.684   3
  -2   6   2 4776.64 1221.38   1
   2   6  -2 4395.30 650.944   3
   2   6  -1 769.834 406.474  13
  -2  -6   1-251.972 432.877   2
   2   6  -1 320.858 579.993   7
   2   6   0 352.180 345.791  13
  -2  -6   0 84.2838 304.189   2
   2   6   0 13.9839 555.673   7
  -2   6  -1 10186.7 1449.93   2
  -2  -6  -1 7095.25 591.833   1
   2   6   1 9934.13 977.697   4
   2   6   1 9117.23 1296.12   7
   2   6   1 9095.21 930.484  13
  -2   6  -2 4180.15 1059.03   2
   2   6   2 6306.79 849.867  13
   2   6   2 4542.40 1011.32   7
   2  -6   3 1071.91 970.840  16
   2   6   3 480.165 474.093  13
   2   6   4 2371.67 709.903  13
   2   6   5 10841.0 1403.06  13
   2   6   6 2702.59 877.997  13
   2   6   7-116.349 692.524  13
   2   6   8-765.257 697.870  13
   2   6   9 7434.39 1484.18  13
   2   6   9 4326.67 2039.75   6
   2  -6   9 6089.92 1442.64  14
   2  -6  10 981.953 771.939  14
   2  -6  11 4642.68 1390.06  14
   2  -6  12 482.646 534.477  14
   2  -6  13-26.6052 487.765  14
   2  -6  14-1201.91 529.546  14
  -2  -7  15 3319.98 806.200  14
  -2  -7  14 590.183 556.366  14
  -2  -7  13-209.926 758.412  14
  -2  -7  12 1321.80 714.648  14
   2   7 -11 1961.63 1051.18   9
  -2  -7  11 216.160 642.002  14
  -2   7  11 322.112 750.244  13
  -2   7  10 2746.04 1011.12  13
  -2  -7  10 2864.17 1017.62  14
   2   7 -10 2602.52 989.194   9
  -2   7   9 2428.54 1278.52  13
   2   7  -9-1391.41 942.851   3
   2   7  -8 376.002 738.577   3
   2   7  -7 5713.47 1267.63   3
   2   7  -6 3338.20 868.681   3
   2   7  -5 2738.52 783.561   3
  -2   7   4 30624.8 3118.86   1
   2   7  -4 29711.0 1937.08   3
  -2  -7   3 382.453 671.809  16
  -2   7   3-521.610 676.562   1
   2   7  -3 12.3193 406.014   3
   2  -7  -3 791.283 403.866   3
  -2  -7   2 14154.3 1653.46   2
   2   7  -2 12939.5 1054.78   3
   2  -7  -2 12710.4 989.190   3
  -2   7   2 12216.8 1825.56   1
   2   7  -1 2273.82 536.753   4
   2   7  -1 2227.97 502.618  13
  -2  -7   1 2274.09 604.534   2
   2   7  -1 1196.30 659.283   7
   2  -7  -1 2589.09 989.497   1
  -2   7   1 2487.79 639.541   7
   2  -7   0-79.3338 599.862   1
   2   7   0 579.332 398.589   4
   2   7   0 1244.65 440.297  13
   2   7   0 960.557 724.054   7
  -2  -7  -1 10188.3 867.809   1
   2   7   1 13190.2 1188.49   4
   2   7   1 12284.2 1066.80  13
   2   7   1 13454.7 1550.53   7
   2  -7   1 12849.1 1861.73   1
  -2   7  -1 12961.5 1706.23   2
  -2   7  -2 12580.4 1739.05   2
   2   7   2 14197.7 1244.56  13
   2   7   2 13839.3 1714.83   7
   2  -7   3 190507. 8135.81  16
   2   7   3 194292. 4850.02  13
   2   7   4 2331.03 684.732  13
   2   7   5 1317.28 615.962  13
   2   7   6 189.056 655.101  13
   2   7   7 7501.16 1512.07  13
   2  -7   8-474.293 660.099  14
   2   7   8-791.777 624.360  13
   2  -7   9 959.871 767.645  14
   2   7   9 654.843 1459.92   6
   2   7   9 339.455 599.671  13
   2   7  10 2059.70 1513.15   6
   2  -7  10-826.138 824.548  14
   2  -7  11 1643.28 890.437  14
   2  -7  12 1109.10 777.028  14
   2  -7  13 23.2444 434.405  14
  -2  -8  15 1071.51 615.850  14
  -2  -8  14-180.332 469.890  14
  -2  -8  13 1326.81 756.977  14
  -2  -8  12 734.071 763.507  14
   2   8 -11-2734.49 1270.91   9
  -2  -8  11-354.513 763.297  14
  -2  -8  10 5203.00 1461.89  14
  -2   8  10 5585.09 1414.17  13
   2   8 -10 4658.53 1760.77   9
   2   8  -9 17126.0 2335.81   3
  -2   8   9 16805.0 2260.52  13
   2   8  -8 9206.43 1648.42   3
   2   8  -7 10157.2 1612.05   3
   2   8  -6 17234.0 1842.57   3
   2   8  -5 3382.65 884.231   3
   2   8  -4 86803.4 3328.86   3
  -2   8   3 31764.1 3143.94   1
   2   8  -3 30248.3 1806.01   3
  -2  -8   2 43443.1 3025.52   2
   2   8  -2 42168.9 1876.67   3
   2   8  -2 43273.3 2805.55   7
   2   8  -1 3730.84 726.155   4
  -2  -8   1 4764.81 940.898   2
  -2   8   1 4160.79 750.804   7
   2   8  -1 4839.50 646.745  13
   2   8  -1 4018.69 890.629   7
   2   8   0 38973.8 1938.30   4
  -2   8   0 33194.7 1759.63   7
   2   8   0 35749.4 1685.96  13
  -2   8   0 32792.1 2824.22   2
   2   8   0 37280.4 2454.15   7
   2   8   1 2912.85 997.542   7
  -2   8  -1 3411.69 1052.30   2
   2   8   1 3342.33 710.774   4
   2   8   1 2489.96 523.295  13
  -2   8  -1 3307.22 640.177   7
  -2  -8  -1 2015.85 453.036   1
   2   8   2 4538.97 810.748  13
   2   8   2 4357.12 1189.94   7
   2   8   3 12058.9 1298.18  13
   2   8   4 31380.6 2244.50  13
   2   8   5 8729.40 1384.30  13
   2   8   6 113334. 4969.56  13
   2   8   7 2350.55 873.311  13
   2   8   8 37960.7 4540.10   6
   2   8   8 36897.1 3267.87  13
   2  -8   8 41165.5 3429.50  14
   2   8   9 596.531 1823.19   6
   2  -8   9 210.208 551.093  14
   2   8   9 208.191 762.655  13
   2   8  10 8784.24 2403.19   6
   2  -8  10 5406.73 1378.27  14
   2  -8  11 500.767 717.844  14
   2  -8  12-144.112 551.963  14
   2  -8  13-335.389 472.701  14
  -2  -9  15 810.035 533.846  14
   2   9 -15 634.077 1073.75  12
  -2  -9  14 1381.47 669.732  14
  -2  -9  13 148.608 569.328  14
  -2  -9  12-291.642 765.190  14
   2   9 -11 2160.90 1186.39   9
  -2  -9  11 4220.19 1313.85  14
   2   9 -10 959.764 1124.63   9
  -2  -9  10 799.392 721.087  14
  -2   9  10 853.246 858.694  13
  -2   9   9 3372.58 1132.49  13
   2   9  -9 4317.72 1460.86   9
   2   9  -8-759.819 694.078   3
   2   9  -7 2670.77 1060.03   3
   2   9  -6 2839.13 911.484   3
   2   9  -5 407.183 524.717   3
   2   9  -4-184.784 530.244   3
   2   9  -3 22800.7 1607.78   3
   2   9  -2 30993.4 2538.28   7
   2   9  -2 28484.3 1570.39   3
   2   9  -1 5056.13 665.550  13
  -2  -9   1 5375.20 1097.98   2
   2   9  -1 5385.45 1057.37   7
  -2   9   1 5973.94 949.745   7
   2   9   0 10138.3 1112.74   4
  -2   9   0 8288.72 1024.75   7
   2   9   0 8570.88 1327.16   7
   2   9   0 9590.13 940.018  13
   2   9   1 38697.1 2110.78   4
   2   9   1 37611.7 1927.39  13
  -2   9  -1 34308.7 1960.93   7
   2   9   1 39256.4 2810.15   7
   2   9   2 3717.64 1185.62   7
   2   9   2 1992.65 572.195  13
   2   9   3 47117.6 2604.46  13
   2   9   4 69676.6 3395.88  13
   2   9   5 44302.6 2947.58  13
   2   9   6 2643.90 972.229  13
   2   9   7 991.609 813.697  13
   2   9   8 2155.42 1794.76   6
   2  -9   8 4548.04 1318.77  14
   2   9   8 4964.64 1374.12  13
   2   9   9 1765.19 1646.62   6
   2  -9   9 2187.69 946.614  14
   2   9   9 2645.23 1166.04  13
   2  -9  10 680.398 769.848  14
   2   9  10 744.286 1223.91   6
   2  -9  11 967.405 793.038  14
   2  -9  12 877.083 618.259  14
   2  -9  13 1276.81 607.513  14
  -2 -10  14 788.303 509.056  14
  -2 -10  13 1967.72 871.402  14
  -2 -10  12 270.675 522.602  14
  -2 -10  11 822.327 717.481  14
   2  10 -11-1595.05 1075.39   9
  -2 -10  10 3694.46 1104.71  14
   2  10 -10 5026.84 1784.91   9
  -2  10  10 5000.30 1353.82  13
   2  10  -9-855.632 928.379   9
  -2 -10   9-723.756 801.929  14
   2  10  -8 22831.0 2614.15   3
  -2  10   8 22175.3 2566.48  13
   2  10  -7 90243.6 4620.71   3
   2  10  -6 1902.48 831.540   3
   2  10  -5 25844.4 2095.90   3
   2  10  -4 4847.46 874.360   3
   2  10  -3-326.855 441.836   3
   2  10  -2 13111.4 1784.19   7
   2  10  -1 24764.5 2336.42   7
  -2  10   1 24383.8 1883.69   7
   2  10   0 2621.02 662.230   4
   2  10   0 1653.91 801.457   7
  -2  10   0 2661.71 657.746   7
   2  10   0 2614.30 552.591  13
   2  10   1 10452.8 1687.96   7
   2  10   1 9111.20 1144.89   4
   2  10   1 9207.43 1001.56  13
   2  10   2 8208.69 1574.58   7
   2  10   2 6783.70 981.883  13
   2  10   2 6230.11 1072.21   4
   2  10   3 5051.65 980.309  13
   2  10   4 6622.76 1179.38  13
   2  10   5 40183.4 2928.57  13
   2  10   6 51.2424 681.080  13
   2  10   7 461.771 641.832  13
   2  10   8 977.622 1256.07   6
   2 -10   8 1162.98 626.354  14
   2  10   8 1862.49 696.410  13
   2 -10   9 6629.33 1477.18  14
   2  10   9 7345.18 2038.27   6
   2  10  10 1687.46 1486.00   6
   2 -10  10-531.062 617.011  14
   2 -10  11 4894.92 1328.20  14
  -2  10 -12 124.052 564.978  10
   2 -10  12 26.0965 457.749  14
   2 -10  13 1624.32 602.872  14
  -2 -11  14 2348.33 720.867  14
   2  11 -14 3825.60 2145.30  12
  -2 -11  13 282.656 601.297  14
  -2 -11  12 2587.54 991.497  14
  -2 -11  11 1197.28 522.008  14
   2  11 -11-27.8333 1092.01   9
   2  11 -10-385.004 1114.04   9
  -2  11  10 1619.24 860.696  13
  -2 -11  10 296.715 608.453  14
  -2 -11   9 14865.5 2059.69  14
   2  11  -9 22044.7 3137.45   9
  -2  11   9 16441.1 2336.42  13
  -2  11   8 3734.58 1248.49  13
  -2  11   7 5844.88 1348.80  13
   2  11  -7 4844.72 1219.68   3
   2  11  -6 166.188 495.931   3
   2  11  -5 5032.49 1108.46   3
   2  11  -4 5242.07 954.933   3
   2  11  -3 3924.11 1176.19   7
   2  11  -2 3.87622 783.453   7
   2  11  -1 453.139 778.462   7
  -2  11   1 2260.73 845.007   7
   2  11   0-175.985 498.215   4
  -2  11   0 762.770 578.399   7
   2  11   0-315.556 830.157   7
   2  11   1 27943.6 1784.19  13
   2  11   1 29961.5 2799.13   7
   2  11   1 28666.6 2068.56   4
   2  11   2 14876.7 2128.89   7
   2  11   2 12497.9 1436.47   4
   2  11   2 12894.0 1349.16  13
   2  11   3 136510. 4614.26  13
   2  11   4 2191.87 767.759  13
   2  11   5 2324.03 841.223  13
   2  11   6 2382.11 1030.97  13
   2  11   7-4139.99 1803.04   6
   2  11   7 1527.55 940.373  13
   2 -11   8 600.298 710.660  14
   2  11   8 533.455 779.454  13
   2 -11   9-65.7237 533.404  14
   2  11   9-588.546 1203.07   6
   2  11  10 1121.18 1186.16   6
   2 -11  10 519.954 786.644  14
   2 -11  11-1519.23 756.187  14
  -2  11 -12 587.531 642.586  10
   2 -11  12 540.867 504.322  14
   2 -11  13-160.990 335.869  14
  -2 -12  14-292.587 465.177  14
   2  12 -14 764.768 1520.80  12
  -2 -12  13-105.725 459.643  14
   2  12 -13 2238.12 1962.31  12
  -2 -12  12 131.529 655.794  14
  -2 -12  11 2410.10 974.915  14
  -2  12  10 1857.18 1680.08   6
   2  12 -10-170.871 1088.58   9
  -2 -12  10 605.324 826.636  14
   2  12  -9 12522.2 2449.23   9
  -2  12   9 9652.77 1800.73  13
   2  12  -8 23321.0 3157.29   9
  -2  12   8 22427.4 2549.97  13
  -2  12   7 689.893 691.360  13
   2  12  -6 5992.95 1338.34   3
   2  12  -5 1493.62 696.124   3
   2  12  -4 62009.4 4409.79   7
   2  12  -3 2982.66 1205.83   7
   2  12  -2 16276.8 2237.80   7
  -2  12   1 3022.56 806.860   7
   2  12  -1 1979.21 1084.73   7
   2  12   0 32226.2 2979.56   7
   2  12   0 32667.3 2192.65   4
   2  12   1 24069.3 2674.67   7
   2  12   1 23560.7 1932.26   4
   2  12   2 1365.96 410.031  13
   2  12   2 1375.88 638.284   4
   2  12   2 1115.43 1162.92   7
   2  12   3 542.097 581.429   4
   2  12   3 787.134 501.140  13
   2  12   4 997.523 639.608  13
   2  12   5 58.5606 609.111  13
   2  12   6 38598.5 3175.57  13
   2  12   7 779.774 1293.75   6
   2  12   7 730.800 641.058  13
   2  12   8 33469.2 4833.77   6
   2  12   8 33966.1 3276.68  13
   2  12   9-1127.13 1370.33   6
   2 -12   9-172.686 692.408  14
   2 -12  10 11031.8 1807.38  14
   2  12  10 9591.02 2508.16   6
   2 -12  11 1175.75 681.337  14
  -2  12 -12 334.777 574.065  10
   2 -12  12 776.337 465.097  14
   2  13 -14 3901.83 2049.64  12
   2  13 -13-310.766 1447.87  12
  -2 -13  13 758.455 598.782  14
  -2 -13  12 2997.39 904.522  14
   2  13 -12 4854.78 2522.21  12
  -2  13  11 1871.10 1483.86   6
   2  13 -10 6966.88 1915.31   9
  -2  13   9 417.125 706.978  13
   2  13  -9 1644.23 1341.47   9
   2  13  -8 226.454 983.827   9
  -2  13   8 320.024 624.993  13
  -2  13   7-142.762 571.917  13
  -2  13   6 1722.97 816.525  13
   2  13  -5 2054.93 1321.89   7
  -2  13   5 1219.86 703.993  13
   2  13  -4 457.242 979.122   7
   2  13  -3 558.706 1114.93   7
   2  13  -2 83162.7 5008.35   7
  -2  13   1 29920.8 2469.38   7
   2  13  -1 32211.8 3100.68   7
   2  13   0 43274.9 2629.44   4
   2  13   0 41147.2 3496.87   7
   2  13   1 38104.4 3504.74   7
   2  13   1 39480.0 2562.80   4
   2  13   2 7789.18 1954.93   7
   2  13   2 7867.80 1309.28   4
   2  13   3 14707.9 1656.98  13
   2  13   3 15694.7 1833.62   4
   2  13   4 19913.4 2203.94   4
   2  13   4 15203.3 1799.97  13
   2  13   5 2716.57 981.056  13
   2  13   6 972.266 770.184  13
   2  13   7 4521.03 2161.60   6
   2  13   7 4261.85 1098.69  13
   2  13   8-308.437 1597.84   6
   2  13   9 1568.62 1750.26   6
   2  13  10-273.976 1304.09   6
  -2  13 -11 1190.04 907.961  10
   2 -13  11 293.447 486.459  14
  -2  13 -12 306.504 540.320  10
   2  14 -14 616.079 916.885  12
   2  14 -13-726.658 1367.51  12
   2  14 -12 3040.31 2416.25  12
  -2  14  11 860.253 1176.54   6
   2  14 -11 1250.98 2338.75  12
   2  14 -10 1290.97 1910.14  12
   2  14 -10 141.473 939.298   9
   2  14  -9 583.554 912.219   9
  -2  14   9 1272.67 716.052  13
   2  14  -8 7367.44 1823.94   9
  -2  14   8 8702.83 1598.13  13
  -2  14   7 52326.4 5183.09  11
  -2  14   7 46202.9 3540.13  13
   2  14  -7 56135.8 8312.00  12
   2  14  -6 4292.43 1576.55   7
  -2  14   6 4395.58 1187.22  13
   2  14  -5 35553.7 3825.21   7
   2  14  -4-319.806 1295.53   7
   2  14  -3 3661.20 1408.76   7
   2  14  -2 5850.45 1616.77   7
   2  14  -1 2792.96 1178.56   7
   2  14   0 37253.5 2565.21   4
   2  14   0 36999.6 3521.07   7
   2  14   1 3214.50 956.708   4
   2  14   1 2569.48 1467.44   7
   2  14   2 39878.7 2897.86   4
   2  14   2 44171.9 4048.66   7
   2  14   3 2856.11 1008.93   4
   2  14   4 18662.3 2187.60   4
   2  14   4 21430.9 2187.41  13
   2  14   5 7734.99 1482.06  13
   2  14   5 9018.55 1655.11   4
   2  14   6-493.020 719.469   4
   2  14   6-852.554 705.275  13
   2  14   7 1663.68 1039.68   4
   2  14   7-407.741 704.355  13
   2  14   7 2097.08 1614.68   6
   2  14   8 243.674 1251.37   6
   2  14   9 2646.92 1816.26   6
   2  14  10-1489.82 1304.53   6
  -2  14 -11 5021.53 1381.34  10
  -2  14 -12-245.772 597.277  10
   2  15 -13 1549.58 1452.99  12
   2  15 -12 4429.93 2650.56  12
   2  15 -11-1721.00 1936.73  12
  -2  15  11 306.725 1163.49   6
   2  15 -10 9408.33 1929.57   9
   2  15 -10 11469.9 4057.43  12
   2  15  -9 1141.58 999.869   9
   2  15  -9-3223.82 2353.09  12
  -2  15   8 3636.40 1194.09  13
   2  15  -8 3787.31 1485.62   7
   2  15  -7-703.842 1241.99   7
   2  15  -7-438.787 2508.02  12
  -2  15   7 608.959 1000.92  11
   2  15  -6-9.77945 1262.20   7
   2  15  -5-1928.34 1346.57   7
   2  15  -4 293.956 1052.44   7
   2  15  -3 3803.75 1326.83   7
   2  15  -2 25624.3 3155.60   7
   2  15  -1-17.5374 1220.00   7
   2  15   0 5278.05 1673.21   7
   2  15   1 824.922 687.429   4
   2  15   1 1511.42 1332.70   7
   2  15   2 7900.15 1465.38   4
   2  15   2 8605.07 1988.99   7
   2  15   3 36427.6 2955.80   4
   2  15   4 66.1046 668.187   4
   2  15   5 426.355 652.959   4
   2  15   5 914.132 615.612  13
   2  15   6 4869.48 1405.65   4
   2  15   6 3905.29 1257.08  13
   2  15   7 398.912 1763.83   6
   2  15   7 1533.87 814.966   4
   2  15   7-337.636 658.206  13
   2  15   8 1461.78 1312.39   6
   2  15   9 1323.23 1175.08   6
   2  15  10 2097.14 1650.90   6
  -2  15 -10 1651.09 1166.84  10
  -2  15 -11-1569.21 899.625  10
  -2  15 -12 645.157 569.030  10
   2  16 -13 364.381 984.807  12
  -2  16  12 628.411 776.132   6
   2  16 -12 1426.95 1964.26  12
   2  16 -11 4991.95 2708.89  12
  -2  16  11 927.959 1210.42   6
   2  16 -10-277.990 1763.14  12
   2  16  -9 1667.72 2211.98  12
   2  16  -8 14996.4 4476.33  12
   2  16  -7 1234.99 1221.61   7
   2  16  -7 2145.44 2231.01  12
  -2  16   7 1423.37 1608.82  11
   2  16  -6 3100.41 2705.17  12
  -2  16   6 2921.33 1754.17  11
   2  16  -6 710.887 1018.37   7
   2  16  -5-1291.64 1006.29   7
   2  16  -4 29058.3 3590.68   7
   2  16  -3-177.729 989.490   7
   2  16  -2 39295.8 3892.75   7
   2  16  -1 4403.55 1636.25   7
   2  16   0 1379.19 1303.28   7
   2  16   1 5252.98 1988.08   7
   2  16   1 8063.28 1361.44   4
   2  16   2 2162.88 800.011   4
   2  16   2 4555.59 1860.37   7
   2  16   3 628.647 647.901   4
   2  16   4 623.000 716.745   4
  -2  16  -4-1899.15 1309.05  10
  -2  16  -5 2972.50 1431.32  10
   2  16   5 3379.54 1074.83   4
   2  16   5 923.578 1373.32   8
   2  16   6 16798.8 2370.31   4
   2  16   6 12018.5 1975.04  13
   2  16   7 3250.71 1538.89   6
  -2  16  -8 11913.9 2643.59  10
   2  16   8 9167.94 2540.66   6
   2  16   9 519.805 1333.50   6
  -2  16  -9 375.123 900.701  10
   2  16  10 786.297 1174.39   6
  -2  16 -10 2640.89 1105.87  10
  -2  16 -11 195.756 600.068  10
   2  17 -13-1442.13 677.614  10
   2  17 -13 366.653 1144.50  12
  -2  17  12 3949.00 1414.62   6
   2  17 -12 5786.86 2558.72  12
   2  17 -11 685.707 1750.90  12
  -2  17  11 319.496 1065.21   6
  -2  17  10 8520.77 2264.16   6
   2  17 -10 8340.38 3548.79  12
   2  17  -9-191.848 1572.14  12
   2  17  -8-2962.33 2444.06  12
   2  17  -7 3733.35 1639.10   7
  -2  17   7 2184.26 1595.04  11
   2  17  -7 5274.88 3401.19  12
   2  17  -6 79.5667 1173.70   7
   2  17  -6 259.231 1837.21  12
  -2  17   6 2691.77 1834.84  11
  -2  17   5 4511.16 1943.46  11
   2  17  -5 11380.3 4271.17  12
   2  17  -5 7801.24 2110.97   7
   2  17  -4-1161.77 1035.38   7
   2  17  -3 2415.71 1485.94   7
   2  17  -2 5359.23 1432.08   7
   2  17  -1 9592.68 2316.65   7
   2  17   0 21162.6 3020.83   7
   2  17   1 3529.02 1089.36   4
   2  17   1 4409.88 1908.13   7
   2  17   2 5145.53 1335.96   4
   2  17   3 34077.7 3040.15   4
   2  17   3 36655.4 5073.21   8
   2  17   4 20377.1 3875.65   8
   2  17   4 19031.5 2347.14   4
  -2  17  -4 21760.3 3296.04  10
   2  17   5 7456.73 1584.19   4
  -2  17  -5 6039.29 1805.96  10
   2  17   5 9253.70 2498.61   8
  -2  17  -6-3072.54 1351.09  10
  -2  17  -7 486.672 851.947  10
   2  17   7 1224.19 1213.34   6
  -2  17  -8 49.3935 693.240  10
   2  17   8 6.76781 1252.09   6
  -2  17  -9 508.430 1139.15  10
   2  17   9-497.018 1452.93   6
   2  17  10-1018.56 1263.25   6
  -2  17 -10-728.562 760.953  10
  -2  17 -11 1172.66 810.356  10
   2  18 -12 639.210 1193.94  12
  -2  18  12 667.330 764.830   6
   2  18 -11-1555.59 1703.39  12
  -2  18  11-642.125 919.303   6
   2  18 -10-1059.12 1836.73  12
  -2  18  10-723.967 1266.20   6
   2  18  -9 2010.35 2452.99  12
   2  18  -8 618.147 1803.84  12
   2  18  -7 26239.0 6123.25  12
  -2  18   6-179.980 1422.09   8
   2  18  -6 4011.42 2403.26  12
   2  18  -6 1720.70 1350.67   7
  -2  18   6 3274.50 1826.09  11
   2  18  -5 12184.8 4168.58  12
  -2  18   5 10643.6 2952.58   8
  -2  18   5 7266.01 2445.76  11
   2  18  -5 7751.87 2067.40   7
   2  18  -4 908.878 1031.25   7
   2  18  -4 3418.30 2938.00  12
  -2  18   4 153.240 919.355  11
   2  18  -3 18530.3 4755.30  12
   2  18  -3 12037.6 2608.33   7
   2  18  -2 1864.58 1124.36   7
   2  18  -1 3723.43 1637.61   7
   2  18   0 9942.86 2233.22   7
   2  18   1 3147.79 1929.23   7
   2  18   2 9729.84 1666.37   4
   2  18   2 15576.2 3507.67   8
   2  18   3 1487.98 824.468   4
   2  18   3 3909.24 2476.74   8
  -2  18  -3 1846.79 1208.79  10
   2  18   4 3880.52 1236.29   4
   2  18   4 1042.45 1222.12   8
  -2  18  -4 3742.61 1730.09  10
  -2  18  -5 129.008 1003.90  10
   2  18   5-1118.67 1590.98   8
   2  18   5-335.659 539.345   4
  -2  18  -6 2169.81 1265.45  10
  -2  18  -7 2518.11 1250.94  10
   2  18   7-331.060 1460.88   6
  -2  18  -8-331.843 987.151  10
   2  18   8-632.454 1290.55   6
  -2  18  -9 1947.12 1084.29  10
   2  18   9 1290.29 1334.75   6
   2  18  10 2859.10 1392.38   6
  -2  18 -10-183.822 635.495  10
  -2  18 -11 3792.83 1100.47  10
   2  19 -12 3386.55 1690.09  12
   2  19 -12 2943.78 990.070  10
  -2  19  11 131.363 814.321   6
   2  19 -11-92.2754 1475.48  12
   2  19 -10 6157.70 3145.87  12
  -2  19  10 4206.80 1706.46   6
   2  19  -9 1813.09 2410.04  12
   2  19  -8 6377.28 3602.61  12
   2  19  -7 740.870 2040.08  12
  -2  19   6-429.892 1284.64   8
   2  19  -6-3307.75 2509.50  12
  -2  19   6 1167.68 1630.71  11
  -2  19   5-4408.40 1852.90  11
  -2  19   5-1349.51 1700.30   8
   2  19  -5 1227.19 2785.97  12
   2  19  -5 1200.88 1136.83   7
   2  19  -4 5756.94 1929.06   7
   2  19  -4 8756.69 3745.67  12
  -2  19   4 6243.28 2370.30  11
  -2  19   3 2723.80 1572.61  11
   2  19  -3-785.745 1621.94   7
   2  19  -3 3354.15 2646.70  12
   2  19  -2 19282.5 3698.55   8
   2  19  -2 20111.4 3189.93   7
   2  19  -2 25197.2 5717.96  12
   2  19  -1 14411.7 3200.78   8
   2  19  -1 12704.0 2593.08   7
   2  19  -1 21710.4 5008.41  12
   2  19   0 11451.9 3417.72   8
   2  19   0 14315.9 4557.46  12
   2  19   0 11376.4 2469.94   7
   2  19   1 9864.46 2902.50   8
   2  19   1 13051.7 2758.60   7
   2  19   2 14840.4 2084.43   4
   2  19   2 14910.7 3469.75   8
   2  19   3 18325.2 2339.08   4
   2  19   3 22132.1 4297.56   8
  -2  19  -3 24271.8 3385.31  10
  -2  19  -4 14992.9 2874.79  10
   2  19   4 12765.0 1970.91   4
  -2  19  -5 3565.44 1488.66  10
   2  19   5 1415.86 1644.17   8
  -2  19  -6 91.7262 764.280  10
  -2  19  -7 766.846 875.381  10
   2  19   7-251.297 1746.32   6
  -2  19  -8-789.119 869.201  10
   2  19   8-1027.58 1475.24   6
  -2  19  -9 23.5516 691.380  10
   2  19   9 624.612 997.044   6
  -2  19 -10-395.748 691.054  10
   2  19  10 813.990 1134.33   6
   2  20 -11 1961.91 1000.21  10
  -2  20  11 2360.09 1164.06   6
   2  20 -11 2229.21 1719.15  12
   2  20 -10 53.0734 624.492  10
   2  20 -10-322.355 1662.10  12
   2  20  -9 1323.15 2328.38  12
   2  20  -8-204.737 1788.69  12
   2  20  -7-42.0077 1759.73  12
  -2  20   6 3228.99 1755.83   8
   2  20  -6 1360.34 2144.34  12
  -2  20   6 4712.51 1843.57  11
   2  20  -5-2832.89 2987.28  12
  -2  20   5-2909.58 1877.47   8
  -2  20   5-826.128 1184.43  11
  -2  20   4 1385.55 1275.93   8
   2  20  -4-547.883 2052.24  12
   2  20  -4-2148.72 1411.51   7
  -2  20   4-88.6531 1356.43  11
   2  20  -3-172.957 2369.34  12
  -2  20   3 73.0479 1126.96  11
   2  20  -3 1653.30 1444.70   7
   2  20  -2 3294.20 2104.49   8
   2  20  -2 802.239 1042.47   7
   2  20  -2 362.310 1909.28  12
   2  20  -1 6774.00 3245.05  12
   2  20  -1 3496.83 2087.42   8
   2  20  -1 4871.75 1776.20   7
   2  20   0 2508.81 2108.98   8
   2  20   0 139.566 1237.78   7
   2  20   0 408.098 2051.96  12
   2  20   1 4729.28 1852.80   7
   2  20   1 3993.40 2385.04   8
   2  20   2-448.167 1367.91   8
   2  20   3 9855.96 1781.10   4
   2  20   3 13893.1 3428.04   8
  -2  20  -3 12512.7 2473.03  10
  -2  20  -4 40.2028 764.794  10
   2  20   4-1851.22 1702.59   8
  -2  20  -5 1749.01 1062.92  10
   2  20   5-137.631 1882.55   8
   2  20   6 6707.21 2310.49   8
  -2  20  -6 6121.56 1922.60  10
   2  20   7 1295.05 1256.21   6
  -2  20  -7 773.249 1156.73  10
   2  20   8 4196.51 1830.94   6
  -2  20  -8 5242.49 1531.16  10
  -2  20  -9 281.770 833.187  10
   2  20   9 874.291 1101.25   6
   2  20  10 3019.85 1258.52   6
  -2  20 -10 2996.29 1074.44  10
  -2  21  11 1001.68 1272.40   6
   2  21 -11 3054.58 1706.15  12
  -2  21  10 357.355 1014.55   6
   2  21 -10-5167.78 2244.19  12
   2  21  -9 2511.34 2353.51  12
   2  21  -8 1924.39 1958.53  12
   2  21  -7 415.796 1712.30  12
   2  21  -6 1059.31 2093.28  12
  -2  21   6 534.745 941.287  11
  -2  21   6-38.4319 1267.29   8
   2  21  -5 1579.10 2216.33  12
  -2  21   5-161.174 1121.31  11
  -2  21   5 4376.05 2097.51   8
   2  21  -4 496.736 2239.47  12
  -2  21   4-4343.89 2069.81   8
  -2  21   4 1810.34 1367.33  11
  -2  21   3-215.602 1301.66  11
  -2  21   3 896.183 1235.75   8
   2  21  -3 39.6678 1962.05  12
   2  21  -2 729.121 1155.12   8
   2  21  -2 1742.05 1617.66   7
  -2  21   2-1338.17 1624.49  11
   2  21  -2-1249.98 2091.61  12
   2  21  -1 2856.28 3104.45  12
   2  21  -1 694.942 1861.69   8
   2  21  -1-741.360 1061.65   7
   2  21   0 883.704 1285.22   8
   2  21   0 1967.73 2618.83  12
   2  21   0-395.062 1128.37   7
   2  21   1-164.548 1650.67   8
   2  21   2 4277.92 2542.12   8
   2  21   3 35346.4 5592.06   8
  -2  21  -3 38904.0 4269.98  10
  -2  21  -4 2405.67 1410.61  10
   2  21   4 346.268 1215.24   8
   2  21   5 7881.36 2703.13   8
  -2  21  -5 13008.4 2602.48  10
  -2  21  -6 896.353 971.575  10
   2  21   6-3201.58 1658.48   8
   2  21   6-1292.36 1505.37   6
  -2  21  -7 879.099 970.643  10
   2  21   7 760.726 1187.27   6
   2  21   8-173.197 1099.17   6
  -2  21  -8 685.446 754.718  10
   2  21   9 1984.82 1150.61   6
  -2  21  -9 1829.70 953.295  10
   2  22 -10 866.886 1091.18  12
  -2  22  10 724.198 1121.52   6
   2  22  -9 1233.35 1916.52  12
   2  22  -8 2236.69 1380.36  12
   2  22  -7 20807.7 5181.73  12
  -2  22   6 1657.91 1571.30  11
  -2  22   6 2311.49 1669.02   8
   2  22  -6-1138.64 2398.46  12
  -2  22   5 4353.83 2130.40   8
  -2  22   5 5198.13 2180.87  11
   2  22  -5 1823.78 2272.15  12
  -2  22   4 1325.13 1234.78  11
   2  22  -4 817.164 1783.51  12
  -2  22   4 618.758 1203.97   8
  -2  22   3 3373.99 1960.47   8
   2  22  -3 4787.60 3555.62  12
  -2  22   3 5381.65 1996.98  11
   2  22  -2 295.207 1254.75   8
  -2  22   2-128.527 1232.90   8
   2  22  -2 1857.87 2097.03  12
  -2  22   2-538.908 1347.68  11
   2  22  -1 4791.18 2457.00   8
   2  22  -1 4424.40 3219.07  12
   2  22   0-937.626 1470.28   8
   2  22   1 623.174 1278.78   8
  -2  22  -2 9993.13 2852.75   8
   2  22   2 8775.08 2858.57   8
   2  22   3 4289.90 2229.11   8
  -2  22  -4-1476.61 1000.53  10
   2  22   4-1066.58 1240.27   8
  -2  22  -5 1235.83 818.969  10
   2  22   5-870.187 1580.86   8
  -2  22  -6 2179.70 1170.49  10
   2  22   6 1882.89 1575.08   8
   2  22   6-790.085 1198.57   6
   2  22   7 222.802 1178.64   6
  -2  22  -7 813.758 851.287  10
  -2  22  -8-203.468 658.504  10
   2  22   8 324.432 957.523   6
  -2  22  -9-963.580 741.864  10
   2  22   9 42.5004 831.522   6
  -2  23  10 42.9585 643.787   6
   2  23 -10 874.509 1242.84  12
  -2  23   9 3675.81 1414.92   6
   2  23  -9 3540.97 2384.99  12
   2  23  -8 1681.79 1313.76  12
   2  23  -7 1220.10 2149.91  12
   2  23  -6 3204.07 2318.00  12
  -2  23   6 3714.84 1822.36   8
   2  23  -5 4642.03 3055.19  12
  -2  23   5 4575.31 2087.34   8
  -2  23   5 3274.27 1610.69  11
   2  23  -4 623.202 1912.06  12
  -2  23   4 2220.39 1846.08   8
  -2  23   4 1134.96 1266.97  11
  -2  23   3 5181.56 2459.38   8
   2  23  -3 7287.06 3624.01  12
  -2  23   3 5910.42 2290.64  11
   2  23  -2 3724.81 1979.81   8
  -2  23   2 3283.56 1894.84   8
   2  23  -2 6153.35 3202.82  12
  -2  23   2 4425.72 1799.68  11
   2  23  -1-3.05673 2215.74  12
   2  23  -1 445.591 1334.06   8
  -2  23   1-1085.13 1701.79   8
  -2  23   1 1248.21 1319.98  11
   2  23   0-3101.89 1858.26   8
  -2  23   0-1806.46 1543.62   8
  -2  23  -1 3105.35 1758.64   8
   2  23   1 1339.07 1442.43   8
   2  23   2 528.543 1519.51   8
  -2  23  -2 1488.89 1342.91   8
   2  23   3 1824.09 2030.83   8
   2  23   4 6103.55 2648.70   8
  -2  23  -5-239.007 710.498  10
   2  23   5-3402.86 1722.81   8
   2  23   6 1389.36 1296.14   6
  -2  23  -6 800.465 812.394  10
   2  23   6 1770.00 1242.29   8
  -2  23  -7-328.034 563.541  10
   2  23   7-239.525 1043.30   6
   2  23   8 161.359 982.341   6
  -2  23  -8 779.855 1121.59  10
  -2  24   9 1915.77 958.177   6
   2  24  -9 2305.59 1413.83  12
   2  24  -8 1073.83 1258.75  12
   2  24  -7-2086.00 1851.85  12
  -2  24   6 1338.84 1293.84   8
   2  24  -6 1358.62 1836.86  12
  -2  24   5-1215.86 1249.54   8
   2  24  -5 946.975 1969.83  12
  -2  24   5-162.206 1245.80  11
   2  24  -4 2193.20 2446.03  12
  -2  24   4 2316.45 1723.45   8
  -2  24   4-109.082 1170.67  11
  -2  24   3 153.842 940.616  11
   2  24  -3 2932.75 2886.66  12
  -2  24   3 431.506 1525.97   8
  -2  24   2 7648.07 2738.85   8
   2  24  -2 9027.22 3915.44  12
  -2  24   2 3316.46 1925.82  11
   2  24  -2 1749.73 1649.92   8
   2  24  -1 1034.67 1554.62   8
  -2  24   1 4013.10 1970.81   8
  -2  24   1 1620.22 1455.96  11
   2  24   0 2081.11 1815.51   8
  -2  24   0 1238.19 1243.00  11
  -2  24   0 786.689 1305.97   8
  -2  24  -1 750.769 858.711  11
  -2  24  -1-600.956 1289.48   8
   2  24   2-1612.24 1767.76   8
  -2  24  -2-247.896 1270.93   8
   2  24   3-176.021 1348.21   8
   2  24   4 803.088 1357.34   8
   2  24   5-25.4585 980.114   6
   2  24   5 83.7286 1062.64   8
  -2  24  -6 6083.09 1571.92  10
   2  24   6 5843.03 1798.74   6
   2  24   6 3985.10 1624.70   8
  -2  24  -7 215.013 588.698  10
   2  24   7-1156.97 1023.32   6
   2  24   8 3312.50 1139.33   6
   2  25  -8-1544.53 1417.09  12
   2  25  -7-1274.59 1530.68  12
   2  25  -6 1101.73 1990.08  12
  -2  25   6 4631.91 1819.23   8
  -2  25   5 2553.94 1656.96   8
   2  25  -5 1373.20 1756.01  12
  -2  25   4-20.1414 1375.45   8
   2  25  -4 2181.55 1901.66  12
  -2  25   4-351.299 1007.24  11
   2  25  -3-18.9992 1734.90  12
  -2  25   3-314.073 1081.99   8
  -2  25   3 308.809 1042.76  11
  -2  25   2-8.56204 1094.71  11
   2  25  -2-136.328 1118.45   8
  -2  25   2 1889.71 1471.46   8
   2  25  -1 3544.30 1996.03   8
  -2  25   1 4052.62 2158.40   8
  -2  25   1 1750.50 1304.04  11
   2  25   0 1580.49 1246.35   8
  -2  25   0 2377.66 2135.35   8
  -2  25   0 3516.36 1468.68  11
   2  25   1 1419.99 1563.27   8
  -2  25  -1 2366.60 1838.00   8
  -2  25  -1 3598.46 1578.60  11
  -2  25  -2 437.278 1237.72   8
   2  25   2-3432.83 1820.57   8
   2  25   3 4313.30 2073.77   8
   2  25   4 100.318 1118.61   8
   2  25   5 3032.12 1205.05   6
   2  25   5 2073.88 1233.08   8
   2  25   6 946.090 1049.68   8
   2  25   6-485.146 879.357   6
   2  25   7 1861.97 1080.05   6
  -2  26   8-840.263 896.070   6
   2  26  -7 2368.51 1815.28  12
  -2  26   6-1972.18 1177.52   8
   2  26  -6 107.507 1456.20  12
  -2  26   5-1920.11 1125.74   8
   2  26  -5 1374.34 1518.33  12
  -2  26   4-443.146 916.953  11
  -2  26   4-2401.35 1476.64   8
   2  26  -4 682.627 1742.89  12
  -2  26   3-757.002 967.523  11
  -2  26   3-656.170 1363.40   8
  -2  26   2-82.6217 914.168  11
   2  26  -2-245.420 1185.41   8
  -2  26   2-659.455 1314.39   8
   2  26  -1-1994.23 1333.43   8
  -2  26   1-202.606 1265.27   8
  -2  26   1 215.587 853.418  11
  -2  26   0 2688.23 1391.39  11
   2  26   0 4079.96 1996.88   8
  -2  26   0 2372.52 1581.28   8
  -2  26  -1 876.676 850.432  11
   2  26   1-1748.99 1440.28   8
  -2  26  -1 1834.49 1668.57   8
  -2  26  -2 4353.74 1746.28   8
   2  26   2 427.164 1835.56   8
   2  26   3 120.081 1175.68   8
   2  26   4 1159.52 1098.44   8
   2  26   5-964.421 925.026   6
   2  26   5 770.249 1081.55   8
  -2  27   6 897.183 759.423   8
  -2  27   5-85.7991 894.550   8
  -2  27   4-339.306 912.998   8
  -2  27   3 736.940 1288.13   8
  -2  27   3 1358.34 975.528  11
   2  27  -2 1590.09 1214.94   8
  -2  27   2 1623.13 1459.16   8
  -2  27   2 125.982 1001.74  11
   2  27  -1-1321.61 1243.62   8
  -2  27   1-604.749 1325.38   8
  -2  27   1 1660.23 991.126  11
  -2  27   0 1078.47 1175.63   8
  -2  27   0 337.725 781.960  11
   2  27   0-692.414 1183.65   8
  -2  27  -1 1303.08 1041.82   8
   2  27   1 1476.33 1104.88   8
   2  27   2 317.569 949.112   8
   2  27   3 1022.68 1025.57   8
   2  27   4 741.440 1067.23   8
  -2  28   5 2430.49 1083.20   8
  -2  28   4 4031.73 1671.53   8
  -2  28   3-433.081 931.747   8
   2  28  -2 463.789 854.263   8
  -2  28   2 840.488 761.571  11
   2  28  -1 2377.66 1416.35   8
  -2  28   1 1011.29 1299.27   8
  -2  28   1 1417.22 1008.90  11
  -2  28   0 1456.70 1068.71  11
   2  28   0 2557.63 1291.19   8
  -2  28   0 830.815 1155.27   8
  -2  28  -1 3137.42 1471.14   8
   2  28   1-5081.27 1724.50   8
   2  28   2-33.3872 824.716   8
   2  28   3 519.732 851.961   8
   2  28   4 3251.15 1225.45   8
  -2  29   3 1739.32 1134.86   8
  -2  29   2 1779.21 1244.39   8
   2  29  -1 2488.95 1263.49   8
  -2  29   1 240.726 934.640   8
  -2  29   0 2248.98 1161.42   8
   2  29   0 1040.90 1160.27   8
   2  29   1 3665.85 1595.57   8
   2  29   2 301.014 933.465   8
  -3   0  15 1405.04 641.010  14
  -3   0  14-825.354 739.999  14
  -3   0  13-1171.27 797.274  14
  -3   0  12 418.086 571.606  14
   3   0 -11 651.227 974.254   5
  -3   0  11-321.827 732.651  13
  -3   0  11-366.604 605.631  14
   3   0 -10 942.260 751.831   3
   3   0  -9 9560.66 1604.48   3
   3   0  -8-549.486 545.865   3
   3   0  -7 19577.7 1937.52   3
   3   0  -6 1968.30 811.443   3
   3   0  -5 312369. 6389.87   3
   3   0  -4-1021.02 1140.60  16
   3   0  -4 1114.60 581.209   3
   3   0  -3 59629.4 3649.68  16
   3   0  -2 539.391 601.553  16
   3   0  -1 105058. 2472.65  16
  -3   0   0 1097.14 591.789   1
   3   0   1 999999. 7160.55   4
   3   0   1 988342. 9163.28  13
   3   0   2-243.716 278.734   4
   3   0   2 447.796 451.331  13
   3   0   2-278.749 427.783   1
   3   0   3 92882.5 3139.27  13
   3   0   4 877.109 608.450  13
   3   0   5 20139.7 1774.35  13
   3   0   6 719.717 652.181  13
   3   0   7 15587.2 1813.01  13
   3   0   8 265.201 727.410  14
   3   0   8 493.152 677.825  13
   3   0   9 2835.07 1104.37  14
   3   0  10 1167.94 767.387  14
   3   0  11 9392.80 1730.77  14
   3   0  12-581.716 433.635  14
   3   0  13 4849.86 994.547  14
  -3  -1  15 483.351 531.296  14
  -3   1  15 202.840 571.326  14
  -3  -1  14-142.460 509.915  14
  -3   1  14-540.698 610.073  14
  -3  -1  13 1716.67 990.274  14
  -3   1  13 1294.67 799.619  14
  -3  -1  12 2194.58 994.479  14
  -3   1  12 1731.60 880.039  14
   3  -1 -11 2213.48 962.618   3
   3   1 -11 2703.78 1122.66   5
   3   1 -11 2758.65 1225.10   9
   3  -1 -11 4400.01 1454.63   5
   3   1 -11 1580.14 873.077   3
  -3  -1  11 4218.41 1372.15  14
  -3   1  11 1833.10 980.165  13
  -3   1  11 2367.66 1155.02  14
   3  -1 -10 6955.30 1393.02   3
   3   1 -10 9715.38 1748.30   3
   3  -1  -9 58893.8 3676.11   3
   3   1  -9 59489.6 3763.20   3
   3   1  -8 1211.95 800.600   3
   3  -1  -8-108.632 553.967   3
   3   1  -7 51409.6 3100.47   3
   3  -1  -7 54568.2 3059.06   3
   3   1  -6 127375. 4427.49   3
   3  -1  -6 130041. 4374.45   3
   3   1  -5 25079.8 1912.76   3
   3  -1  -5 23543.2 1813.61   3
   3   1  -4 54294.8 3919.45  16
   3  -1  -4 52843.9 4045.13  16
   3   1  -4 50683.0 2459.62   3
   3  -1  -4 50792.8 2421.17   3
   3  -1  -3 1599.33 570.474   3
   3   1  -3 695.338 609.170  16
   3  -1  -3 1711.97 1047.01  16
   3   1  -2 4499.44 842.741  16
   3  -1  -2 5219.09 1064.60  16
  -3   1   1 34276.9 2521.30   1
  -3   1   0 127556. 4332.05   1
   3  -1   0 125748. 3245.29  13
  -3  -1   0 129690. 3821.51   1
   3   1   1 339262. 4476.76   4
   3  -1   1 326056. 5256.16  13
   3   1   1 335801. 5433.57  13
   3  -1   1 328739. 5110.50  16
   3  -1   1 324627. 7137.57   1
  -3   1  -2 6105.87 901.461   2
   3  -1   2 4523.41 732.322  13
   3   1   2 4624.50 620.107   4
   3  -1   2 5094.10 841.446  16
   3   1   2 4657.54 799.850  13
   3  -1   2 5580.01 1025.39   1
   3  -1   3 175468. 4258.29  13
   3   1   3 175617. 4385.60  13
   3  -1   4 96087.8 3418.80  13
   3   1   4 98029.8 3582.38  13
   3   1   5 1231.66 503.368  13
   3  -1   5 1065.69 488.021  13
   3   1   6 46806.9 2920.92  13
   3  -1   6 47848.9 2881.27  13
   3   1   7 6150.92 1262.82  13
   3  -1   7 6495.12 1165.03  13
   3  -1   8 23984.7 2657.13  14
   3   1   8 25338.6 2639.14  14
   3   1   8 23992.1 2427.37  13
   3  -1   9 14894.3 2222.60  14
   3   1   9 14040.8 2070.69  14
   3  -1  10 786.232 780.041  14
   3   1  10 184.087 560.148  14
   3  -1  11-133.420 552.317  14
   3   1  11 1409.10 722.081  14
   3   1  12 27.9510 593.207  14
   3  -1  12 1404.51 745.570  14
   3  -1  13 611.878 549.625  14
   3   1  13 1305.26 601.326  14
  -3  -2  15 394.781 477.644  14
  -3   2  15 1622.26 658.617  14
  -3   2  14 4678.41 1073.08  14
  -3  -2  14 4186.92 1051.60  14
  -3   2  13 609.006 650.142  14
  -3  -2  13 870.506 690.871  14
  -3   2  12 5194.05 1338.93  14
  -3  -2  12 3704.79 1304.93  14
   3  -2 -11 2700.97 1267.74   5
   3   2 -11 2017.88 1283.35   9
   3   2 -11 3586.82 1180.75   3
   3   2 -11 3080.99 1185.23   5
  -3  -2  11 4408.22 1374.09  14
  -3   2  11 3022.43 1139.92  14
  -3   2  11 1413.73 754.669  13
   3   2 -10 5434.46 1243.05   3
   3  -2 -10 6035.26 1335.77   3
   3  -2  -9 664.716 633.713   3
   3   2  -9 2681.41 1261.84   3
   3  -2  -8 1301.51 556.020   3
   3   2  -8 2422.95 942.246   3
   3   2  -7 1436.96 901.610   3
   3  -2  -7 1043.40 678.916   3
   3   2  -6 2752.69 836.935   3
   3  -2  -6 1946.89 749.913   3
  -3  -2   5 21377.6 3014.13  16
   3   2  -5 26096.3 1927.62   3
   3  -2  -5 25036.8 1824.90   3
   3  -2  -4 225958. 8623.82  16
   3   2  -4 221520. 7865.72  16
  -3  -2   4 197982. 7915.08  16
   3  -2  -4 209068. 4844.00   3
   3   2  -4 205479. 4953.74   3
  -3  -2   3-55.8307 718.777  16
   3  -2  -3 585.623 883.010  16
   3   2  -3 206.826 406.169   3
   3  -2  -3 808.109 511.843   3
   3   2  -2 65339.7 2523.94   3
  -3  -2   2 66585.6 3146.39  16
  -3   2   2 68025.0 3951.16   1
   3   2  -1 33445.0 1691.53   3
  -3  -2   1 30471.2 1477.37  16
   3   2   0 129682. 2972.48   4
   3  -2   0 126173. 3299.53  13
  -3   2   0 132042. 4715.10   1
  -3  -2   0 138918. 3793.00   1
   3  -2   1 102011. 3274.33  16
   3  -2   1 94575.9 2837.40  13
   3   2   1 96089.1 2578.69   4
   3  -2   1 95751.3 4144.74   1
   3   2   1 98785.1 3016.58  13
  -3   2  -2 42964.1 2473.68   2
   3   2   2 41387.5 1834.27   4
   3  -2   2 42277.1 2793.93   1
  -3  -2  -2 42788.8 2105.52  16
   3  -2   2 41148.3 1953.28  13
   3  -2   2 40839.7 2623.74  16
   3   2   2 39687.6 2048.44  13
   3  -2   3 42403.1 3007.50   1
   3   2   3 43247.6 2263.38  13
   3  -2   3 40749.2 2050.35  13
   3  -2   4 20175.8 1578.55  13
   3   2   4 18868.0 1647.99  13
   3  -2   5 122.616 391.174  13
   3   2   5 696.632 487.550  13
   3  -2   6 13935.0 1514.30  13
   3   2   6 16037.8 1787.88  13
   3   2   7 4872.51 1180.08  13
   3  -2   8 7482.83 1538.85  14
   3   2   8 7186.48 1434.85  13
   3   2   8 7311.75 1537.94  14
   3  -2   9 19.1142 617.231  14
   3   2   9-196.349 520.552  13
   3   2   9 286.402 773.414  14
   3   2  10 1547.81 777.897  14
   3  -2  10 3353.58 1261.99  14
   3  -2  11 339.946 660.761  14
   3   2  11 590.955 556.545  14
   3  -2  12 594.907 582.878  14
   3   2  12-145.339 541.330  14
   3   2  13 468.080 448.443  14
   3  -2  13-301.519 468.073  14
  -3   3  15 367.593 484.401  14
  -3  -3  15-500.451 584.223  14
  -3   3  14-479.768 619.033  14
  -3  -3  14-31.2834 583.200  14
  -3   3  13 2138.21 951.860  14
  -3  -3  13 1599.06 840.917  14
  -3  -3  12 2978.42 1023.54  14
  -3   3  12 3630.03 1266.84  14
   3   3 -11 4120.86 1451.11   9
   3  -3 -11 5124.83 1476.94   5
   3   3 -11 3709.11 1415.79   5
  -3   3  11 3032.02 1159.29  14
   3   3 -11 4277.53 1287.04   3
  -3  -3  11 2395.63 1161.92  14
  -3   3  11 3359.71 1103.76  13
   3  -3 -10 6818.68 1253.71   5
   3   3 -10 8809.12 1580.64   5
   3   3 -10 9719.29 1803.68   3
   3   3  -9 67356.7 4111.47   3
   3  -3  -9 65005.4 3710.73   3
   3  -3  -8 219.406 722.494   3
   3   3  -8-71.2665 611.763   3
   3   3  -7 49527.8 3103.26   3
   3  -3  -7 52906.5 2954.57   3
   3  -3  -6 106467. 3874.36   3
   3   3  -6 104316. 4163.26   3
   3   3  -5 17462.0 1616.97   3
   3  -3  -5 18115.8 1565.04   3
   3  -3  -4 62723.0 2699.76   3
   3  -3  -4 61201.9 4704.48  16
  -3  -3   4 61344.2 4455.33  16
   3   3  -4 64233.7 2796.31   3
  -3  -3   3 4058.84 1092.85  16
   3   3  -3 4169.98 784.902   3
   3  -3  -3 3832.22 627.872   3
  -3  -3   2 20721.6 1811.90  16
   3   3  -2 22438.6 1492.85   3
  -3   3   2 23770.5 2450.71   1
   3  -3  -2 24326.3 1518.66   3
   3   3  -2 21303.5 1464.84  13
  -3  -3   1 30109.0 1615.20  16
  -3   3   1 30609.8 2563.36   1
   3   3  -1 32170.9 1757.16   7
   3   3  -1 30311.2 1621.09   3
   3   3  -1 33090.7 1724.87  13
   3   3   0 342.245 357.342   4
   3  -3   0 584.632 402.667  13
   3   3   0-290.646 508.992   7
   3  -3   0 975.849 735.612   1
  -3   3  -1 3777.47 738.881   2
   3   3   1 3128.87 552.018   4
  -3  -3  -1 3368.42 554.206  16
   3  -3   1 7596.16 1343.32   1
   3   3   1 6533.75 979.439   7
   3   3   1 5188.95 755.781  13
   3  -3   1 4420.55 678.839  13
   3  -3   2 4951.35 1111.43   1
  -3  -3  -2 2892.08 722.524  16
   3  -3   2 4612.17 996.620  16
   3  -3   2 3314.21 614.879  13
   3   3   2 3257.53 631.056   4
   3   3   2 3175.15 668.205  13
  -3   3  -2 3047.02 783.022   2
   3  -3   3 46684.5 3363.60   1
   3   3   3 44254.0 2331.70  13
   3  -3   3 44313.4 2107.74  13
   3  -3   4 109150. 3540.14  13
   3   3   4 111553. 3992.23  13
   3  -3   5 618.900 397.919  13
   3   3   5 360.901 533.398  13
   3   3   6 20869.8 2092.72  13
   3   3   7 12199.4 1772.34  13
   3  -3   8 4350.12 1263.54  14
   3   3   8 4308.66 1240.24  13
   3   3   8 4260.33 1133.16  14
   3  -3   9 1339.06 902.797  14
   3   3   9 1333.04 853.175  14
   3   3   9-162.303 696.668  13
   3  -3  10 436.977 784.338  14
   3   3  10-575.756 729.932  14
   3   3  11 702.693 667.643  14
   3  -3  11 158.640 545.104  14
   3   3  12 1559.05 726.695  14
   3  -3  12 1465.57 757.668  14
   3   3  13 2073.06 662.012  14
   3  -3  13 892.495 637.642  14
  -3  -4  15 1764.35 725.375  14
  -3  -4  14-781.150 742.707  14
  -3  -4  13-197.632 572.511  14
  -3   4  13-110.408 483.699  14
  -3   4  12 1970.49 924.538  14
  -3  -4  12 2521.25 1036.65  14
  -3   4  11 7019.31 1541.92  14
   3   4 -11 7510.62 1855.69   5
   3   4 -11 6456.77 1614.00   3
   3   4 -11 10200.8 2181.05   9
  -3   4  11 7179.80 1531.30  13
  -3  -4  11 5291.55 1412.17  14
   3   4 -10 26.3274 1045.31   9
   3  -4 -10-1043.60 767.727   5
   3   4 -10 564.250 918.225   3
   3   4  -9 8899.08 1529.14   3
   3  -4  -8 367.611 445.287   3
   3   4  -8 490.405 749.513   3
   3  -4  -7 4669.88 967.688   3
   3   4  -7 4604.03 1108.84   3
   3   4  -6 3144.02 874.857   3
   3  -4  -6 2518.82 752.763   3
   3  -4  -5 72341.9 3025.49   3
   3   4  -5 69031.2 3185.85   3
   3  -4  -4 15374.1 1357.96   3
   3  -4  -4 17832.9 2792.91  16
   3   4  -4 15015.9 1417.74   3
  -3  -4   4 14674.8 2265.60  16
   3  -4  -3 40894.2 2053.64   3
  -3  -4   3 39917.6 3129.88  16
   3   4  -3 41356.4 2170.09   3
  -3   4   3 38674.3 3384.85   1
   3   4  -2 6540.59 892.127   3
  -3  -4   2 5129.51 1097.57  16
  -3   4   2 5135.52 1242.59   1
   3   4  -2 5649.47 803.686  13
   3   4  -1 24592.0 1487.10   3
   3   4  -1 25790.4 1588.67  13
  -3  -4   1 21895.6 1561.60  16
   3   4  -1 22922.6 1656.97   7
  -3   4   1 27109.2 2526.71   1
   3   4   0 62829.2 2659.46   7
   3   4   0 61563.4 2269.29   4
   3   4   0 62878.9 2436.59  13
   3  -4   0 63153.3 3891.59   1
   3   4   1 13302.1 1110.51   4
   3  -4   1 17208.0 2066.30   1
   3   4   1 14809.0 1226.60  13
   3   4   1 14666.0 1421.76   7
  -3   4  -1 15351.2 1659.73   2
   3  -4   1 15853.1 1213.20  13
   3   4   2 433.702 447.849   4
   3  -4   2 227.711 575.178  16
   3  -4   2 75.0096 309.803  13
  -3   4  -2-494.786 566.932   2
   3   4   2 425.337 476.948  13
   3  -4   2-119.612 568.956   1
  -3  -4  -2 452.079 561.255  16
   3  -4   3 173096. 6848.56   1
   3  -4   3 173360. 4120.03  13
   3   4   3 185677. 4843.07  13
   3   4   4 2740.00 774.753  13
   3   4   5 2224.31 764.316  13
   3   4   6 987.674 740.357  13
   3   4   7 14276.4 1838.93  13
   3   4   8 656.500 664.143  14
   3  -4   8 1266.42 702.539  14
   3   4   8 470.995 650.179  13
   3   4   9 2831.49 1091.40  14
   3  -4   9 1582.28 981.200  14
   3   4   9 3116.88 1033.67  13
   3   4  10 757.399 520.309  14
   3  -4  10-925.137 749.592  14
   3  -4  11 11199.3 1834.05  14
   3   4  11 10488.9 1694.05  14
   3  -4  12-281.290 509.291  14
   3  -4  13 3541.76 818.610  14
  -3  -5  15 407.931 480.706  14
  -3  -5  14 1442.58 751.650  14
  -3  -5  13 625.133 711.553  14
  -3  -5  12 1751.65 951.153  14
   3   5 -11 650.548 794.874   9
  -3  -5  11 177.183 684.283  14
   3   5 -11 335.362 650.037   3
  -3   5  11-14.7893 870.577  13
   3   5 -10 3676.25 1360.76   9
   3   5 -10 1929.08 887.242   5
   3   5 -10 1736.05 1047.20   3
   3  -5 -10 2676.88 1195.59   5
   3   5  -9 20725.8 2413.25   3
   3   5  -8 3987.80 1085.54   3
   3   5  -7 26090.4 2380.80   3
   3  -5  -7 25237.6 2016.79   3
   3   5  -6 35744.8 2544.25   3
   3  -5  -6 37022.0 2279.47   3
   3   5  -5 385.023 504.348   3
   3  -5  -5 1002.33 412.431   3
   3   5  -4 22576.3 1765.40   3
   3  -5  -4 23902.7 1696.21   3
  -3   5   4 23565.7 2900.61   1
  -3  -5   4 22888.3 2897.48  16
   3  -5  -3 603.623 402.660   3
  -3  -5   3 437.515 591.975  16
  -3   5   3 1759.60 879.152   1
   3   5  -3 148.980 373.135   3
  -3   5   2 16315.8 2173.79   1
   3   5  -2 16851.6 1301.83   3
   3   5  -2 16642.1 1318.91  13
  -3  -5   2 14216.8 1642.33  16
  -3   5   1 708.565 622.808   1
   3   5  -1 331.778 342.303  13
   3   5  -1 565.640 606.919   7
   3   5  -1 109.039 360.424   3
   3   5   0 33713.4 1772.97   4
   3   5   0 33083.0 1615.82   3
   3   5   0 34750.3 1867.06  13
   3   5   0 36011.1 2180.23   7
   3  -5   0 38296.9 3222.99   1
   3   5   1 20700.5 1771.17   7
   3  -5   1 19183.3 1304.74  13
   3   5   1 22555.9 1460.28   4
   3  -5   1 25044.5 2619.43   1
  -3   5  -1 21798.0 2119.29   2
   3   5   1 21383.2 1544.16  13
   3   5   2 4965.76 772.201   4
   3  -5   2 4481.01 1106.45  16
   3  -5   2 3005.51 546.821  13
   3   5   2 4233.13 776.041  13
  -3  -5  -2 5112.52 1117.08  16
  -3   5  -2 3546.62 1053.91   2
   3   5   3 64986.2 2974.92  13
   3   5   4 165099. 5074.53  13
   3   5   5 1827.69 679.333  13
   3   5   6 44238.9 3121.42  13
   3   5   7-293.331 752.834  13
   3  -5   8 16364.6 2153.54  14
   3   5   8 16129.1 2173.50  13
   3   5   8 13464.7 2772.61   6
   3   5   9 1755.05 966.412  13
   3  -5   9 499.127 611.431  14
   3  -5  10 1220.37 719.421  14
   3  -5  11-200.049 534.740  14
   3  -5  12 770.655 648.626  14
   3  -5  13 777.345 520.809  14
  -3  -6  15-495.201 505.020  14
  -3  -6  14 8830.60 1544.07  14
  -3  -6  13 1663.06 792.458  14
  -3  -6  12 7798.03 1665.40  14
   3   6 -11 1147.35 1097.17   9
  -3  -6  11 1659.69 904.907  14
  -3   6  11 1391.93 1026.59  13
   3  -6 -10 6161.47 1748.42   5
   3   6 -10 5971.26 1762.96   9
   3   6 -10 8111.19 1637.33   5
   3   6 -10 5134.60 1296.59   3
   3   6  -9 6500.40 1512.26   3
   3   6  -8 2670.71 1012.68   3
   3   6  -7 5524.54 1239.32   3
   3   6  -6 17021.8 1878.06   3
   3  -6  -6 12754.1 1388.77   3
   3  -6  -5 12236.9 1273.75   3
   3   6  -5 13138.0 1467.82   3
  -3  -6   4 36715.1 3684.96  16
   3   6  -4 41857.2 2397.30   3
   3  -6  -4 41875.3 2221.56   3
   3  -6  -3 160.221 345.363   3
  -3  -6   3-410.191 653.142  16
   3   6  -3 100.170 392.543   3
  -3   6   3 77.1230 691.523   1
   3   6  -2 40873.2 2052.28  13
  -3  -6   2 37628.1 2842.70  16
   3   6  -2 41441.0 2051.06   3
  -3   6   2 42009.6 3545.68   1
   3   6  -1 10016.8 1048.02  13
   3   6  -1 11042.2 993.217   3
   3   6  -1 12057.9 1450.54   7
   3   6   0 57261.2 2309.68   4
  -3  -6   0 57032.4 2099.08   2
   3   6   0 55613.6 2395.30  13
   3   6   0 57302.9 2927.18   7
   3  -6   0 60888.9 4254.08   1
   3   6   0 55349.1 2053.47   3
   3   6   1 8290.77 983.737   4
  -3   6  -1 8604.38 1436.07   2
   3   6   1 8943.46 1295.80   7
   3   6   1 9969.68 1084.52  13
   3   6   2 1706.30 605.190   4
   3   6   2 38.6425 384.262  13
   3   6   3 2543.85 772.554  13
   3   6   4 10041.2 1335.24  13
   3   6   5 66.3282 569.244  13
   3   6   6 23356.1 2371.06  13
   3   6   7 832.391 792.175  13
   3   6   8 12637.3 2674.22   6
   3   6   8 11515.2 1859.55  13
   3  -6   8 9789.55 1741.06  14
   3  -6   9 643.778 655.007  14
   3   6   9 1466.44 894.818  13
   3  -6  10 727.494 677.272  14
   3  -6  11 3887.43 1119.21  14
   3  -6  12 254.200 567.686  14
   3  -6  13 373.626 425.735  14
  -3  -7  15-755.790 535.788  14
  -3  -7  14-1016.83 680.580  14
  -3  -7  13-495.832 619.938  14
   3   7 -12 776.155 1004.63   9
  -3  -7  12 650.236 667.195  14
   3   7 -11 5920.91 1651.11   9
  -3  -7  11 5087.24 1480.01  14
  -3   7  11 3801.36 1188.98  13
   3  -7 -10 6355.69 1525.72   5
   3   7 -10 4255.52 1433.32   3
   3   7 -10 3232.03 1099.61   5
   3   7  -9 22903.5 2569.52   3
   3   7  -8-224.777 732.013   3
   3   7  -7 78783.8 4218.48   3
   3   7  -6 25422.3 2221.17   3
   3   7  -5 47377.9 2849.60   3
   3   7  -4 67973.8 3103.81   3
   3  -7  -4 69917.2 2846.73   3
  -3  -7   3 19649.1 2508.70  16
   3  -7  -3 20663.3 1510.39   3
   3   7  -3 21346.3 1639.42   3
  -3   7   2 1032.19 715.613   1
   3   7  -2 134.526 346.899   3
   3   7  -2-209.810 371.970  13
   3   7  -2-828.809 783.847   7
   3   7  -1 17050.0 1338.99  13
   3   7  -1 14748.9 1170.04   3
   3   7  -1 16609.1 1716.12   7
  -3  -7   1 19070.8 1665.74   2
   3   7   0 1573.92 536.255   4
  -3  -7   0 1208.27 395.965   2
   3   7   0 1315.14 514.607  13
   3   7   1 2016.57 598.465   4
   3   7   1 2509.06 1042.38   7
   3   7   1 1958.92 651.406  13
   3   7   2 285.492 406.191   4
   3   7   2-524.211 572.130  13
   3   7   2 928.170 947.914   7
   3   7   3 111951. 4033.08  13
   3   7   4 4998.47 1041.35  13
   3   7   5 8293.22 1500.05  13
   3   7   6 26786.6 2529.90  13
   3   7   7 1043.25 757.727  13
   3   7   8 3798.78 1916.98   6
   3  -7   8 3440.91 1049.97  14
   3   7   8 3926.94 1183.53  13
   3   7   9-376.515 1491.28   6
   3  -7   9 2483.12 924.656  14
   3  -7  10 221.114 609.723  14
   3  -7  11-216.897 554.433  14
   3  -7  12 787.661 558.355  14
   3  -7  13 678.469 490.573  14
  -3  -8  15 776.395 524.169  14
  -3  -8  14 353.031 622.353  14
  -3  -8  13-216.568 616.757  14
   3   8 -12-3326.16 1384.17   9
  -3  -8  12-358.215 620.760  14
   3   8 -11 4447.46 1634.86   9
  -3  -8  11 3168.79 1203.48  14
   3   8 -10 481.939 701.764   3
  -3   8  10 1866.79 1018.73  13
   3   8 -10 863.063 822.394   9
   3   8  -9 8797.27 1616.70   3
   3   8  -8 2866.99 1143.85   3
   3   8  -7 388.505 605.966   3
   3   8  -6 30853.1 2497.02   3
   3   8  -5 3677.59 944.691   3
   3   8  -4 4430.86 815.075   3
  -3  -8   3 7791.63 1655.00  16
   3  -8  -3 10376.7 1119.08   3
   3   8  -3 11496.4 1201.31   3
  -3  -8   2 33208.1 2671.27   2
   3   8  -2 32304.8 1889.14  13
   3   8  -2 32939.0 2577.95   7
   3   8  -2 32373.8 1803.55   3
   3   8  -1 70188.6 2754.57  13
   3   8  -1 72533.4 3689.18   7
  -3  -8   1 73716.4 3409.36   2
   3   8   0 8854.69 1104.00   4
   3   8   0 10638.7 1142.09  13
   3   8   0 8227.22 1181.21   7
   3   8   1 234876. 5380.87   4
   3   8   1 227345. 5188.00  13
   3   8   1 235395. 6790.88   7
   3   8   2 639.734 539.199   4
   3   8   2 649.483 978.489   7
   3   8   2 184.243 513.525  13
   3   8   3 10483.1 1345.15   4
   3   8   3 12398.1 1440.76  13
   3   8   4 3968.53 1019.99  13
   3   8   5 3191.53 1017.20  13
   3   8   6 3865.20 1116.44  13
   3   8   7 12685.5 2937.71   6
   3   8   7 11579.5 1750.45  13
   3  -8   8 2286.43 983.131  14
   3   8   8 2402.96 1718.89   6
   3   8   8 1199.40 783.481  13
   3   8   9 6289.01 2092.21   6
   3  -8   9 6526.61 1493.98  14
   3  -8  10 1414.85 902.130  14
   3  -8  11 5274.66 1265.77  14
   3  -8  12 438.893 593.678  14
   3  -8  13 1601.32 600.600  14
  -3  -9  15 1031.54 512.720  14
   3   9 -15-1736.91 1301.62  12
  -3  -9  14 1814.22 703.798  14
  -3  -9  13 164.757 484.977  14
   3   9 -12 5969.58 1724.31   9
  -3  -9  12 6601.93 1514.19  14
   3   9 -11 1759.89 937.455   9
  -3  -9  11 1445.19 592.530  14
  -3  -9  10 1968.30 857.357  14
   3   9 -10 690.243 661.563   3
  -3   9  10 2939.34 1145.34  13
   3   9 -10 750.458 926.012   9
   3   9  -9 15786.4 2626.43   9
   3   9  -9 17194.0 2303.86   3
   3   9  -8 1183.58 828.674   3
   3   9  -7 18905.6 2243.80   3
   3   9  -6 9361.26 1464.58   3
   3   9  -5 3893.10 1048.63   3
   3   9  -4 23719.1 1872.95   3
   3   9  -3 16006.7 2004.27   7
   3   9  -3 16364.3 1436.09   3
   3   9  -2 9267.75 1067.43  13
   3   9  -2 9709.05 1550.66   7
   3   9  -1 3603.21 707.756  13
   3   9  -1 3402.42 1114.00   7
   3   9   0 45060.5 2291.26  13
   3   9   0 43732.8 3027.98   7
   3   9   0 46065.8 2452.42   4
   3   9   1 24227.8 1843.15   4
   3   9   1 26710.8 2489.20   7
   3   9   1 24066.7 1778.12  13
   3   9   2 591.309 617.187   4
   3   9   2 1090.81 575.507  13
   3   9   3 20709.8 1886.34  13
   3   9   3 21121.7 2003.42   4
   3   9   4 30353.2 2446.24  13
   3   9   5 12065.9 1704.38  13
   3   9   6 40719.9 3214.19  13
   3  -9   7 1072.96 636.746  14
   3   9   7-885.837 976.201  13
   3   9   7 1164.62 1444.61   6
   3   9   8 9565.18 2681.10   6
   3   9   8 4680.63 1252.39   4
   3   9   8 6242.57 1559.25  13
   3  -9   8 5122.30 1402.95  14
   3   9   9 665.517 1459.25   6
   3  -9   9 77.7714 592.700  14
   3  -9  10 545.134 510.577  14
  -3   9 -11 126.173 689.455  10
   3  -9  11 629.075 775.119  14
   3  -9  12-112.263 431.615  14
   3  10 -15 1492.97 1461.89  12
  -3 -10  14 3366.20 849.044  14
  -3 -10  13 498.317 605.991  14
  -3 -10  12 8895.91 1654.34  14
   3  10 -11 1713.96 1105.59   9
  -3 -10  11 760.781 680.432  14
   3  10 -10 558.479 924.860   9
  -3 -10  10-1589.10 907.977  14
  -3  10  10-153.683 782.304  13
   3  10  -9 4804.15 1685.88   9
   3  10  -9 10211.5 1918.26   3
   3  10  -8 310.661 766.976   3
   3  10  -7 5971.35 1371.54   3
   3  10  -6-196.219 548.122   3
   3  10  -5 3373.22 941.945   3
   3  10  -4 55239.7 2919.40   3
   3  10  -3 879.942 454.975   3
   3  10  -3 632.543 911.869   7
   3  10  -2 172485. 6429.94   7
   3  10  -1 6886.02 943.497  13
   3  10  -1 4309.86 1043.25   7
   3  10   0 57998.0 3798.13   7
   3  10   0 56656.4 2823.38   4
   3  10   0 54175.8 2584.86  13
   3  10   1 22091.3 1847.19   4
   3  10   1 22435.7 2501.40   7
   3  10   1 21505.9 1774.03  13
   3  10   2 8421.84 1615.16   7
   3  10   2 7941.93 1215.15   4
   3  10   2 9266.55 1266.14  13
   3  10   3 2106.66 765.562   4
   3  10   3 2353.95 757.503  13
   3  10   4 13030.1 1794.21   4
   3  10   4 12661.0 1639.40  13
   3  10   5 1003.44 808.106   4
   3  10   5 378.687 589.156  13
   3  10   6 7849.08 1588.92  13
   3  10   7 350.193 1404.21   6
   3  10   7 1402.16 825.193   4
   3 -10   7-483.540 540.187  14
   3  10   7 2811.47 1007.92  13
   3  10   8 2959.89 1883.66   6
   3  10   8 1987.18 845.294   4
   3 -10   8 2020.61 1003.43  14
   3  10   8 4797.49 1401.90  13
   3  10   9 949.576 1269.93   6
   3 -10   9-543.052 589.036  14
  -3  10 -10 894.850 913.521  10
   3 -10  10-364.699 492.606  14
  -3  10 -11-1287.94 914.841  10
   3 -10  11 511.590 588.522  14
   3 -10  12 305.895 438.327  14
   3  11 -14-1817.51 1554.17  12
  -3 -11  14-144.263 415.355  14
  -3 -11  13 88.7944 569.277  14
  -3 -11  12 1195.37 793.333  14
   3  11 -11 7397.78 1953.96   9
  -3 -11  11 4712.15 1382.83  14
   3  11 -10 2537.10 1264.74   9
  -3 -11  10 1960.94 970.950  14
  -3  11  10 3266.35 1168.22  13
  -3 -11   9 21217.8 2426.21  14
   3  11  -9 23636.4 3299.89   9
   3  11  -9 25933.6 2941.36   3
  -3  11   9 23456.2 2738.71  13
   3  11  -8-431.683 662.821   3
   3  11  -7 28334.8 2710.80   3
   3  11  -6 17422.3 2079.70   3
   3  11  -5 4508.02 1018.19   3
   3  11  -4 28863.5 2123.54   3
   3  11  -4 29973.5 3134.76   7
   3  11  -3 14591.3 2127.59   7
   3  11  -2 12213.8 1962.71   7
   3  11  -1 5340.33 1329.28   7
   3  11   0 50100.8 2830.59   4
   3  11   0 48285.5 2549.18  13
   3  11   0 48287.4 3613.73   7
   3  11   1 17810.3 1761.17   4
   3  11   1 16819.5 1583.08  13
   3  11   1 18557.2 2347.30   7
   3  11   2 572.576 569.930  13
   3  11   2 83.1801 566.635   4
   3  11   2 735.667 1085.15   7
   3  11   3 35411.0 2705.66   4
   3  11   3 35217.3 2603.98  13
   3  11   4 11557.9 1708.79   4
   3  11   4 9149.28 1460.58  13
   3  11   5 3819.06 1033.10   4
   3  11   5 5048.61 1337.59  13
   3  11   6 5174.56 1927.85   6
   3  11   6 4695.92 1271.64   4
   3  11   6 3636.15 1245.85  13
   3  11   7 734.214 753.034   4
   3 -11   7 402.643 638.684  14
   3  11   7-6.64052 670.074  13
   3  11   7-515.424 1531.80   6
   3  11   8 1157.91 1587.19   6
   3 -11   8 61.1008 705.353  14
   3 -11   9 3653.12 1181.94  14
   3  11   9 72.7934 1286.47   6
  -3  11 -10-171.646 728.182  10
   3 -11  10-120.403 623.406  14
  -3  11 -11 1194.68 812.270  10
   3 -11  11 1630.86 814.645  14
   3 -11  12 361.319 463.151  14
  -3  11 -12 1482.60 633.357  10
  -3 -12  14 177.565 511.508  14
   3  12 -14-1812.42 1978.43  12
   3  12 -13-2159.16 1893.40  12
  -3 -12  13-1182.84 633.317  14
  -3 -12  12 769.266 569.999  14
   3  12 -11 5293.53 1649.73   9
  -3 -12  11 5608.35 1377.53  14
   3  12 -10 3569.09 1440.91   9
   3  12  -9 598.383 1014.85   9
  -3  12   9 1584.13 891.020  13
   3  12  -8 3930.80 1530.75   9
   3  12  -8 1102.61 741.463   3
   3  12  -7 5703.26 1272.74   3
   3  12  -6 1982.82 920.360   3
   3  12  -5 11908.6 1558.59   3
   3  12  -4-1136.05 1493.13   7
   3  12  -3 29852.5 3033.51   7
   3  12  -2 831.974 1010.99   7
   3  12  -1 49832.9 3811.02   7
   3  12   0 549.413 666.138   4
   3  12   0 318.735 860.721   7
   3  12   1 97927.2 4166.56   4
   3  12   1 94155.4 3762.37  13
   3  12   1 97352.2 5441.22   7
   3  12   2 26031.7 3059.07   7
   3  12   2 25165.8 2282.75   4
   3  12   2 23051.9 2020.84  13
   3  12   3 10558.1 1582.13   4
   3  12   3 11686.8 1579.69  13
   3  12   4 7338.72 1440.53   4
   3  12   4 6674.02 1284.15  13
   3  12   5 2126.41 886.365   4
   3  12   5 1821.98 783.965  13
   3  12   6 624.227 650.338   4
   3  12   6-619.632 721.537  13
   3  12   7 1206.84 1823.91   6
   3  12   7 1760.74 937.203   4
   3  12   7 2140.06 1009.98  13
   3  12   8 2335.33 2010.65   6
  -3  12  -9 4758.39 1642.35  10
   3 -12   9 3713.86 1105.53  14
   3  12   9 1722.31 1312.49   6
   3 -12  10-503.738 599.779  14
  -3  12 -10-543.824 1024.04  10
  -3  12 -11 5700.88 1404.81  10
   3 -12  11 3915.84 935.315  14
  -3  12 -12 472.215 519.473  10
   3 -12  12-644.304 496.330  14
   3  13 -14 1977.88 1620.73  12
  -3 -13  13-386.572 624.440  14
   3  13 -13-345.444 1421.08  12
   3  13 -12-1248.31 1775.63  12
  -3 -13  12-919.714 596.524  14
   3  13 -11-382.456 782.919   9
   3  13 -10 2755.20 1412.55   9
   3  13  -9 8147.46 2052.83   9
  -3  13   9 8917.55 1864.30  13
   3  13  -8 1224.19 1219.81   9
  -3  13   8 2820.62 1190.49  13
   3  13  -7 22258.5 2417.44   3
   3  13  -6 24304.9 2313.23   3
   3  13  -5 1976.98 1194.08   7
   3  13  -4 8894.94 2074.23   7
   3  13  -3 7040.86 1732.86   7
   3  13  -2 32867.1 3369.24   7
   3  13  -1 4667.65 1151.07   7
   3  13   0 8700.59 1339.63   4
   3  13   0 6301.85 1634.18   7
   3  13   1 3368.94 947.847   4
   3  13   1 3876.13 1624.65   7
   3  13   2 12608.2 1680.18   4
   3  13   2 12352.8 1548.08  13
   3  13   2 12720.1 2424.32   7
   3  13   3 2742.16 1075.90   4
   3  13   3 2764.03 820.902  13
   3  13   4 16243.8 2098.30   4
   3  13   4 13913.4 1872.41  13
   3  13   5 6329.59 1411.50  13
   3  13   5 5243.94 1305.01   4
   3  13   6 13517.1 2053.75  13
   3  13   6 12757.6 2765.30   6
   3  13   6 13845.7 2034.37   4
   3  13   7-80.0366 1271.25   6
   3  13   7-2427.28 1120.30   4
   3  13   7-65.9802 588.772  13
   3  13   8 15653.4 3260.32   6
   3  13   9-1194.79 1392.35   6
  -3  13  -9 1091.92 836.681  10
  -3  13 -10 5155.26 1587.04  10
  -3  13 -11 1688.25 912.642  10
   3  14 -14 6251.27 2158.92  12
   3  14 -13 278.458 1289.48  12
   3  14 -12 6863.82 2961.65  12
   3  14 -11-222.627 730.383   9
   3  14 -11-1503.28 2213.74  12
   3  14 -10 1092.40 1002.95   9
   3  14 -10-4474.93 2657.35  12
   3  14  -9 183.746 857.993   9
  -3  14   9 80.2345 810.284  13
   3  14  -9 1604.66 2963.98  12
  -3  14   8 1958.66 1014.42  13
   3  14  -8 2996.56 1310.02   9
   3  14  -8 1901.15 1808.17  12
   3  14  -7 7040.58 2155.95   7
   3  14  -7 3178.94 1414.71   9
   3  14  -7 5781.72 3346.77  12
  -3  14   7 5702.52 1440.88  13
  -3  14   7 4873.33 1670.21  11
   3  14  -6-1630.39 1400.56   7
   3  14  -5 16325.4 2834.98   7
   3  14  -4 63843.1 4981.64   7
   3  14  -3 4426.72 1558.96   7
   3  14  -2 21669.8 2835.57   7
   3  14  -1-1123.18 1350.76   7
   3  14   0 4560.29 1630.92   7
   3  14   1 283.635 528.570   4
   3  14   1-176.063 975.413   7
   3  14   2 3169.26 1053.21   4
   3  14   2 5241.87 1694.92   7
   3  14   3 3541.54 1082.84   4
   3  14   3 3781.95 994.355  13
   3  14   4 2379.47 1065.99   4
   3  14   4 4004.87 1119.79  13
   3  14   5 2427.19 995.167   4
  -3  14  -5 174.479 983.502  10
   3  14   5 1648.00 845.573  13
   3  14   6-511.443 1233.02   6
  -3  14  -6 1380.76 1387.63  10
   3  14   6 2645.35 1151.04   4
   3  14   6 579.403 550.520  13
   3  14   7 729.337 1665.28   6
  -3  14  -7 2513.38 1322.10  10
   3  14   8 4053.59 2112.06   6
  -3  14  -8 1119.48 759.586  10
   3  14   9 374.845 1195.89   6
  -3  14  -9 82.2764 683.104  10
  -3  14 -10 530.264 713.757  10
  -3  14 -11 51.7244 608.764  10
   3  15 -13 3111.81 1862.36  12
   3  15 -12 1030.46 1796.10  12
   3  15 -11-1998.40 1051.44   9
   3  15 -11 2468.13 2167.22  12
   3  15 -10 306.793 926.441   9
   3  15 -10-144.257 1553.67  12
   3  15  -9 12949.1 2476.59   9
   3  15  -9 12561.9 4225.00  12
   3  15  -8 1094.93 1149.10   9
   3  15  -8 94.5592 2279.00  12
   3  15  -8 2981.43 1660.51   7
  -3  15   7 4242.17 1948.41  11
   3  15  -7 4142.46 2588.84  12
   3  15  -7 5799.24 1857.26   7
   3  15  -6 7741.48 3447.90  12
   3  15  -6 7040.66 1894.81   7
   3  15  -5 7632.67 1997.30   7
   3  15  -4 5267.01 1538.28   7
   3  15  -3 5254.64 1704.58   7
   3  15  -2 11767.5 2319.56   7
   3  15  -1 7262.35 1933.31   7
   3  15   0 2317.62 1401.48   7
   3  15   1 38602.4 2975.93   4
   3  15   1 37905.4 3975.74   7
   3  15   2 563.018 882.141   4
   3  15   2 1677.26 1620.94   7
   3  15   3 7225.87 1432.26   4
  -3  15  -4 2584.73 1428.64  10
   3  15   4 1434.95 965.610   4
   3  15   4 886.014 599.524  13
  -3  15  -5 1993.36 1243.77  10
   3  15   5 2585.73 1050.90  13
   3  15   5 529.479 637.335   4
   3  15   5 2301.28 1798.63   8
  -3  15  -6 15336.1 2786.09  10
   3  15   6 8109.88 2613.03   6
   3  15   6 10522.8 1844.45   4
   3  15   6 13825.3 2068.53  13
   3  15   7 1744.41 1818.98   6
  -3  15  -7 3238.97 1366.91  10
  -3  15  -8-26.5306 805.145  10
   3  15   8-1185.66 1266.83   6
   3  15   9 464.451 1466.02   6
  -3  15  -9 565.061 984.928  10
  -3  15 -10 49.9387 630.815  10
  -3  15 -11 1830.10 911.791  10
   3  16 -13 940.551 1190.00  12
   3  16 -12 1534.74 1690.19  12
  -3  16  11 3106.35 1558.51   6
   3  16 -11 3035.10 2368.73  12
   3  16 -10-183.229 954.526   9
   3  16 -10 771.106 2015.99  12
   3  16  -9 2020.12 1174.79   9
   3  16  -9 528.551 1932.48  12
   3  16  -8-318.073 1739.57  12
  -3  16   7 1458.60 968.006  11
   3  16  -7-503.877 1152.45   7
   3  16  -7 24.0643 1763.27  12
  -3  16   6 492.923 957.884  11
   3  16  -6-1059.06 2102.74  12
   3  16  -6 1927.06 1224.35   7
   3  16  -5 4771.59 2611.73  12
   3  16  -5 3663.39 1728.50   7
   3  16  -4 40.1678 1228.05   7
   3  16  -3 1602.38 1476.97   7
   3  16  -2-3002.12 1853.65   7
   3  16  -1 13989.6 2513.48   7
   3  16   0 3202.11 1575.44   7
   3  16   1 31142.5 3750.48   7
   3  16   1 31672.5 2848.56   4
   3  16   2 7722.91 1575.50   4
  -3  16  -3 12142.1 2578.61  10
   3  16   3 13997.8 1965.67   4
   3  16   3 8511.36 2686.36   8
   3  16   4 551.571 697.491   4
  -3  16  -4 744.309 934.442  10
   3  16   4 791.426 2245.92   8
   3  16   5 35.6027 729.437   4
  -3  16  -5 277.490 807.938  10
   3  16   5 1831.90 1747.89   8
  -3  16  -6 1131.90 983.760  10
   3  16   6-1572.68 1583.92   6
   3  16   7 3381.08 2062.86   6
  -3  16  -7 1625.02 1252.00  10
   3  16   8-344.377 1358.86   6
  -3  16  -8 392.969 840.156  10
   3  16   9 2168.60 1369.94   6
  -3  16  -9 3743.20 1500.43  10
  -3  16 -10-257.346 633.767  10
  -3  16 -11 2211.61 822.044  10
   3  17 -13 430.917 1154.20  12
   3  17 -12-1002.95 1815.33  12
  -3  17  11 1116.50 1105.20   6
   3  17 -11-276.271 1456.24  12
   3  17 -10 1952.92 915.616   9
   3  17 -10 815.625 1680.41  12
   3  17  -9-2495.19 2281.41  12
   3  17  -8-3611.93 2545.76  12
   3  17  -7 4449.59 3257.25  12
  -3  17   7 1405.27 1368.15  11
   3  17  -7 3074.49 1616.49   7
   3  17  -6 6718.31 2031.24   7
  -3  17   6 7777.40 2310.01  11
  -3  17   5-973.750 1184.40  11
   3  17  -5 111.919 1121.64   7
   3  17  -4 4983.48 2276.87  12
   3  17  -4 4940.10 1807.83   7
   3  17  -3 8937.31 2176.97   7
   3  17  -2 501.150 1168.05   7
   3  17  -1 1041.07 1215.64   7
   3  17   0 3107.38 1912.49   7
   3  17   1 1590.36 1605.60   7
   3  17   2 17375.8 2251.12   4
  -3  17  -2 18780.1 2884.17  10
   3  17   2 20135.3 3722.82   8
   3  17   3 12568.9 1957.23   4
   3  17   3 10279.4 2725.20   8
  -3  17  -3 15142.7 2839.47  10
  -3  17  -4 8621.45 2253.75  10
   3  17   4 8867.55 1788.96   4
   3  17   4 10343.0 3290.45   8
  -3  17  -5 2208.52 1455.87  10
   3  17   5 2679.42 1078.12   4
   3  17   5 3205.34 1930.80   8
  -3  17  -6 3952.40 1642.97  10
   3  17   6 3908.29 1859.79   6
   3  17   7 753.432 1236.33   6
  -3  17  -7 1338.30 1143.55  10
   3  17   8 5993.60 2201.19   6
  -3  17  -8 6217.52 1784.33  10
   3  17   9 2015.66 1524.82   6
  -3  17  -9 2298.21 1060.20  10
  -3  17 -10 504.377 626.979  10
   3  18 -12 1414.57 1480.68  12
  -3  18  11 1502.56 1218.23   6
   3  18 -11 824.132 1545.87  12
   3  18 -10 1338.52 1500.93  12
   3  18  -9 3150.54 2549.72  12
   3  18  -8 4871.93 3440.65  12
   3  18  -7-6391.06 2965.03  12
  -3  18   7 951.474 1200.02  11
   3  18  -6 4731.71 2756.85  12
   3  18  -6 2557.86 1492.49   7
  -3  18   6-43.8072 1177.66  11
   3  18  -5 6544.77 3454.72  12
  -3  18   5 9078.73 2528.69  11
   3  18  -4 25167.9 5719.76  12
   3  18  -4 25718.5 3585.19   7
  -3  18   4 22148.6 3719.85  11
   3  18  -3 7268.09 2996.94  12
   3  18  -3 7257.75 2045.03   7
   3  18  -2 1658.19 1629.36   8
   3  18  -2 3103.98 1708.66   7
   3  18  -1-150.819 2595.78  12
   3  18  -1 1667.76 1654.04   8
   3  18  -1 5.06098 1209.21   7
   3  18   0 6106.74 1941.38   7
   3  18   0 7293.57 2637.47   8
   3  18   1 584.643 982.906  15
  -3  18  -1-123.542 881.812  10
   3  18   1 931.964 1189.07   7
   3  18   2 2214.25 931.806   4
   3  18   2 1009.36 1258.75   8
  -3  18  -2 1310.01 1142.25  10
  -3  18  -3 1912.28 1160.82  10
   3  18   3 1211.90 919.980   4
   3  18   3 1443.01 1715.47   8
   3  18   4 2892.29 975.989   4
   3  18   4 2887.99 2037.73   8
  -3  18  -4 533.842 879.456  10
   3  18   5 12254.6 3111.57   8
  -3  18  -5 10661.9 2508.15  10
  -3  18  -6 4197.14 1491.82  10
   3  18   6 2576.67 1881.97   6
   3  18   7 3906.09 1735.18   6
  -3  18  -7 2329.62 1329.99  10
  -3  18  -8 1646.47 1267.19  10
   3  18   8 1611.03 1526.95   6
   3  18   9 1956.09 1532.44   6
  -3  18  -9-526.405 782.993  10
  -3  18 -10 254.372 696.968  10
   3  19 -12 776.122 563.301  10
   3  19 -12 903.576 1354.77  12
  -3  19  11 102.195 898.593   6
   3  19 -11 1672.57 1581.48  12
   3  19 -10 2119.97 2148.49  12
   3  19  -9 16687.3 4743.86  12
   3  19  -8 1772.86 2929.10  12
  -3  19   7 7261.11 2361.16  11
   3  19  -7 9929.94 3966.96  12
  -3  19   6-1612.55 1442.71   8
  -3  19   6 488.535 1189.37  11
   3  19  -6 1364.47 2328.91  12
  -3  19   5-162.389 1132.89  11
   3  19  -5 146.671 1736.59  12
   3  19  -5 550.715 967.880   7
   3  19  -4 1122.08 1181.91   7
  -3  19   4 5065.26 2060.95  11
   3  19  -4 6833.36 3104.56  12
   3  19  -3 9351.39 3990.01  12
   3  19  -3 8226.37 2003.79   7
   3  19  -2-518.692 1734.53   8
   3  19  -2-324.946 1929.40  12
   3  19  -2-525.548 1086.27   7
   3  19  -1 2214.48 2723.81  12
   3  19  -1 2383.40 1742.54   7
   3  19  -1 1216.58 1419.75   8
   3  19   0-3281.39 1937.30   8
   3  19   0 1908.80 1688.57  12
   3  19   0 2351.36 1775.44   7
  -3  19  -1 8870.08 2251.06  10
   3  19   1 8994.86 3004.89   8
   3  19   1 12143.3 2725.19   7
  -3  19  -2 2583.50 1314.23  10
   3  19   2 356.170 1626.27   8
  -3  19  -3 290.431 832.616  10
   3  19   3 2113.23 991.568   4
   3  19   3 871.191 1273.82   8
  -3  19  -4 432.810 1232.97  10
   3  19   4 329.847 1412.15   8
  -3  19  -5 166.774 910.864  10
   3  19   5-1246.41 1454.22   8
   3  19   5-687.831 1281.11   6
  -3  19  -6 3492.75 1739.76  10
   3  19   6 4941.81 2090.64   6
   3  19   7 880.408 1127.25   6
  -3  19  -7 1421.73 828.878  10
   3  19   8 2076.85 1552.47   6
  -3  19  -8 1009.27 985.201  10
   3  19   9 2911.16 1555.48   6
  -3  19  -9-279.724 644.372  10
  -3  19 -10 1577.82 773.610  10
  -3  20  11 450.690 758.885   6
   3  20 -11-229.941 1282.58  12
  -3  20  10 890.324 895.105   6
   3  20 -10 4021.55 2550.27  12
   3  20  -9 54.8454 1596.48  12
   3  20  -8 12802.0 4011.08  12
  -3  20   7 1807.48 1501.93  11
   3  20  -7-1036.23 1787.38  12
  -3  20   6 5127.70 2124.29   8
   3  20  -6 5628.86 2911.98  12
  -3  20   6 6191.17 2250.31  11
   3  20  -5 10050.6 3788.90  12
  -3  20   5 3728.47 1652.65  11
   3  20  -4 2675.30 2383.01  12
   3  20  -4 1114.63 1034.24   7
  -3  20   4 1133.63 1062.56  11
   3  20  -3 517.279 1483.27   8
   3  20  -3 2540.44 2940.36  12
   3  20  -3 1748.82 1155.75   7
   3  20  -2 2452.96 1576.90   8
   3  20  -2 5919.53 2033.84   7
   3  20  -1 19103.2 3969.29   8
   3  20  -1 14739.3 2891.83   7
   3  20   0-1176.58 1532.54   8
   3  20   0 970.998 1064.53   7
   3  20   1 24083.3 4348.94   8
  -3  20  -1 23496.5 3306.42  10
  -3  20  -2 1147.16 864.728  10
   3  20   2-1241.45 1515.58   8
  -3  20  -3 8216.40 2125.63  10
   3  20   3 5371.92 2155.48   8
  -3  20  -4 95.8674 827.755  10
   3  20   4-19.1457 1394.63   8
  -3  20  -5-1677.40 1075.21  10
   3  20   5 1980.14 1579.48   6
   3  20   5-644.408 1543.32   8
  -3  20  -6 266.233 802.186  10
   3  20   6 2433.15 1100.50   6
  -3  20  -7 3032.84 1276.21  10
   3  20   7 2106.04 1127.50   6
  -3  20  -8 812.730 830.858  10
   3  20   8-575.642 953.303   6
   3  20   9 4137.63 1382.12   6
  -3  20  -9 1885.87 1021.67  10
   3  21 -11 1519.62 1473.06  12
  -3  21  10-709.177 995.429   6
   3  21 -10-4.01302 1217.81  12
   3  21  -9-4838.24 2452.32  12
   3  21  -8 1620.30 1955.94  12
   3  21  -7 1799.43 2263.62  12
  -3  21   6 703.895 1477.20   8
   3  21  -6 932.610 1623.23  12
  -3  21   6-902.763 878.706  11
  -3  21   5 215.797 1122.60   8
  -3  21   5 393.114 1048.03  11
   3  21  -4 585.517 1730.53  12
  -3  21   4 3264.18 2166.47  11
  -3  21   3 4320.94 2099.15  11
   3  21  -3 2607.17 1686.95   8
   3  21  -2-377.966 1266.27   8
   3  21  -2 2549.11 2448.53  12
   3  21  -1 1748.35 2164.30  12
   3  21  -1-356.057 1787.13   8
   3  21   0-571.600 1788.11   8
   3  21   1-1591.35 2100.48   8
  -3  21  -2 8002.98 1986.91  10
   3  21   2 5784.26 2709.79   8
  -3  21  -3 6175.01 1828.99  10
   3  21   3 6681.70 2732.46   8
  -3  21  -4 6421.10 1931.99  10
   3  21   4 7314.91 2873.45   8
   3  21   5-139.641 1305.51   6
   3  21   5 273.624 1270.61   8
  -3  21  -5-1801.00 1093.83  10
  -3  21  -6 11038.4 2380.95  10
   3  21   6 11140.7 2548.71   6
   3  21   7 744.026 1044.56   6
  -3  21  -7 3002.94 1256.28  10
   3  21   8 3418.60 1408.65   6
  -3  21  -8 4182.83 1315.45  10
  -3  21  -9 265.088 640.681  10
  -3  22  10-437.376 1012.81   6
   3  22 -10-415.975 1467.61  12
   3  22  -9 3449.07 2253.50  12
   3  22  -8-2730.11 2020.54  12
   3  22  -7 383.635 1356.49  12
   3  22  -6-491.890 2621.80  12
  -3  22   6 1914.80 1534.98   8
  -3  22   6-383.566 892.344  11
  -3  22   5 2151.47 1492.60  11
   3  22  -5 3226.95 3075.34  12
  -3  22   5 2433.61 1481.84   8
  -3  22   4 28298.0 4784.84   8
   3  22  -4 27961.3 6251.33  12
  -3  22   4 18750.6 3971.39  11
  -3  22   3 66.6495 1001.28  11
   3  22  -3 188.508 1088.96   8
   3  22  -3-2316.82 2318.46  12
   3  22  -2 2309.29 1863.84   8
   3  22  -2 3434.07 2353.19  12
  -3  22   2 3487.79 1701.62  11
   3  22  -1 5055.92 2948.04  12
   3  22  -1-863.841 1755.64   8
   3  22   0 6269.61 2021.76   8
   3  22   1-1778.59 1609.09   8
  -3  22  -2 888.380 952.350  10
   3  22   2-194.523 1790.67   8
  -3  22  -3-888.921 1089.22  10
   3  22   3-671.485 1465.32   8
   3  22   4 4813.02 2195.66   8
  -3  22  -4 5902.02 1790.35  10
  -3  22  -5 2111.99 1222.16  10
   3  22   5 2876.61 1510.95   6
   3  22   5 5980.24 2244.81   8
  -3  22  -6 157.406 828.326  10
   3  22   6-1664.93 1132.25   6
   3  22   6-97.7873 1035.14   8
   3  22   7 1280.42 1215.02   6
  -3  22  -7 629.092 714.012  10
   3  22   8 1925.72 1027.17   6
  -3  22  -8 1225.64 545.499  10
   3  23 -10 1975.13 1505.74  12
  -3  23  10 1989.04 1017.56   6
   3  23  -9 140.957 1393.58  12
   3  23  -8 1656.51 1865.98  12
   3  23  -7 386.228 1509.07  12
   3  23  -6-49.2444 1455.76  12
  -3  23   6-39.3636 1033.19   8
  -3  23   6 796.381 1079.27  11
  -3  23   5 1023.68 1270.64  11
   3  23  -5 3689.21 2593.90  12
  -3  23   5 3497.33 1816.49   8
  -3  23   4 3720.82 1837.56   8
   3  23  -4 6961.71 3297.64  12
  -3  23   4 4385.46 1956.39  11
   3  23  -3 1438.00 2332.57  12
   3  23  -3-722.024 1083.40   8
  -3  23   3 776.310 1535.75   8
  -3  23   3 441.657 986.524  11
   3  23  -2-805.191 1634.13   8
   3  23  -2 1041.69 2054.88  12
  -3  23   2-810.771 1334.27  11
   3  23  -1-3007.01 2100.02   8
   3  23   0 3155.05 1922.69   8
   3  23   1-692.482 1316.65   8
   3  23   2 2388.99 1709.44   8
  -3  23  -2-142.665 1181.27   8
  -3  23  -3 1460.45 1129.95  10
   3  23   3-501.632 1234.15   8
  -3  23  -4 600.008 910.561  10
   3  23   4-219.897 1250.34   8
  -3  23  -5 1833.48 1121.55  10
   3  23   5 2786.22 1607.98   8
   3  23   5 1922.36 1178.94   6
  -3  23  -6 1838.25 962.500  10
   3  23   6 2284.55 1289.16   6
   3  23   7-723.799 868.631   6
  -3  23  -7 38.3111 681.286  10
  -3  23  -8 1839.62 773.052  10
  -3  24   9-673.447 888.367   6
   3  24  -9-740.154 1165.94  12
   3  24  -8 1610.09 1744.47  12
   3  24  -7 120.088 1470.56  12
  -3  24   6 3411.95 1677.16   8
   3  24  -6 7291.34 3240.07  12
  -3  24   5 2033.11 1139.55   8
   3  24  -5-537.256 1734.22  12
  -3  24   5 4071.24 1720.58  11
  -3  24   4 2481.53 1955.49   8
   3  24  -4-412.795 1646.60  12
  -3  24   4 935.001 1054.25  11
  -3  24   3-678.172 960.503  11
  -3  24   3-968.985 1373.10   8
   3  24  -3 2838.35 3094.73  12
   3  24  -3-1299.46 1203.79   8
   3  24  -2 478.515 1112.23   8
  -3  24   2-347.616 1464.69   8
  -3  24   2 1277.39 964.159  11
   3  24  -1 703.696 1442.05   8
  -3  24   1 2173.62 1607.67   8
  -3  24   1 1706.88 1370.72  11
   3  24   0 5570.84 2353.25   8
  -3  24   0 6601.39 2480.66   8
   3  24   1 4922.56 2273.09   8
  -3  24  -1 6619.94 2321.00   8
   3  24   2 4198.75 1974.64   8
  -3  24  -2 1010.03 1225.36   8
   3  24   3 8591.53 2663.86   8
   3  24   4 2231.87 1619.65   8
  -3  24  -4 1822.73 1054.78  10
  -3  24  -5-2988.27 1085.82  10
   3  24   5 2180.87 1745.27   8
  -3  24  -6 559.856 779.898  10
   3  24   6 1350.41 1022.49   6
  -3  24  -7-55.3941 490.861  10
   3  25  -8 26.3554 1054.40  12
   3  25  -7 1623.17 1600.02  12
  -3  25   6 188.346 1017.11   8
   3  25  -6-755.654 1716.63  12
  -3  25   5 1811.07 1683.38   8
   3  25  -5-141.437 1925.57  12
  -3  25   5-283.778 821.136  11
   3  25  -4 3151.32 2479.61  12
  -3  25   4 1315.34 1344.13   8
  -3  25   4 1287.10 1206.86  11
  -3  25   3 1565.32 1652.33   8
   3  25  -3-396.974 1610.16  12
  -3  25   3 961.490 976.173  11
   3  25  -2-3222.29 1643.18   8
  -3  25   2-3543.12 1809.10   8
  -3  25   2-1144.70 973.180  11
   3  25  -1 171.462 1312.85   8
  -3  25   1 1032.62 1178.84   8
  -3  25   1-1010.16 1194.49  11
   3  25   0 957.709 1184.32   8
  -3  25   0 4789.96 2068.11   8
  -3  25   0 2919.06 1300.82  11
   3  25   1-495.164 1215.95   8
  -3  25  -1-38.6809 1366.78   8
  -3  25  -1 450.234 811.500  11
   3  25   2 2346.90 1408.84   8
  -3  25  -2 4251.67 1874.31   8
   3  25   3 4379.16 1905.98   8
   3  25   4 2368.34 1470.45   8
  -3  25  -5 1539.78 827.116  10
   3  25   5 507.136 1073.48   8
  -3  25  -6 4263.23 1134.56  10
   3  26  -7 595.530 1306.47  12
  -3  26   6 2122.13 1441.96   8
   3  26  -6 2171.63 2119.49  12
  -3  26   5 4016.08 1845.82   8
   3  26  -5 2429.51 1883.75  12
  -3  26   4 5605.10 2122.18   8
  -3  26   4 3966.57 1592.51  11
  -3  26   3 2540.76 1424.56   8
  -3  26   3 633.543 1169.92  11
   3  26  -2 3655.70 1766.36   8
  -3  26   2 739.062 1145.07   8
  -3  26   2 4723.35 1869.32  11
  -3  26   1 31.2186 1183.45  11
   3  26  -1-429.666 997.095   8
  -3  26   1-20.4105 1217.14   8
   3  26   0 297.199 1006.23   8
  -3  26   0 2377.96 1493.51   8
  -3  26   0 750.042 1057.64  11
   3  26   1-1652.95 1418.62   8
  -3  26  -1 1656.91 1271.58   8
  -3  26  -1 483.007 922.642  11
  -3  26  -2 547.460 1162.16  11
   3  26   2 2488.49 1634.34   8
   3  26   3 316.481 1073.23   8
   3  26   4 4226.65 1848.50   8
   3  26   5 3824.59 1548.76   8
  -3  27   6-678.728 872.738   8
  -3  27   5 1187.18 1143.50   8
  -3  27   4 1904.00 1155.77   8
  -3  27   4-315.079 872.835  11
  -3  27   3 1852.76 1475.32   8
  -3  27   3 2653.81 1388.29  11
  -3  27   2 496.149 912.724   8
   3  27  -2 1078.70 1189.27   8
  -3  27   2-247.924 763.388  11
   3  27  -1 1163.70 1344.53   8
  -3  27   1 690.845 1215.44   8
  -3  27   1-460.948 976.205  11
   3  27   0 1143.45 1256.74   8
  -3  27   0 232.607 1001.66   8
  -3  27   0-434.204 838.648  11
  -3  27  -1 825.099 886.532   8
  -3  27  -1 1895.72 1174.40  11
   3  27   2 2441.32 1497.47   8
   3  27   3 409.417 1065.59   8
   3  27   4 1233.12 1014.97   8
  -3  28   5-1536.82 1116.71   8
  -3  28   4-344.081 1034.65   8
  -3  28   3-3019.19 1497.91   8
  -3  28   3-1372.64 891.242  11
  -3  28   2 506.646 1071.72   8
   3  28  -2 562.001 1010.39   8
  -3  28   2 1432.28 955.484  11
   3  28  -1 3057.50 1268.53   8
  -3  28   1 2249.60 1244.03   8
  -3  28   1 1645.25 985.149  11
  -3  28   0 1886.93 1120.42   8
   3  28   0 484.699 943.518   8
  -3  28   0-638.690 686.388  11
   3  28   1-580.683 1001.46   8
  -3  28  -1 285.387 787.404   8
   3  28   2 3025.45 1408.93   8
   3  28   3 1078.88 962.392   8
  -3  29   3 336.540 734.020   8
  -3  29   2 572.361 866.827   8
  -3  29   1 84.6412 757.892   8
   3  29   0 1058.96 921.988   8
   3  29   1-10.6465 879.160   8
  -4   0  15 678.074 622.252  14
  -4   0  14 8252.97 1592.79  14
  -4   0  13 2.38203 720.164  14
   4   0 -12 22067.8 2809.57   5
  -4   0  12 17852.8 2478.45  14
   4   0 -11 752.325 925.544   9
   4   0 -11 1890.26 969.952   3
   4   0 -11-399.916 865.091   5
   4   0 -10 2100.78 1126.15   5
   4   0 -10 1252.46 712.263   3
   4   0  -9 652.989 735.783   3
   4   0  -8 929.265 704.497   3
   4   0  -7 840.220 733.398   3
   4   0  -6 34345.8 2496.64   3
   4   0  -5 396.581 573.051   3
   4   0  -4 12113.0 1777.02  16
   4   0  -4 16305.9 1602.88   3
   4   0  -3 1502.23 671.683   3
   4   0  -3-1157.24 862.457  16
   4   0  -2 3236.58 731.625   3
   4   0  -2 2848.01 644.532  16
   4   0  -1 260.347 396.737  13
  -4   0   1 253.094 671.731   1
  -4   0   0 1775.08 564.977   1
   4   0   0 2818.13 730.887  13
   4   0   1 889.084 483.747  13
   4   0   2 51485.7 1982.01   4
   4   0   2 50527.4 2569.35  13
   4   0   3-239.121 421.062  13
   4   0   4 5803.29 1058.45  13
   4   0   5 143.758 508.573  13
   4   0   6 55405.6 3442.31  13
   4   0   7 376.287 719.428  13
   4   0   8-893.433 992.470  14
   4   0   9 36.9305 653.242  14
   4   0  10 347.027 603.527  14
   4   0  11 64.5743 516.690  14
   4   0  12 5201.73 1126.65  14
  -4  -1  15 109.724 517.618  14
  -4   1  15-13.6272 471.092  14
  -4  -1  14 2346.55 956.436  14
  -4   1  14 2205.77 858.551  14
  -4   1  13 1171.03 794.534  14
  -4  -1  13-864.757 761.982  14
   4  -1 -12 1228.54 1047.06   5
   4   1 -12 2783.90 1244.94   5
  -4   1  12 1828.22 1062.56  14
  -4  -1  12-1581.00 864.304  14
   4   1 -11 2161.46 884.634   5
   4  -1 -11 3925.92 1507.71   9
   4   1 -11 2355.11 1019.51   9
   4  -1 -11 2482.90 1145.22   5
   4   1 -11 2927.56 1076.89   3
   4  -1 -11 2117.75 883.032   3
   4  -1 -10 2004.81 1155.72   5
   4   1 -10 2027.56 1197.00   5
   4   1 -10-767.947 911.611   3
   4  -1 -10 907.102 577.995   3
   4   1  -9 705.794 1010.74   3
   4  -1  -9 2014.70 1177.57   3
   4   1  -8-137.393 756.554   3
   4  -1  -8 397.949 671.452   3
   4  -1  -7 15457.2 1793.73   3
   4   1  -7 14580.7 1784.65   3
   4  -1  -6 15727.0 1711.34   3
   4   1  -6 13250.1 1630.89   3
   4   1  -5 62416.3 3180.69   3
   4  -1  -5 68040.9 3271.30   3
   4   1  -4 209093. 7671.46  16
   4   1  -4 194171. 5262.72   3
   4  -1  -4 191661. 7743.39  16
   4  -1  -4 185567. 5105.42   3
   4   1  -3 144153. 5279.80  16
   4   1  -3 135945. 4184.47   3
   4  -1  -3 145050. 5745.74  16
   4  -1  -3 135376. 4160.56   3
   4  -1  -2 8094.59 1164.53  16
   4   1  -2 7191.69 981.652   3
   4  -1  -2 8037.24 1044.35   3
  -4   1   2 7733.02 1557.48   1
  -4   1   1 31641.4 2676.90   1
   4   1  -1 30714.6 1938.95  13
   4  -1  -1 28742.5 1924.62  13
  -4  -1   1 32178.0 2546.34   1
   4   1   0 2679.92 626.533  13
   4  -1   0 2518.08 683.165  13
  -4  -1   0 2568.05 714.562   1
  -4   1   0 2652.53 795.895   1
   4   1   1 9918.71 977.801   4
   4  -1   1 10855.3 1244.90  13
   4   1   1 11691.2 1286.97  13
   4   1   2 325.948 250.358   4
   4  -1   2 568.725 529.807  13
   4   1   2-17.9784 478.563  13
   4   1   3 2625.05 545.886   4
   4  -1   3 2784.91 759.090  13
   4   1   3 2410.87 717.733  13
   4  -1   4 2985.79 789.554  13
   4   1   4 4383.38 986.643  13
   4  -1   5 1892.96 705.481  13
   4   1   5 1575.32 762.956  13
   4  -1   6 12779.7 1721.61  13
   4   1   6 11990.2 1678.97  13
   4   1   7 2602.01 812.494  13
   4   1   8 1581.45 864.739  13
   4  -1   8 442.724 628.199  14
   4   1   8 1283.79 651.688  14
   4   1   9 2994.54 1129.42  14
   4  -1   9 5169.36 1384.92  14
   4  -1  10 1701.77 903.229  14
   4   1  10-138.764 582.485  14
   4  -1  11 4824.11 1229.58  14
   4   1  11 4774.99 1164.82  14
   4   1  12 676.455 590.861  14
   4  -1  12-571.350 485.278  14
   4  -1  13 117.049 313.331  14
  -4   2  15 818.242 621.826  14
  -4  -2  15-726.230 593.080  14
  -4  -2  14-627.570 723.013  14
  -4   2  14 237.052 549.856  14
  -4   2  13 2814.40 1044.40  14
  -4  -2  13 4545.07 1248.39  14
   4   2 -12 6372.31 1840.05   9
   4   2 -12 4584.34 1389.10   5
  -4  -2  12 3044.92 1234.80  14
  -4   2  12 3865.68 1215.79  14
   4  -2 -12 5548.80 1529.97   5
   4   2 -11 25639.6 3319.64   9
   4  -2 -11 24455.8 2943.45   5
   4   2 -11 21041.7 2549.57   3
   4  -2 -11 23039.2 2471.55   3
   4   2 -11 28023.5 3122.82   5
   4  -2 -10 162.193 899.025   5
   4  -2 -10 525.465 699.338   3
   4   2 -10-920.865 961.202   3
   4  -2  -9 64204.6 3909.11   3
   4   2  -9 64749.6 4135.26   3
   4   2  -8 344.494 628.926   3
   4  -2  -8-276.519 525.708   3
   4   2  -7 51662.5 3261.47   3
   4  -2  -7 52431.9 3141.43   3
   4   2  -6 4652.52 1068.33   3
   4  -2  -6 3882.39 978.341   3
   4  -2  -5 523.768 635.451   3
   4   2  -5 13.1391 548.019   3
   4  -2  -4 58504.3 4434.70  16
   4   2  -4 55969.8 2892.94   3
   4  -2  -4 56856.6 2876.82   3
   4  -2  -3 26445.6 2631.69  16
   4  -2  -3 29859.1 2000.44   3
   4   2  -3 28200.8 1984.27   3
  -4   2   2 11092.6 1884.42   1
   4   2  -2 8700.44 1123.82   3
   4  -2  -2 9784.81 1357.45  16
   4  -2  -2 11140.0 1218.60   3
   4   2  -2 10547.0 1258.72  13
  -4   2   1 171.174 528.347   1
   4   2  -1 1009.22 552.826   3
   4   2  -1 325.880 451.735  13
   4   2   0 1023.40 570.183  13
   4  -2   0 1108.54 572.888  13
  -4  -2   0 306.192 398.750   1
   4  -2   1 382989. 6699.00  13
   4   2   1 369038. 5835.92   4
   4   2   1 391513. 6888.36  13
   4   2   2 2140.94 485.837   4
   4  -2   2 3002.35 682.227  13
   4   2   2 3172.31 740.999  13
   4   2   3 211389. 5631.13  13
   4  -2   3 206371. 5320.19  13
   4   2   3 194246. 4592.22   4
   4   2   4 7727.09 1263.29  13
   4   2   4 6328.83 956.646   4
   4  -2   4 7577.26 1132.72  13
   4  -2   5 5230.53 1055.21  13
   4   2   5 3999.64 975.193  13
   4   2   6 1760.89 754.678  13
   4   2   7 14435.9 2006.89  13
   4  -2   7 12953.3 1953.15  14
   4   2   8 2181.93 1030.50  14
   4  -2   8 3845.00 1245.21  14
   4   2   8 2833.18 892.135  13
   4   2   9-31.0805 691.881  14
   4  -2   9 1340.12 885.794  14
   4   2  10 950.251 622.244  14
   4  -2  10 1555.32 755.833  14
   4   2  11 277.486 559.444  14
   4  -2  11-587.668 632.984  14
   4  -2  12 134.849 505.710  14
   4   2  12 588.544 556.701  14
   4  -2  13-557.497 437.323  14
  -4   3  15-355.527 538.701  14
  -4  -3  15 702.848 548.624  14
  -4   3  14 2281.78 971.032  14
  -4  -3  14 3991.79 1140.62  14
  -4   3  13 1395.47 710.977  14
  -4  -3  13 89.8619 553.385  14
   4   3 -12 1791.27 972.890   9
   4  -3 -12 1954.11 1087.23   5
   4   3 -12 3437.49 1320.95   5
  -4  -3  12 2147.30 1083.35  14
  -4   3  12 2017.15 832.001  14
   4   3 -11-328.989 833.095   9
   4  -3 -11 840.195 882.414   5
   4   3 -11 188.670 754.130   5
   4   3 -11-1018.16 900.641   3
   4   3 -10 1494.78 1025.42   9
   4  -3 -10 1414.80 1011.37   5
   4   3 -10 3454.64 1278.01   5
   4  -3 -10 1815.43 710.763   3
   4   3 -10 898.462 744.970   3
   4  -3  -9 19062.0 2121.32   3
   4   3  -9 19642.0 2366.38   3
   4   3  -8 4155.39 1228.32   3
   4  -3  -8 2587.19 885.545   3
   4  -3  -7 17317.6 1868.68   3
   4   3  -7 19856.0 2128.08   3
   4   3  -6 38983.7 2731.05   3
   4  -3  -6 38108.4 2571.53   3
   4  -3  -5 10113.2 1324.20   3
   4   3  -5 9696.10 1323.69   3
  -4  -3   4 243539. 8874.99  16
   4  -3  -4 250788. 5981.88   3
   4   3  -4 243794. 5999.01   3
   4  -3  -4 246492. 9447.49  16
   4  -3  -3 61525.6 2880.46   3
   4  -3  -3 65665.7 4363.94  16
  -4  -3   3 63413.2 3858.18  16
   4   3  -3 64623.9 2963.96   3
  -4   3   3 63369.0 4574.43   1
   4   3  -2 1044.64 560.635   3
   4   3  -2 2008.20 650.298  13
  -4   3   2 1884.96 873.764   1
   4   3  -1 942.691 546.169  13
   4   3  -1 413.036 373.494   3
  -4   3   1 1010.91 550.768   1
   4   3  -1 1030.97 547.738   7
   4   3   0 3124.67 673.088   7
   4   3   0 3337.66 712.733  13
   4  -3   0 4530.17 796.514  13
  -4  -3   0 3450.31 717.782   1
   4   3   1 819.674 436.755   4
  -4   3  -1 1493.79 729.390   2
   4  -3   1 326.181 423.148  13
   4   3   1 302.287 559.986  13
   4   3   2 3862.40 731.678   4
   4   3   2 5159.83 967.272  13
   4  -3   2 2768.03 640.280  13
  -4   3  -2 2447.40 756.572   2
   4   3   3 8578.63 1088.95   4
   4   3   3 7394.31 1211.74  13
   4  -3   3 7963.65 1120.45  13
   4   3   4 12775.3 1318.71   4
   4   3   4 12919.8 1523.26  13
   4  -3   4 13706.1 1463.67  13
   4   3   5 6607.78 1324.44  13
   4   3   6 3743.51 1154.56  13
   4   3   7 14126.3 1990.38  13
   4  -3   7 13912.1 2073.82  14
   4   3   8 4178.59 1202.67  14
   4  -3   8 2751.30 1122.18  14
   4   3   8 1850.98 719.747  13
   4  -3   9 2808.54 1174.58  14
   4   3   9 5750.65 1341.99  14
   4   3  10 1538.65 719.394  14
   4  -3  10 1597.21 943.524  14
   4   3  11 1838.40 785.657  14
   4  -3  11 1700.15 859.720  14
   4   3  12 720.109 552.467  14
   4  -3  12 193.070 461.614  14
   4  -3  13 1470.68 541.965  14
  -4  -4  15 723.364 449.121  14
  -4   4  14 5629.24 1237.15  14
  -4  -4  14 5776.37 1392.58  14
  -4   4  13-261.352 536.320  14
  -4  -4  13 287.745 524.467  14
   4   4 -12 17928.1 2840.70   9
  -4  -4  12 13004.1 2092.31  14
  -4   4  12 13598.4 2030.73  14
   4  -4 -11 851.009 703.833   5
   4   4 -11 3465.70 1344.61   5
   4   4 -11 2094.61 1197.68   9
   4   4 -11 1553.94 894.846   3
   4   4 -10 833.163 787.867   3
   4   4 -10-244.746 926.416   9
   4  -4 -10 2395.36 1160.97   5
   4   4 -10 1568.03 944.111   5
   4  -4  -9 1892.49 890.188   3
   4   4  -9-547.655 1016.14   3
   4  -4  -8 249.032 513.262   3
   4   4  -8 41.2311 823.231   3
   4   4  -7 18127.9 2063.21   3
   4  -4  -7 17039.3 1799.43   3
   4  -4  -6 45001.9 2754.18   3
   4   4  -6 43915.3 2950.93   3
   4   4  -5 20985.5 1950.77   3
   4  -4  -5 19565.8 1787.28   3
  -4  -4   4 4192.15 1331.63  16
   4   4  -4 7425.39 1183.26   3
   4  -4  -4 7847.77 1191.76   3
   4  -4  -3 13419.6 1414.61   3
  -4  -4   3 10130.8 1634.12  16
   4   4  -3 11642.1 1333.87   3
   4   4  -2 3667.42 739.210   3
   4   4  -2 3771.36 834.591  13
  -4  -4   2 2320.50 782.042  16
  -4   4   2 3297.77 1160.67   1
   4   4  -2 3012.31 799.815   7
  -4   4   1 4217.02 1173.05   1
   4   4  -1 5154.89 907.681  13
   4   4  -1 4163.98 860.198   3
   4   4  -1 3370.07 750.331   7
   4   4   0 825.355 421.622  13
   4   4   0 447.559 479.855   7
   4   4   1 17308.8 1407.06   4
   4  -4   1 15717.2 1436.61  13
  -4   4  -1 14296.9 1785.51   2
   4   4   1 18738.7 1645.97  13
   4   4   1 17383.7 1618.21   7
  -4   4  -2 87635.2 4510.75   2
   4   4   2 93640.3 3304.39   4
   4  -4   2 93965.8 3443.98  13
   4  -4   3 2948.18 775.994  13
   4   4   3 3311.13 835.060  13
   4   4   4 56935.5 3271.78  13
   4   4   4 50541.1 2761.07   4
   4   4   5 2690.31 741.961   4
   4   4   5 3958.83 979.042  13
   4   4   6 41943.2 3212.90  13
   4   4   7-719.677 801.841  13
   4  -4   7 591.483 692.957  14
   4   4   8 1351.67 892.436  14
   4   4   8 2060.75 928.260  13
   4  -4   8 1471.83 934.447  14
   4   4   9 1372.75 846.750  14
   4  -4   9 1080.98 772.893  14
   4  -4  10 1366.99 875.234  14
   4   4  10 588.122 602.446  14
   4   4  11 485.865 573.656  14
   4  -4  11-776.360 683.758  14
   4  -4  12 4715.54 1061.05  14
  -4  -5  15 533.231 503.251  14
  -4  -5  14 5349.83 1286.40  14
  -4  -5  13 4.78633 631.269  14
   4   5 -12 2211.19 1301.82   9
  -4  -5  12 1418.88 1029.67  14
   4   5 -11 2389.90 1166.89   9
   4  -5 -11 2399.67 1160.03   5
   4   5 -11 3750.45 1311.55   5
   4   5 -11 5186.11 1289.89   3
   4   5 -10 3279.51 1178.06   9
   4  -5 -10 1955.95 1015.63   5
   4   5 -10 5718.36 1508.47   5
   4   5 -10 4158.28 1386.15   3
   4   5  -9 1063.43 955.767   3
   4   5  -8 6610.19 1440.80   3
   4  -5  -8 8416.50 1370.61   3
   4  -5  -7 1967.47 756.631   3
   4   5  -7 2230.18 878.546   3
   4   5  -6 37470.7 2722.04   3
   4  -5  -6 35716.1 2469.54   3
   4  -5  -5 44769.6 2608.93   3
   4   5  -5 42717.1 2719.34   3
  -4  -5   4 200645. 8392.55  16
   4  -5  -4 209306. 5512.65   3
   4   5  -4 219708. 5733.22   3
   4  -5  -3 1688.07 624.047   3
  -4  -5   3 2633.16 1049.16  16
   4   5  -3 2058.97 688.673   3
  -4  -5   2-723.786 744.818  16
   4   5  -2 639.811 510.203  13
   4   5  -2 314.655 469.709   3
   4   5  -2 1472.84 638.898   7
   4   5  -1 954.630 451.263   3
  -4   5   1 1019.52 799.293   1
   4   5  -1 1167.33 548.881  13
   4   5  -1 1214.27 648.168   7
   4   5   0 13425.8 1294.57   4
   4   5   0 14863.3 1410.80  13
   4   5   0 12507.6 1186.79   3
   4   5   0 12312.8 1413.82   7
   4   5   1 27853.9 1865.51   4
   4  -5   1 27711.9 1869.81  13
   4   5   1 29340.9 2046.53  13
   4   5   1 28679.7 2178.14   7
   4   5   2 18491.4 1744.87  13
   4   5   2 15848.6 1450.26   4
   4  -5   2 17423.5 1509.38  13
   4   5   3 4356.01 886.336   4
   4   5   3 4062.62 888.612  13
   4   5   4 8694.52 1232.30   4
   4   5   4 8524.16 1398.34  13
   4   5   5 1654.93 656.097   4
   4   5   5 8566.27 1236.28  13
   4   5   6 24571.3 2244.19   4
   4   5   6 27608.1 2693.94  13
   4   5   7 7626.87 1478.29  13
   4  -5   7 7597.46 1524.68  14
   4   5   8 3687.05 1061.92  13
   4  -5   8 1035.69 923.280  14
   4  -5   9 5465.79 1368.14  14
   4  -5  10 518.731 664.302  14
   4  -5  11 4648.12 1149.90  14
   4  -5  12 556.051 551.965  14
  -4  -6  15 763.137 489.644  14
  -4  -6  14 1466.25 803.623  14
  -4  -6  13 1051.82 567.555  14
   4   6 -12 1989.74 1306.16   9
  -4  -6  12 576.355 696.442  14
   4   6 -11 4077.70 1475.98   9
   4  -6 -11 3589.91 1361.11   5
   4   6 -11 4537.13 1350.10   5
   4   6 -11 3354.14 1223.92   3
   4   6 -10 8847.46 2007.73   9
   4  -6 -10 11992.1 2031.79   5
   4   6 -10 10375.3 1821.08   5
   4   6 -10 7727.27 1653.41   3
   4   6  -9 61117.0 4160.60   3
   4   6  -8 3699.29 1203.98   3
   4   6  -7 62031.6 3736.05   3
   4  -6  -7 56041.9 3166.45   3
   4   6  -6 3171.98 989.580   3
   4  -6  -6 3097.53 819.160   3
   4   6  -5-209.521 663.552   3
   4  -6  -5 1211.29 576.343   3
   4  -6  -4 6452.48 1026.41   3
   4   6  -4 8031.70 1222.33   3
  -4  -6   4 5574.91 1636.55  16
  -4  -6   3 39534.4 3336.84  16
   4   6  -3 42510.8 2449.48   3
   4  -6  -3 43234.5 2487.30   3
   4   6  -2 26018.4 1910.25  13
   4   6  -2 25434.9 1883.74   3
   4   6  -2 23626.4 2069.86   7
   4   6  -1 82044.1 3102.29   3
   4   6  -1 80750.2 3283.16  13
   4   6  -1 83752.0 3697.00   7
   4   6   0 19681.0 1591.47   4
   4   6   0 18684.6 1615.41  13
   4   6   0 18310.4 1448.80   3
   4   6   0 18023.9 1804.63   7
   4   6   1 182513. 5084.95  13
   4   6   1 175166. 4662.54   4
   4   6   1 170212. 5586.62   7
   4   6   2 441.799 556.221   4
   4   6   2 486.809 545.191  13
   4   6   3 58987.5 2999.42   4
   4   6   3 60930.7 3273.58  13
   4   6   4 859.899 560.773   4
   4   6   4 418.810 625.844  13
   4   6   5-381.581 641.118   4
   4   6   5 393.754 631.515  13
   4   6   6 799.970 626.374   4
   4   6   6 1225.46 920.239  13
   4   6   7 2390.25 1450.83   6
   4  -6   7 3369.96 1164.30  14
   4   6   7 2200.20 797.922  13
   4  -6   8 2138.52 1036.39  14
   4   6   8 2213.89 663.074  13
   4  -6   9-109.968 555.305  14
   4  -6  10 1774.24 1024.96  14
   4  -6  11 430.868 497.570  14
   4  -6  12 90.9973 400.786  14
  -4  -7  15 488.344 521.103  14
  -4  -7  14 838.686 767.275  14
  -4  -7  13 3014.32 1027.13  14
   4   7 -12-969.655 1197.41   9
  -4  -7  12 183.633 580.433  14
   4   7 -11 5379.00 1663.94   9
   4  -7 -11 3993.36 1393.71   5
   4   7 -11 3230.04 1236.28   5
   4   7 -10-477.093 871.827   9
   4  -7 -10 48.4791 850.933   5
   4   7 -10-22.5449 660.121   5
   4   7 -10 356.185 778.707   3
   4   7  -9 1101.93 857.127   3
   4   7  -8 8076.86 1600.62   3
   4   7  -7 23567.1 2494.48   3
   4   7  -6 1360.67 769.782   3
   4  -7  -6 2437.44 831.426   3
   4   7  -5 6654.35 1203.64   3
   4  -7  -5 5949.30 1061.63   3
   4   7  -4 76613.3 3456.60   3
   4  -7  -4 79094.8 3432.00   3
   4   7  -3 12435.8 1393.07   3
   4  -7  -3 11671.1 1361.80   3
   4   7  -2 36942.8 2212.18   3
   4   7  -2 39315.3 2380.07  13
   4   7  -2 41008.4 2865.26   7
   4   7  -1 16106.2 1799.60   7
   4   7  -1 15786.7 1528.11  13
   4   7  -1 15730.5 1424.27   3
   4   7   0 13992.6 1415.54   4
   4   7   0 13553.2 1425.21  13
   4   7   0 13302.4 1718.54   7
   4   7   1 1839.25 571.692   4
   4   7   1 2479.53 789.662  13
   4   7   1 2213.30 934.627   7
   4   7   2 3991.40 883.850   4
   4   7   2 4608.68 926.454  13
   4   7   3 1609.36 699.562   4
   4   7   3 2594.19 880.218  13
   4   7   4 8529.89 1278.09   4
   4   7   4 8818.69 1446.28  13
   4   7   5 178.590 658.554   4
   4   7   5 507.632 811.314  13
   4   7   6 19260.3 2067.32   4
   4   7   6 23369.5 2553.11  13
   4   7   7 20662.8 3506.09   6
   4   7   7 18344.0 2150.61   4
   4  -7   7 20609.8 2516.01  14
   4   7   7 20382.3 2462.40  13
   4  -7   8 3302.06 1128.96  14
   4   7   8 3465.67 991.703  13
   4  -7   9 5402.00 1412.27  14
   4  -7  10 770.210 808.881  14
   4  -7  11 849.899 667.282  14
   4  -7  12 424.701 471.653  14
  -4  -8  15-722.965 443.384  14
   4   8 -15 120.797 1068.17  12
  -4  -8  14 4153.02 1102.67  14
  -4  -8  13 2645.37 1081.38  14
   4   8 -12 6766.94 1788.27   9
  -4  -8  12 7058.01 1600.23  14
   4   8 -11 305.199 733.435   5
   4   8 -11-650.125 704.790   9
   4  -8 -10 328.167 927.898   5
   4   8 -10 1140.68 758.453   9
   4   8 -10 71.1945 662.809   3
   4   8  -9 1133.31 1088.40   9
   4   8  -9 4404.43 1352.15   3
   4   8  -8 19421.4 2314.73   3
   4   8  -7 2247.08 935.884   3
   4   8  -6 25425.6 2395.73   3
   4   8  -5 5157.15 1099.85   3
   4  -8  -4 10138.8 1250.02   3
   4   8  -4 11634.1 1434.20   3
   4   8  -3 33443.0 2230.48   3
   4  -8  -3 32358.1 2183.79   3
   4   8  -3 37423.4 2989.14   7
   4   8  -2 8603.97 1102.86   3
   4   8  -2 8570.09 1147.53  13
   4   8  -2 9735.35 1488.99   7
   4   8  -1 77.4536 462.428  13
   4   8  -1-71.8964 772.300   7
   4   8   0 8135.64 1183.85   4
   4   8   0 7382.42 1165.68  13
   4   8   0 7652.53 1377.15   7
   4   8   1 4201.41 931.325   4
   4   8   1 5187.55 1324.98   7
   4   8   1 3831.53 889.339  13
   4   8   2 23540.2 2029.01   4
   4   8   2 22218.4 1993.00  13
   4   8   3 9507.89 1369.12   4
   4   8   3 9177.05 1395.96  13
   4   8   4 118596. 4795.83   4
   4   8   4 113583. 4982.55  13
   4   8   5 6821.43 1348.59   4
   4   8   5 10278.4 1692.21  13
   4   8   6 23711.7 2386.49   4
   4   8   6 23521.3 2590.41  13
   4   8   7-203.702 1348.56   6
   4   8   7-617.202 484.037   4
   4  -8   7-154.862 570.141  14
   4   8   7-1622.29 811.998  13
   4   8   8 1220.86 1462.30   6
  -4   8  -8 2612.48 1315.35  10
   4  -8   8 2006.06 929.548  14
   4  -8   9-1032.92 753.636  14
   4  -8  10 668.113 746.200  14
   4  -8  11 1864.97 703.978  14
   4  -8  12 931.487 588.363  14
  -4  -9  15 232.230 325.994  14
   4   9 -15 737.530 1165.93  12
  -4  -9  14 1439.31 555.004  14
  -4  -9  13 21.2426 558.851  14
   4   9 -12 863.242 1010.99   9
  -4  -9  12 271.053 605.227  14
   4   9 -11 1307.22 711.073   9
  -4  -9  11-684.756 764.991  14
   4   9 -10 863.782 1147.49   9
   4   9 -10-187.557 767.920   3
   4   9  -9 2469.00 1282.89   9
   4   9  -9 3025.13 994.665   3
   4   9  -8 128.871 705.543   3
   4   9  -7 2908.08 1029.85   3
   4   9  -6 25705.2 2365.29   3
   4   9  -5 17455.7 1853.60   3
   4   9  -4 87715.8 3819.28   3
   4   9  -3 75280.9 3285.08   3
   4  -9  -3 75312.1 3352.07   3
   4   9  -3 76730.5 4444.19   7
   4   9  -2 18300.7 1706.37  13
   4   9  -2 22400.7 2291.48   7
   4   9  -1 7767.53 1137.75  13
   4   9  -1 9055.53 1644.14   7
   4   9   0 1198.16 690.306   4
   4   9   0 1816.56 655.423  13
   4   9   0 1265.14 921.571   7
   4   9   1 7296.69 1216.40   4
   4   9   1 6307.45 1578.44   7
   4   9   1 7565.74 1246.43  13
   4   9   2 463.390 625.897   4
   4   9   2-295.556 648.015  13
   4   9   3 3594.68 950.340   4
   4   9   3 1781.80 795.121  13
   4   9   4 281.865 611.409   4
   4   9   4 177.845 707.604  13
   4   9   5 223.964 689.818   4
   4   9   5 11.9536 717.758  13
   4   9   6 15912.1 3084.43   6
   4   9   6 15505.9 2034.21   4
   4   9   6 15220.8 2164.37  13
   4  -9   6 16040.0 2136.80  14
   4   9   7 95.3250 1334.24   6
   4   9   7 536.431 596.247   4
   4  -9   7 124.028 625.499  14
   4   9   7 893.855 710.005  13
  -4   9  -8 3121.91 1414.02  10
   4  -9   8 1296.53 755.539  14
   4   9   8 3479.21 1673.90   6
  -4   9  -9 8497.82 1960.64  10
   4  -9   9 7408.20 1539.11  14
   4  -9  10 909.025 743.003  14
   4  -9  11 5417.36 1174.65  14
   4  -9  12 986.789 521.671  14
   4  10 -15 614.421 1184.55  12
   4  10 -14 1872.04 1746.22  12
  -4 -10  14 268.667 479.043  14
  -4 -10  13 4798.09 1282.63  14
   4  10 -12-379.630 906.681   9
  -4 -10  12-565.927 785.833  14
   4  10 -11 8805.49 2154.32   9
  -4 -10  11 8965.11 1742.67  14
   4  10 -10 2430.36 1032.08   3
   4  10 -10 2845.97 1583.76   9
   4  10  -9 17390.0 2821.25   9
   4  10  -9 14661.8 2239.00   3
   4  10  -8 1023.16 831.859   3
   4  10  -7 23522.2 2476.63   3
   4  10  -6 5399.47 1293.69   3
   4  10  -5 3537.67 946.709   3
   4  10  -4-490.550 1179.11   7
   4  10  -4-32.5821 438.870   3
   4  10  -3 40047.8 3351.35   7
   4  10  -2 13051.9 1479.44  13
   4  10  -2 13245.5 1987.83   7
   4  10  -1 129710. 4514.76  13
   4  10  -1 135938. 5853.37   7
   4  10   0 2076.54 759.990   4
   4  10   0 1604.69 652.396  13
   4  10   1 66014.3 3410.52   4
   4  10   1 60196.8 3298.50  13
   4  10   1 63089.4 4227.16   7
   4  10   2 4279.80 1025.47   4
   4  10   2 2516.59 857.582  13
   4  10   3 45790.9 3095.10   4
   4  10   3 40757.5 2967.69  13
   4  10   4-570.270 749.453   4
   4  10   4 1227.27 882.319  13
   4  10   5 1084.89 772.786   4
   4  10   5 91.1064 732.168  13
   4  10   6 2079.96 1796.74   6
  -4  10  -6 2160.35 1263.28  10
   4  10   6 1885.26 941.980   4
   4 -10   6 1812.09 824.586  14
   4  10   6 3277.51 1148.28  13
   4  10   7-2365.71 1740.46   6
  -4  10  -7-520.209 1207.29  10
   4  10   7 177.211 610.970   4
   4  10   7-609.825 648.060  13
   4 -10   7-231.064 852.775  14
   4  10   8-750.835 1414.25   6
  -4  10  -8 2628.28 1373.61  10
   4 -10   8 669.238 845.715  14
  -4  10  -9 1505.63 974.183  10
   4 -10   9-150.982 599.322  14
  -4  10 -10 3736.54 1312.89  10
   4 -10  10 1561.21 880.611  14
   4 -10  11 891.520 574.032  14
   4 -10  12-529.697 405.255  14
  -4 -11  14 1538.61 713.760  14
   4  11 -14 2852.89 1991.22  12
  -4 -11  13 557.220 554.575  14
   4  11 -13 1969.45 1595.90  12
   4  11 -12 2228.64 1247.11   9
  -4 -11  12 2568.35 910.434  14
   4  11 -11-921.042 933.460   9
  -4 -11  11-531.426 701.492  14
   4  11 -10-431.559 866.257   9
   4  11 -10-95.3538 824.892   3
  -4  11  10-269.208 630.513  13
   4  11  -9 1116.62 1108.50   9
   4  11  -9 41.8212 610.499   3
   4  11  -8 4459.41 1631.24   9
   4  11  -8 5217.14 1458.99   3
   4  11  -7 17998.6 2173.16   3
   4  11  -6 39017.9 2928.75   3
   4  11  -5 55.1066 1009.63   7
   4  11  -5 1351.25 627.037   3
   4  11  -4 84935.1 5278.64   7
   4  11  -3 8743.88 1877.56   7
   4  11  -2 31934.5 3047.70   7
   4  11  -1 22346.4 2567.63   7
   4  11  -1 26765.6 2125.72  13
   4  11   0 296.895 475.875  13
   4  11   0-98.5048 889.840   7
   4  11   1 19996.8 2002.75   4
   4  11   1 18076.8 1848.35  13
   4  11   1 21758.1 2627.17   7
   4  11   2 1972.58 895.514   4
   4  11   2 1404.88 665.631  13
   4  11   3 1067.02 734.828   4
   4  11   3 448.584 683.235  13
   4  11   4 1170.17 683.226   4
   4  11   4 388.619 607.819  13
   4  11   5 1890.84 968.767   4
   4  11   5 3272.23 1126.90  13
   4  11   6 19365.8 3310.17   6
   4  11   6 13937.2 2013.95   4
   4  11   6 17490.7 2467.83  13
  -4  11  -6 16933.5 2992.66  10
   4  11   7 6316.07 2473.91   6
  -4  11  -7 10444.7 2295.32  10
   4  11   7 6097.66 1294.20   4
   4 -11   7 7850.79 1588.01  14
   4  11   7 7249.58 1543.31  13
   4  11   8 3347.23 1399.98   6
  -4  11  -8 2743.60 1356.11  10
   4 -11   8 2899.44 972.609  14
  -4  11  -9 10899.8 2214.47  10
   4 -11   9 8942.71 1611.11  14
  -4  11 -10 400.444 724.743  10
   4 -11  10-97.8771 469.282  14
   4 -11  11 3095.28 813.232  14
   4  12 -14 5336.61 2211.73  12
  -4 -12  14 1003.22 500.151  14
  -4 -12  13 1581.24 728.186  14
   4  12 -13 3949.04 2393.62  12
   4  12 -12 5108.10 1558.31   9
  -4 -12  12 5319.51 1307.24  14
   4  12 -12 8520.64 3548.43  12
   4  12 -11 653.027 779.307   9
  -4 -12  11-244.347 722.412  14
   4  12 -10 1158.09 727.910   9
   4  12  -9 1691.28 1134.20   9
   4  12  -9 427.340 642.779   3
   4  12  -8 5150.51 1317.59   3
   4  12  -8 4734.53 1663.92   9
   4  12  -7 928.548 878.271   3
   4  12  -6 57652.0 3603.52   3
   4  12  -5 11678.4 2372.50   7
   4  12  -4 8827.84 1917.51   7
   4  12  -3 15183.4 2315.42   7
   4  12  -2 44075.1 3735.08   7
   4  12  -1 1173.53 908.583   7
   4  12   0 4574.86 973.703  13
   4  12   0 4476.49 1383.44   7
   4  12   1 14865.4 1889.05   4
   4  12   1 11876.6 2094.23   7
   4  12   1 13066.0 1644.26  13
   4  12   2 4940.58 1121.63   4
   4  12   2 4410.72 1074.41  13
   4  12   3 4642.82 1096.74   4
   4  12   3 6869.61 1367.20  13
   4  12   4 23197.3 2489.04   4
   4  12   4 18602.2 2333.44  13
  -4  12  -5-50.7135 871.301  10
   4  12   5 1137.18 777.982   4
   4  12   5-534.382 668.432  13
   4  12   6 10859.0 2810.41   6
  -4  12  -6 13888.4 2651.65  10
   4  12   6 14016.0 2044.17   4
   4  12   6 11596.1 1964.24  13
   4  12   7 847.697 1320.93   6
  -4  12  -7 218.487 998.231  10
   4  12   8 2909.41 1719.09   6
   4 -12   8 1033.14 729.945  14
  -4  12  -8 1152.02 1002.07  10
  -4  12  -9-632.842 683.999  10
   4 -12   9-532.325 643.733  14
  -4  12 -10-509.519 601.238  10
   4 -12  10 1383.45 711.109  14
   4 -12  11 304.380 453.916  14
  -4  12 -11 337.632 513.839  10
   4  13 -14 4346.58 2122.88  12
  -4 -13  13 343.948 413.790  14
   4  13 -13 2323.10 1527.98  12
   4  13 -12 477.237 726.966   9
   4  13 -12 2968.63 1910.41  12
   4  13 -11 463.836 983.157   9
   4  13 -11 1590.79 2192.34  12
   4  13 -10-1299.74 999.447   9
   4  13 -10 2063.69 2220.79  12
   4  13  -9 2113.90 1094.51   9
   4  13  -9 2323.17 1028.46   3
  -4  13   9 2509.67 1065.37  13
   4  13  -9 1613.09 2247.81  12
   4  13  -8-286.270 761.531   3
   4  13  -8 1146.48 1114.77   9
   4  13  -8-311.603 2330.14  12
   4  13  -7 2854.59 1575.05   7
   4  13  -7 5477.02 1847.13   9
   4  13  -7 2533.84 1085.73   3
   4  13  -7 3672.89 2481.26  12
   4  13  -6 8869.57 2059.76   7
   4  13  -5 194.041 1098.54   7
   4  13  -4 24781.2 3275.20   7
   4  13  -3 10499.7 2194.98   7
   4  13  -2 7086.34 1856.55   7
   4  13  -1 3362.06 1490.76   7
   4  13   0 1717.67 1234.02   7
   4  13   1 13556.9 1856.57   4
   4  13   1 12260.7 1703.02  13
   4  13   1 16009.2 2621.88   7
   4  13   2 14229.2 1861.60   4
   4  13   2 10832.1 1574.29  13
   4  13   3-275.054 793.688   4
   4  13   3 131.636 566.033  13
  -4  13  -4 2859.67 1352.83  10
   4  13   4 1556.75 769.740   4
   4  13   4 1851.59 878.887  13
  -4  13  -5 221.099 919.009  10
   4  13   5-313.285 833.404   4
   4  13   5 917.640 819.459  13
   4  13   5-1206.50 1773.28   6
   4  13   6 2848.87 2040.84   6
  -4  13  -6 3395.17 1341.47  10
   4  13   6 4205.70 1384.04   4
   4  13   6 4311.18 1277.22  13
  -4  13  -7 14303.4 2874.15  10
   4  13   7 11018.0 2940.49   6
   4  13   8 4151.22 1970.86   6
  -4  13  -8 2115.14 1094.31  10
  -4  13  -9 6994.72 1744.84  10
  -4  13 -10-720.512 603.131  10
  -4  13 -11 2350.86 850.733  10
   4  14 -14 1059.60 1081.04  12
   4  14 -13 2016.26 1805.78  12
   4  14 -12 540.792 755.842   9
   4  14 -12 876.880 2208.40  12
   4  14 -11 4895.23 1571.93   9
   4  14 -11 10759.3 3985.30  12
   4  14 -10-332.776 800.920   9
   4  14 -10 535.489 1730.84  12
   4  14  -9 33825.8 3906.00   9
   4  14  -9 36345.9 7464.40  12
   4  14  -8 9646.36 2420.47   7
   4  14  -8 8734.92 2057.00   9
   4  14  -8 7087.54 3870.32  12
  -4  14   8 8820.47 2187.44  11
  -4  14   8 5719.51 1528.93  13
   4  14  -7 2529.02 1204.91   9
  -4  14   7 1128.08 1007.30  11
   4  14  -7 160.678 2184.17  12
   4  14  -7-1524.33 1228.44   7
   4  14  -6-2279.20 1392.06   7
   4  14  -5 6465.62 1673.63   7
   4  14  -4 1555.40 1231.55   7
   4  14  -3 106.222 1327.25   7
   4  14  -2 1546.62 1289.76   7
   4  14  -1 60308.7 4805.99   7
   4  14   0 2639.86 1362.51   7
   4  14   1 33225.0 2906.80   4
   4  14   1 30685.9 3534.90   7
   4  14   2 3632.34 1047.76  13
   4  14   2 2633.21 1132.28   4
   4  14   3 5724.94 1433.39   4
   4  14   3 4060.44 1125.12  13
  -4  14  -4 2073.83 1296.99  10
   4  14   4-772.719 1167.50   6
   4  14   4 143.678 619.702   4
   4  14   4 2282.66 1979.55   8
   4  14   4 513.123 608.823  13
   4  14   5 1762.91 1507.47   6
  -4  14  -5-269.190 726.977  10
   4  14   5 98.8026 662.995   4
   4  14   5 140.699 640.411  13
   4  14   6 232.255 1524.82   6
  -4  14  -6 160.549 788.914  10
   4  14   7 1782.14 1666.37   6
  -4  14  -7 3.65259 860.163  10
   4  14   8 1438.96 1511.53   6
  -4  14  -8 198.992 710.420  10
  -4  14  -9-1195.21 887.192  10
  -4  14 -10-714.885 785.582  10
   4  15 -13 1908.33 1670.43  12
   4  15 -12 128.148 1731.76  12
   4  15 -11 633.886 753.209   9
   4  15 -11 34.9381 2089.28  12
   4  15 -10 3046.38 1299.47   9
   4  15 -10 3205.93 2378.53  12
   4  15  -9 5064.34 1631.19   9
   4  15  -9 2953.22 2069.96  12
   4  15  -8 1144.15 836.793   9
   4  15  -8 1899.82 1756.22  12
   4  15  -8-582.408 1071.45   7
   4  15  -7 15470.8 2544.57   9
   4  15  -7 21309.5 5259.67  12
  -4  15   7 12177.3 2688.16  11
   4  15  -7 17701.2 3143.64   7
   4  15  -6 15797.6 2631.54   9
   4  15  -6 20257.0 4944.76  12
  -4  15   6 11477.4 2789.28  11
   4  15  -6 11752.0 2416.99   7
   4  15  -5 2062.40 1427.28   7
   4  15  -4 39529.4 4189.89   7
   4  15  -3 8781.85 2310.82   7
   4  15  -2 16119.0 2642.93   7
   4  15  -1 11689.9 2363.97   7
   4  15   0 18722.5 2981.89   7
   4  15   1 5253.91 1965.18   7
   4  15   2 4320.53 1214.83   4
  -4  15  -3 3322.93 1454.11  10
   4  15   3 1914.18 940.288   4
   4  15   3 1051.94 791.858  15
   4  15   3 2941.57 2146.12   8
  -4  15  -4 1433.46 1318.84  10
   4  15   4-1634.12 1777.11   6
   4  15   4 1486.58 805.370   4
   4  15   4-138.770 1655.10   8
   4  15   4 1340.52 957.902  13
   4  15   4-734.987 1031.55  15
  -4  15  -5 524.102 779.458  10
   4  15   5 1550.63 1510.45   6
   4  15   5 444.493 629.036   4
   4  15   5 1337.27 1597.96   8
   4  15   5 992.573 928.812  13
   4  15   6 10832.3 3035.91   6
  -4  15  -6 10796.1 2391.34  10
  -4  15  -7-36.2346 847.192  10
   4  15   7 2516.11 1841.50   6
   4  15   8 842.781 1237.98   6
  -4  15  -8 1178.76 965.453  10
   4  15   8 1110.01 676.611  15
  -4  15  -9 3712.11 1255.84  10
  -4  15 -10 783.835 602.656  10
   4  16 -13-2622.78 1593.80  12
   4  16 -12 3132.94 2465.56  12
   4  16 -11-1318.05 930.409   9
   4  16 -11 173.555 1686.35  12
   4  16 -10 5849.74 1695.13   9
   4  16 -10 8900.31 3700.83  12
   4  16  -9 4701.24 1637.94   9
   4  16  -9 10686.2 3728.19  12
   4  16  -8 1826.76 1232.13   9
   4  16  -8-624.631 1631.92  12
  -4  16   8 1418.68 1442.31  11
   4  16  -7 5581.90 1669.97   9
   4  16  -7 2740.22 2503.67  12
  -4  16   7 1604.39 955.506  11
   4  16  -7 214.208 1113.02   7
  -4  16   6 3616.37 1767.50  11
   4  16  -6 4243.27 1843.43   7
   4  16  -5 11831.2 3945.91  12
  -4  16   5 10026.6 2572.22  11
   4  16  -5 9259.28 2146.84   7
   4  16  -4-743.517 1074.29   7
   4  16  -3 1575.95 1110.58   7
   4  16  -2 3081.89 1336.19   7
   4  16  -1 6890.07 2039.06   7
   4  16   0-1048.23 1350.79   7
   4  16   1 5707.31 2336.04   8
   4  16   1 3048.29 1834.62   7
  -4  16  -2 5222.62 1663.93  10
   4  16   2 7158.35 1535.78   4
   4  16   2 7137.91 2746.31   8
   4  16   2 5570.94 1492.28  15
  -4  16  -3-300.860 769.248  10
   4  16   3 993.116 914.198   4
   4  16   3-800.220 937.713  15
   4  16   3 1266.14 1388.13   8
  -4  16  -4 14704.9 2854.50  10
   4  16   4 13237.8 2085.59   4
   4  16   4 12790.6 2756.52   6
   4  16   4 13037.6 3238.05   8
   4  16   4 11854.3 2053.28  15
  -4  16  -5 1967.09 1221.04  10
   4  16   5 1228.28 1223.59   6
   4  16   5 2802.30 1597.95   8
   4  16   5 2326.59 893.108  15
  -4  16  -6 3024.60 1369.14  10
   4  16   6 3170.68 1102.51  15
   4  16   6 2278.68 1628.72   6
   4  16   7 578.879 1170.80   6
  -4  16  -7-29.5946 981.389  10
   4  16   7 1718.25 983.529  15
   4  16   8 2109.50 1655.19   6
  -4  16  -8 315.716 845.114  10
  -4  16  -9 258.164 628.131  10
  -4  16 -10 878.766 748.760  10
   4  17 -13-3431.69 1599.03  12
   4  17 -12 204.687 1166.10  12
   4  17 -11-2289.71 998.005   9
   4  17 -11 1405.23 2135.42  12
   4  17 -10-1533.23 949.711   9
   4  17 -10-372.282 1792.32  12
   4  17  -9-159.337 794.100   9
   4  17  -9-3364.61 2459.95  12
   4  17  -8 698.718 741.218   9
   4  17  -8 3350.89 3510.38  12
  -4  17   8 665.394 1362.75  11
   4  17  -7 8743.36 3507.62  12
  -4  17   7 5940.57 2152.37  11
   4  17  -6 589.745 1942.97  12
  -4  17   6-947.664 1358.67  11
   4  17  -6 276.782 1092.53   7
   4  17  -5-2432.59 2267.42  12
   4  17  -5-1137.70 1742.44   7
  -4  17   5-590.231 1199.42  11
   4  17  -4 16209.4 4715.22  12
   4  17  -4 14049.4 2696.37   7
   4  17  -3 9658.30 3855.45  12
   4  17  -3 8533.26 2137.24   7
   4  17  -2 10301.2 2925.34   8
   4  17  -2 8324.50 2174.45   7
  -4  17   1 807.509 887.903  10
   4  17  -1-3801.83 1992.34   8
   4  17  -1 2003.67 2457.57  12
   4  17  -1-538.671 1291.76   7
   4  17   0-1623.05 1909.81   8
  -4  17   0-211.034 1132.95  10
   4  17   0-570.988 590.072  15
   4  17   0 2074.61 2130.21  12
   4  17   0 2650.23 1547.83   7
  -4  17  -1 11648.8 2514.59  10
   4  17   1 11143.1 1890.43  15
   4  17   1 8713.36 3099.04   8
   4  17   1 13110.6 2629.53   7
  -4  17  -2 8268.57 2048.78  10
   4  17   2 9767.88 1779.56  15
   4  17   2 5191.84 2073.02   8
  -4  17  -3 741.656 1014.12  10
   4  17   3 656.572 1006.80   4
   4  17   3 615.171 813.512  15
   4  17   3 30.6197 1685.52   8
  -4  17  -4 1522.59 1189.10  10
   4  17   4-1371.50 1734.19   6
   4  17   4 376.670 701.166  15
   4  17   4-22.7017 1391.34   8
  -4  17  -5 188.514 863.020  10
   4  17   5-169.388 1588.91   6
   4  17   5 1237.84 1862.66   8
   4  17   5 708.930 701.397  15
   4  17   6 3040.96 1580.32   6
  -4  17  -6 980.792 1106.33  10
   4  17   6 1551.10 738.234  15
   4  17   7 7659.64 2307.71   6
  -4  17  -7 7710.67 2008.43  10
   4  17   8-67.1407 962.459   6
  -4  17  -8-1754.03 1025.43  10
  -4  17  -9 2074.63 1084.01  10
  -4  17 -10-137.103 429.041  10
   4  18 -12-553.272 1224.08  12
   4  18 -11 2564.95 2415.83  12
   4  18 -10 851.758 783.629   9
   4  18 -10-1973.57 1850.96  12
   4  18  -9 16950.2 4664.54  12
   4  18  -8-1338.09 2687.51  12
  -4  18   7 1603.24 1449.09  11
   4  18  -7 6700.24 3752.50  12
   4  18  -6 1191.71 2139.53  12
  -4  18   6 3209.24 1384.26  11
   4  18  -5 1732.82 1275.25   7
  -4  18   5 4574.17 2377.80  11
   4  18  -4-972.353 2050.47  12
   4  18  -4-2088.99 1626.31   7
   4  18  -3-1057.68 1447.14   8
   4  18  -3 1618.21 2611.18  12
   4  18  -3 625.368 1192.69   7
  -4  18   2-1442.12 1059.08  10
   4  18  -2 5071.22 2419.05   8
   4  18  -2 3002.12 2623.59  12
   4  18  -2 796.580 1201.54   7
  -4  18   1 9479.19 2278.33  10
   4  18  -1 5732.13 2375.51   8
   4  18  -1 12254.1 4319.55  12
   4  18  -1 10833.4 2588.85   7
  -4  18   0 1726.44 1563.90  10
   4  18   0-1.87490 1600.21   8
   4  18   0-317.465 744.666  15
   4  18   0 565.221 1324.22   7
   4  18   1 33717.6 3252.24  15
   4  18   1 32662.4 5165.16   8
   4  18   1 32631.6 4100.45   7
  -4  18  -1 32782.4 3961.00  10
  -4  18  -2-55.4810 924.504  10
   4  18   2-696.279 848.104  15
   4  18   2-662.581 1368.24   8
  -4  18  -3 10481.9 2400.41  10
   4  18   3 11092.9 3182.47   8
   4  18   3 11417.2 1870.28  15
  -4  18  -4-1189.91 1015.58  10
   4  18   4-1075.42 1695.66   8
   4  18   4-252.245 780.583  15
  -4  18  -5-1196.50 1018.19  10
   4  18   5-973.846 644.867  15
   4  18   5-469.272 1379.44   8
   4  18   6 2427.40 1537.58   6
  -4  18  -6 733.180 1055.57  10
   4  18   7 1108.21 1299.56   6
  -4  18  -7 133.838 716.807  10
  -4  18  -8 1673.98 1024.00  10
   4  18   8 3446.42 1531.31   6
  -4  18  -9-3.68887 642.972  10
   4  19 -12-483.874 1047.02  12
   4  19 -11-2139.26 1592.86  12
   4  19 -10 2761.62 2353.99  12
   4  19  -9-2171.74 2072.90  12
   4  19  -8 1710.69 1931.36  12
   4  19  -7-3301.14 2490.98  12
  -4  19   7 3034.37 1430.69  11
   4  19  -6 8952.56 3900.74  12
  -4  19   6 8244.91 2349.44  11
   4  19  -5-143.214 2120.66  12
  -4  19   5-299.750 1201.00  11
  -4  19   4 16438.1 3466.48  11
   4  19  -4 23659.1 5882.57  12
   4  19  -4 12653.5 2746.29   7
   4  19  -3 237.834 2789.55  12
   4  19  -3-335.765 1999.09   8
   4  19  -3 548.661 1168.49   7
   4  19  -2-20.6342 1982.22  12
   4  19  -2 2438.16 1998.30   8
   4  19  -2 2062.65 1475.78   7
  -4  19   1 2180.41 1280.89  10
   4  19  -1 2712.40 1688.32   8
   4  19  -1 3671.44 1876.11   7
  -4  19   0 1789.14 1292.23  10
   4  19   0 751.285 1152.14   7
   4  19   0-23.2529 1459.36   8
  -4  19  -1 2215.06 1544.58  10
   4  19   1 1860.62 955.119  15
   4  19   1 1256.03 1572.64   8
  -4  19  -2 4162.16 1908.01  10
   4  19   2 1228.32 1468.97   8
   4  19   2 3123.00 1010.79  15
  -4  19  -3 4604.72 1594.62  10
   4  19   3 3888.19 1222.57  15
   4  19   3 3132.24 2166.60   8
  -4  19  -4-1512.05 1092.38  10
   4  19   4-1305.51 1464.73   8
   4  19   4 391.614 648.043  15
  -4  19  -5 2112.03 1200.19  10
   4  19   5 5052.10 1985.61   6
   4  19   5 3346.30 2047.48   8
   4  19   6-1514.47 1095.98   6
  -4  19  -6 968.746 944.836  10
  -4  19  -7 712.482 686.424  10
   4  19   7-41.2689 1204.71   6
   4  19   8 235.258 1147.33   6
  -4  19  -8 2595.97 1048.83  10
  -4  19  -9 2228.36 905.668  10
   4  20 -11-1057.83 1106.86  12
   4  20 -10-365.873 1556.27  12
   4  20  -9 325.278 1783.59  12
   4  20  -8 3777.18 2568.05  12
   4  20  -7 2187.64 2050.49  12
  -4  20   7 3200.03 1856.84  11
   4  20  -6 3770.35 2743.48  12
  -4  20   6 3362.82 1503.07  11
   4  20  -5 1029.78 1758.73  12
  -4  20   5 616.227 1102.55  11
   4  20  -4 171.368 2263.81  12
  -4  20   4 1521.91 1720.62  11
   4  20  -3 549.315 1143.55   8
   4  20  -3 1570.65 2695.27  12
   4  20  -2-386.235 1190.10   8
   4  20  -2 315.095 1933.32  12
  -4  20   1 1851.42 1136.22  10
   4  20  -1 609.488 1455.22   8
   4  20  -1 4709.57 2806.08  12
   4  20  -1 5667.17 1917.55   7
  -4  20   0 583.829 1158.21  10
   4  20   0-721.381 1421.93   8
  -4  20  -1 5127.78 1841.32  10
   4  20   1-461.504 2101.83   8
  -4  20  -2 6359.48 1972.46  10
   4  20   2 5143.16 2286.62   8
   4  20   2 6816.52 1530.10  15
  -4  20  -3 318.773 811.804  10
   4  20   3 358.146 654.708  15
   4  20   3-1430.19 1394.41   8
  -4  20  -4 5758.48 1781.51  10
   4  20   4 5709.06 2494.81   8
  -4  20  -5-1744.51 1083.15  10
   4  20   5 356.892 1270.55   6
   4  20   5 414.492 1460.78   8
   4  20   6 1466.84 1304.12   6
  -4  20  -6 3225.11 1308.08  10
   4  20   7 2785.42 1404.28   6
  -4  20  -7 274.434 819.689  10
  -4  20  -8 50.0732 623.532  10
  -4  20  -9-439.227 558.638  10
   4  21 -11-318.952 1107.35  12
   4  21 -10-3070.90 1872.32  12
   4  21  -9 549.544 1780.38  12
   4  21  -8-2328.68 1963.24  12
   4  21  -7-206.593 2061.68  12
  -4  21   7 3014.13 1733.23  11
  -4  21   6 1533.74 1570.10   8
   4  21  -6 574.236 1940.96  12
  -4  21   6 255.325 971.956  11
   4  21  -5-21.2058 2002.70  12
  -4  21   5-899.854 1422.01  11
   4  21  -4 8790.15 3947.38  12
  -4  21   4 7011.04 2551.68  11
   4  21  -3-1097.44 2641.56  12
   4  21  -3 3954.26 1896.22   8
   4  21  -2-421.265 1422.15   8
   4  21  -2 2371.21 2928.90  12
   4  21  -1 1015.24 1290.47   8
  -4  21   0 2538.68 1431.23  10
   4  21   0 1039.33 1501.82   8
  -4  21  -1 4686.29 1785.73  10
   4  21   1 3828.02 2500.41   8
  -4  21  -2 933.503 999.658  10
   4  21   2 1565.79 1617.19   8
  -4  21  -3 116.607 767.897  10
   4  21   3 2385.29 1663.02   8
  -4  21  -4-856.142 884.251  10
   4  21   4 2366.89 1871.94   8
  -4  21  -5-548.657 898.916  10
   4  21   5 2370.10 1319.29   8
   4  21   6-510.833 1218.18   6
  -4  21  -6-337.681 759.382  10
  -4  21  -7 1356.95 928.242  10
   4  21   7 2718.04 1228.85   6
  -4  21  -8-129.992 530.797  10
  -4  22  10 117.119 669.140   6
   4  22 -10-502.199 1219.41  12
   4  22  -9 3946.32 2254.25  12
   4  22  -8 950.928 1988.81  12
  -4  22   7 1737.81 1305.93   8
   4  22  -7 1143.68 1717.44  12
  -4  22   7 1166.99 1215.07  11
  -4  22   6-560.911 1167.93   8
   4  22  -6 1311.17 2539.77  12
  -4  22   6 857.978 1230.50  11
  -4  22   5-404.696 1167.36  11
  -4  22   5 427.863 1317.10   8
   4  22  -5 387.459 1834.13  12
   4  22  -4-1657.69 2374.31  12
  -4  22   4 2167.11 1647.22  11
   4  22  -3 775.223 1656.74  12
   4  22  -3 2590.56 1631.78   8
  -4  22   3-1321.74 1376.46  11
   4  22  -2-206.653 1799.83  12
   4  22  -2 118.766 1384.13   8
   4  22  -1 82.0418 1356.27   8
  -4  22   0 472.701 856.785  10
   4  22   0 1718.54 1773.48   8
  -4  22  -1 9005.87 2315.62  10
   4  22   1 8831.42 2976.46   8
  -4  22  -2-783.341 864.100  10
   4  22   2-94.1223 1290.13   8
  -4  22  -3 1325.00 1139.00  10
   4  22   3 2164.93 1797.56   8
  -4  22  -4 5907.84 1649.26  10
   4  22   4 2217.95 1577.91   8
  -4  22  -5 204.203 633.603  10
   4  22   5 1028.05 1564.88   8
   4  22   6 1377.64 850.808   6
  -4  22  -6 1645.81 1019.12  10
   4  22   7-1496.32 879.561   6
  -4  22  -7-25.8425 598.987  10
   4  23 -10-60.5293 1329.21  12
   4  23  -9 952.536 1860.81  12
   4  23  -8 3424.58 2614.92  12
  -4  23   7 1159.96 1189.05   8
   4  23  -7-316.037 1560.87  12
  -4  23   6 4737.37 1920.09   8
   4  23  -6 5973.65 3104.96  12
  -4  23   6 6935.50 2214.30  11
  -4  23   5 609.608 1175.52   8
   4  23  -5 837.204 2207.15  12
  -4  23   5-563.317 1061.89  11
   4  23  -4 9699.21 3822.40  12
  -4  23   4 4845.62 2142.86   8
  -4  23   4 4834.25 2201.80  11
   4  23  -3 1847.66 1829.67   8
   4  23  -3 2320.79 2595.54  12
  -4  23   3 90.7263 938.322  11
   4  23  -2 4930.09 2399.28   8
  -4  23   2 7977.52 2692.66  11
   4  23  -1 747.529 1184.90   8
   4  23   0 1188.92 1813.83   8
  -4  23  -1 191.983 762.835  10
   4  23   1 765.523 1302.52   8
  -4  23  -2 244.338 669.413  10
   4  23   2 537.141 1386.03   8
  -4  23  -3 544.239 945.441  10
   4  23   3 933.733 1632.86   8
  -4  23  -4 1659.24 1111.53  10
   4  23   4 2338.52 1614.58   8
  -4  23  -5 481.757 779.368  10
   4  23   5-849.640 1031.07   8
  -4  23  -6 1187.88 756.303  10
  -4  23  -7-187.811 536.159  10
   4  24  -9 2274.52 1722.43  12
   4  24  -8 4856.49 2449.06  12
  -4  24   7 119.890 882.190   8
   4  24  -7 811.331 1331.34  12
   4  24  -6 1140.18 1880.27  12
  -4  24   6 3073.18 1718.52   8
  -4  24   6 292.394 973.327  11
  -4  24   5 1980.94 1347.26  11
  -4  24   5 4021.15 2163.06   8
   4  24  -5 3571.65 2184.67  12
  -4  24   4-807.906 1301.19   8
   4  24  -4 231.225 1531.73  12
  -4  24   4-425.833 1181.01  11
   4  24  -3 5108.81 2068.47   8
  -4  24   3 5979.73 2408.72   8
   4  24  -3 6031.62 3280.69  12
  -4  24   3 3079.47 1687.94  11
  -4  24   2-4571.49 1743.88  11
   4  24  -2 1387.83 1468.61   8
   4  24  -1 2930.34 2206.48   8
  -4  24   1 3340.91 1678.62  11
   4  24   0 1777.18 1573.30   8
   4  24   1 147.287 1287.48   8
  -4  24  -1-1344.03 1453.31   8
  -4  24  -2 3794.84 1363.18  10
   4  24   2 2965.73 1923.09   8
  -4  24  -2 3632.43 1689.74   8
  -4  24  -3 407.570 698.023  10
   4  24   3 1749.30 1632.20   8
  -4  24  -4 5613.18 1503.67  10
   4  24   4 4311.81 1597.57   8
  -4  24  -5-51.5836 620.521  10
   4  24   5 700.520 1091.36   8
  -4  24  -6 2201.49 878.884  10
   4  25  -8 1067.22 1598.72  12
   4  25  -7-1024.07 1949.26  12
  -4  25   6-673.901 959.089   8
   4  25  -6 1373.50 1798.80  12
  -4  25   5 752.408 1167.15   8
   4  25  -5 154.955 1616.75  12
  -4  25   5 1840.79 1329.64  11
  -4  25   4 4402.06 2056.08   8
   4  25  -4 4314.23 2687.45  12
  -4  25   4 2893.87 1543.92  11
   4  25  -3 821.135 1252.48   8
  -4  25   3-468.819 1489.30   8
  -4  25   3 445.244 855.294  11
   4  25  -2 3555.80 1944.05   8
  -4  25   2 946.454 1368.82   8
  -4  25   2 105.487 922.195  11
   4  25  -1 5696.22 2187.05   8
  -4  25   1 4735.93 1936.70   8
  -4  25   1 4261.79 1793.68  11
  -4  25   0 417.582 1158.95   8
   4  25   0 307.342 1167.52   8
  -4  25   0-359.232 972.418  11
   4  25   1 3177.23 1930.34   8
  -4  25  -1 1662.82 1300.06   8
   4  25   2 877.534 1316.50   8
  -4  25  -3-691.663 790.805  10
   4  25   3 676.892 1234.25   8
  -4  25  -4 86.6801 630.621  10
   4  25   4-642.580 1025.01   8
  -4  25  -5-1443.23 703.027  10
   4  26  -7-169.446 1396.23  12
  -4  26   6-1000.86 854.057   8
   4  26  -6-1517.31 1500.38  12
  -4  26   5-1252.27 1275.42   8
  -4  26   5 2171.89 1343.44  11
  -4  26   4-434.838 1350.00   8
  -4  26   4 162.023 890.380  11
  -4  26   3 810.187 1285.14   8
  -4  26   3 1641.09 1200.24  11
   4  26  -2-1068.29 937.574   8
  -4  26   2 1215.82 1164.38   8
  -4  26   2-827.096 925.450  11
  -4  26   1-308.094 1001.06   8
  -4  26   1 40.9727 776.704  11
  -4  26   0 3610.19 1576.60   8
   4  26   0 942.624 1325.80   8
  -4  26   0 1897.82 1132.39  11
   4  26   1 7171.99 2239.02   8
  -4  26  -1 8384.56 2181.79   8
  -4  26  -1 6515.04 1822.39  11
   4  26   2 1709.72 1557.11   8
  -4  26  -2-1394.32 992.585  11
   4  26   3 841.030 1421.65   8
  -4  26  -3 1234.74 908.815  11
   4  26   4 2728.30 1267.32   8
  -4  27   5 310.482 870.367   8
  -4  27   4 2216.33 1465.77   8
  -4  27   4 2013.57 1093.68  11
  -4  27   3 79.8015 993.197   8
  -4  27   3 1995.60 1381.11  11
   4  27  -2 387.977 1083.15   8
  -4  27   2 2411.89 1226.82  11
   4  27  -1 757.654 1019.80   8
  -4  27   1 156.762 992.727   8
  -4  27   1-469.049 719.024  11
   4  27   0 3046.75 1551.78   8
  -4  27   0 2190.62 1092.50   8
  -4  27   0 1592.97 969.472  11
   4  27   1-151.870 963.280   8
  -4  27  -1-917.602 853.351   8
  -4  27  -1 558.631 701.547  11
   4  27   2 2789.79 1576.65   8
  -4  27  -2 798.554 827.378  11
   4  27   3 1576.78 1111.32   8
  -4  28   4 2004.30 1034.39   8
  -4  28   3 2818.25 1188.37   8
  -4  28   3 3333.23 1272.91  11
  -4  28   2-1635.92 1062.96   8
  -4  28   2 1285.84 917.661  11
   4  28  -1 329.655 854.447   8
  -4  28   1 1695.89 1179.91   8
  -4  28   1 1101.31 928.944  11
   4  28   0-714.640 892.795   8
  -4  28   0-1127.11 767.044   8
  -4  28   0-618.631 811.575  11
   4  28   1-50.1446 954.091   8
  -5   0  15 291.052 533.244  14
  -5   0  14 724.173 579.821  14
  -5   0  13 3672.48 1308.33  14
   5   0 -12 244.440 762.792   9
   5   0 -12 2368.08 1211.04   5
   5   0 -11 17926.3 2595.01   5
   5   0 -11 16536.2 2641.84   9
   5   0 -11 16493.9 2224.85   3
   5   0 -10 772.406 826.949   5
   5   0 -10 1864.96 988.868   3
   5   0  -9 15431.0 2099.29   3
   5   0  -8 502.064 772.727   3
   5   0  -7 88445.7 4442.31   3
   5   0  -6 2353.94 942.611   3
   5   0  -5 79417.2 3870.18   3
   5   0  -4-682.417 746.284   3
   5   0  -3 41221.0 2576.75   3
  -5   0   2 805.453 989.437   1
   5   0  -2 1776.25 758.300   3
  -5   0   1 12939.1 1853.40   1
   5   0  -1 13278.5 1495.56  13
   5   0   0 1053.17 584.827  13
   5   0   1 3142.45 858.008  13
   5   0   2 2130.67 885.996  13
   5   0   3 191338. 5969.97  13
   5   0   4 57.8523 505.081  13
   5   0   5 847.691 713.547  13
   5   0   6-111.628 698.894  13
   5   0   6 359.568 804.059  14
   5   0   7 23445.5 2624.20  14
   5   0   8-351.538 828.790  14
   5   0   9 16144.3 2301.94  14
   5   0  10-999.155 755.006  14
   5   0  11 2289.45 769.820  14
   5   0  12 1254.24 512.851  14
  -5  -1  15 55.4195 444.618  14
  -5   1  15 118.944 397.164  14
  -5   1  14 5999.75 1300.22  14
  -5  -1  14 7833.52 1478.42  14
  -5  -1  13 4117.43 1313.15  14
  -5   1  13 2671.38 992.679  14
   5   1 -12 1331.48 805.587   9
   5  -1 -12 1209.47 933.164   5
   5   1 -12 3114.22 1334.81   5
   5   1 -11 4710.37 1479.97   9
   5  -1 -11 6272.66 1629.27   5
   5   1 -11 7582.80 1851.00   5
   5   1 -11 4839.79 1208.09   3
   5  -1 -11 6857.26 1484.67   3
   5  -1 -10-849.227 962.381   5
   5   1 -10 346.773 664.364   5
   5   1 -10 1434.30 1047.67   3
   5  -1 -10-102.788 692.665   3
   5   1  -9 8445.60 1614.48   3
   5  -1  -9 6329.49 1460.20   3
   5   1  -8 8595.36 1444.47   3
   5  -1  -8 9427.16 1610.89   3
   5  -1  -7 3186.76 977.688   3
   5   1  -7 4198.51 1268.16   3
   5   1  -6 8776.59 1547.80   3
   5  -1  -6 11048.2 1697.17   3
   5   1  -5 4895.38 1221.50   3
   5  -1  -5 5468.62 1221.08   3
   5  -1  -4 42765.8 2775.83   3
   5   1  -4 40435.0 2710.46   3
   5   1  -3 2448.28 717.018   3
   5  -1  -3 3605.65 985.152   3
   5   1  -2 32940.4 2269.66   3
   5  -1  -2 30387.2 2196.30   3
  -5  -1   2 32320.4 3147.28   1
  -5   1   2 31957.9 3259.32   1
  -5  -1   1 70823.2 4123.24   1
   5   1  -1 67230.8 3279.68  13
  -5   1   1 67407.2 4342.47   1
   5  -1  -1 61927.5 3170.86  13
   5  -1   0 48809.5 2760.68  13
   5   1   0 53400.3 2907.15  13
   5   1   1 58361.1 3132.67  13
   5  -1   1 55942.6 3047.41  13
   5  -1   2 112964. 4371.45  13
   5   1   2 111842. 4396.23  13
   5  -1   3 74730.6 3742.05  13
   5   1   3 73667.1 3781.48  13
   5  -1   4 36139.3 2742.77  13
   5   1   4 29792.1 2547.22  13
   5  -1   5 251.262 539.587  13
   5   1   5 415.077 638.062  13
   5  -1   6 5806.52 1419.67  14
   5   1   6 4026.22 1067.34  13
   5   1   7 2668.68 1164.27  14
   5  -1   7 1293.13 996.897  14
   5   1   7 1089.60 847.406  13
   5   1   8 2210.83 949.802  14
   5  -1   8 41.4944 722.296  14
   5   1   9 6739.50 1609.92  14
   5  -1   9 7239.60 1594.36  14
   5   1  10 3991.74 1106.75  14
   5  -1  10 5766.55 1370.99  14
   5  -1  11 1776.89 847.712  14
   5   1  11 812.790 576.546  14
   5  -1  12 4443.15 875.309  14
   5   1  12 3545.00 789.603  14
  -5   2  15-888.243 531.350  14
  -5  -2  15-205.050 469.596  14
  -5   2  14-217.455 607.293  14
  -5  -2  14 1101.23 780.806  14
  -5  -2  13 394.590 754.939  14
  -5   2  13 449.834 583.977  14
   5   2 -12 2916.89 999.423   9
   5  -2 -12 2771.73 954.565   5
   5   2 -12 2521.95 1338.57   5
   5   2 -11 1930.58 1285.01   9
   5  -2 -11 1465.89 1103.35   5
   5   2 -11 1944.21 1199.29   5
   5   2 -11 280.214 656.687   3
   5  -2 -11 1488.72 742.987   3
   5  -2 -10 165.350 652.798   3
   5   2 -10-531.726 808.347   9
   5  -2 -10-1295.20 1086.72   5
   5   2 -10-605.055 1022.98   5
   5   2 -10-904.543 1051.70   3
   5   2  -9-149.958 810.867   3
   5  -2  -9 938.464 851.658   3
   5   2  -8 2927.33 1180.32   3
   5  -2  -8 2757.04 1015.10   3
   5   2  -7 543.101 869.195   3
   5  -2  -7 2028.75 894.448   3
   5   2  -6 181969. 6081.28   3
   5  -2  -6 187724. 6100.04   3
   5   2  -5 3921.98 1051.36   3
   5  -2  -5 3251.79 985.509   3
   5   2  -4 81753.5 3828.16   3
   5  -2  -4 79836.6 3741.71   3
   5   2  -3 14446.8 1602.01   3
   5  -2  -3 13937.9 1605.50   3
   5   2  -2 36422.3 2387.80   3
   5  -2  -2 36380.2 2419.40   3
   5   2  -1 12691.1 1518.97  13
   5   2  -1 15525.5 1609.91   3
  -5   2   1 12860.4 2037.14   1
   5  -2   0 29322.1 2172.99  13
   5   2   0 28912.9 2189.16  13
   5   2   1 9154.27 1308.83  13
   5  -2   1 7947.18 1221.73  13
   5   2   2 72002.3 2940.40   4
   5  -2   2 69094.2 3406.47  13
   5   2   2 78159.1 3751.84  13
   5  -2   3 25413.3 2223.27  13
   5   2   3 24370.5 2214.76  13
   5  -2   4 18040.9 1953.21  13
   5   2   4 23291.6 2314.29  13
   5  -2   5 869.038 572.528  13
   5   2   5 2015.53 822.342  13
   5   2   6 22324.8 2492.92  13
   5   2   6 23364.7 2508.34  14
   5  -2   6 22866.4 2527.53  14
   5  -2   7 1418.10 786.249  14
   5   2   7 1728.47 694.269  14
   5   2   7 2268.77 1056.85  13
   5   2   8 41.9183 662.746  14
   5  -2   8-260.218 565.907  14
   5   2   9 2682.16 1111.69  14
   5  -2   9 1357.75 896.494  14
   5  -2  10 2304.59 880.806  14
   5   2  10 715.660 485.848  14
   5   2  11-1318.26 671.855  14
   5  -2  11 298.820 538.351  14
   5   2  12-596.861 452.118  14
   5  -2  12 73.2542 387.716  14
  -5  -3  15 485.005 512.580  14
  -5   3  15 1069.23 541.707  14
  -5  -3  14 1388.80 654.655  14
  -5   3  14 973.835 702.688  14
  -5   3  13 7337.41 1458.71  14
  -5  -3  13 7756.32 1655.68  14
   5   3 -12 1434.28 1121.01   9
   5  -3 -12 1398.27 853.992   5
   5   3 -12 4094.47 1312.13   5
   5   3 -11 12109.7 2263.64   9
   5  -3 -11 11936.1 1993.05   5
   5   3 -11 11766.6 2131.61   5
   5   3 -11 8794.71 1638.59   3
   5   3 -10 5943.03 1602.56   9
   5  -3 -10 7293.23 1693.58   5
   5   3 -10 6404.33 1585.32   5
   5   3 -10 5122.17 1478.51   3
   5  -3 -10 4474.87 1192.17   3
   5   3  -9 15897.8 2253.16   3
   5  -3  -9 14601.0 1913.73   3
   5   3  -8-273.476 805.345   3
   5  -3  -8 789.976 853.467   3
   5   3  -7 2182.28 1003.83   3
   5  -3  -7 2391.86 986.406   3
   5   3  -6 18855.4 2045.28   3
   5  -3  -6 20366.5 2121.72   3
   5   3  -5 45441.3 3016.26   3
   5  -3  -5 45027.6 2906.28   3
   5  -3  -4 6000.71 1148.89   3
   5   3  -4 9197.73 1377.83   3
   5  -3  -3 12297.9 1514.66   3
   5   3  -3 10257.4 1417.47   3
   5   3  -2 11170.4 1387.72   3
   5   3  -2 9934.37 1359.56  13
   5   3  -1 81600.3 3637.52  13
   5   3  -1 80706.9 3450.17   3
   5  -3   0 1723.61 708.872  13
   5   3   0 3064.93 829.145  13
   5  -3   1 2831.41 873.981  13
   5   3   1 1238.74 717.183  13
   5   3   2 59013.9 2802.11   4
   5  -3   2 63661.8 3333.92  13
   5   3   2 64815.4 3467.43  13
   5   3   3 6044.19 979.648   4
   5   3   3 6563.06 1251.30  13
   5  -3   3 6663.50 1143.94  13
   5  -3   4 7428.01 1243.51  13
   5   3   4 9294.50 1530.01  13
   5   3   5-598.868 801.239  13
   5   3   6 4510.50 1267.09  14
   5  -3   6 4967.14 1353.66  14
   5   3   6 3573.80 1169.63  13
   5   3   7 4550.65 1364.54  14
   5  -3   7 2550.16 1119.48  14
   5   3   7 2983.47 837.371  13
   5   3   8 535.701 624.282  14
   5  -3   8-924.006 764.713  14
   5   3   9 10836.8 1789.60  14
   5  -3   9 10525.4 1933.42  14
   5  -3  10 809.678 616.031  14
   5   3  10-516.872 538.884  14
   5   3  11 13.1787 581.103  14
   5  -3  11-342.429 465.038  14
   5  -3  12 1874.53 632.184  14
  -5  -4  15 489.967 532.571  14
  -5   4  14 778.230 614.643  14
  -5  -4  14-190.524 592.161  14
  -5   4  13 392.005 626.874  14
  -5  -4  13 910.139 817.262  14
   5   4 -12-751.644 772.095   9
   5  -4 -12 111.596 675.311   5
   5   4 -12-305.942 759.144   5
   5   4 -11 4389.38 1694.80   9
   5  -4 -11 3280.06 1203.89   5
   5   4 -11 5101.96 1446.58   5
   5   4 -11 3113.72 1240.65   3
   5   4 -10 1586.09 1118.26   9
   5   4 -10 1898.90 823.093   5
   5  -4 -10 3266.11 1121.88   5
   5   4 -10 1583.62 1054.60   3
   5   4  -9 3713.69 1375.30   3
   5  -4  -9 2687.93 923.216   3
   5   4  -8 329.341 781.000   3
   5  -4  -8 976.766 715.970   3
   5   4  -7 64157.6 3934.15   3
   5  -4  -7 68021.0 3805.81   3
   5  -4  -6 2417.38 930.298   3
   5   4  -6 3014.53 1011.03   3
   5   4  -5 17109.2 1932.81   3
   5  -4  -5 17231.9 1860.68   3
   5  -4  -4 13058.8 1555.57   3
   5   4  -4 12321.2 1603.44   3
   5   4  -3 91445.8 3912.33   3
   5  -4  -3 87131.5 3838.03   3
   5   4  -3 86718.2 3830.59   7
   5   4  -2 1737.36 689.344   3
   5   4  -2 906.519 552.870  13
   5   4  -2 2275.90 776.101   7
   5   4  -1 2388.75 758.641  13
   5   4  -1 1341.61 596.202   3
   5   4   0 14200.7 1623.48  13
   5   4   0 15705.9 1542.77   3
   5  -4   1 41441.4 2626.94  13
   5   4   1 41709.6 2723.26  13
   5   4   2 713.290 542.927   4
   5  -4   2-230.649 540.632  13
   5   4   2 1558.96 768.510  13
   5   4   3 2053.83 699.839   4
   5  -4   3 1618.54 687.615  13
   5   4   3 3331.18 952.979  13
   5   4   4 2811.21 1061.41  13
   5   4   5 6075.89 1363.67  13
   5   4   6 657.393 705.085  14
   5  -4   6 1814.08 909.099  14
   5   4   6 1104.40 783.516  13
   5   4   7 31740.9 3092.81  14
   5  -4   7 32128.8 3157.10  14
   5   4   7 31320.2 3131.69  13
   5   4   8 1627.12 803.132  14
   5  -4   8 1114.74 955.432  14
   5   4   9 7537.84 1572.15  14
   5  -4   9 8277.08 1656.22  14
   5  -4  10 226.167 490.975  14
   5   4  10-892.772 723.740  14
   5  -4  11-591.762 634.961  14
   5  -4  12-251.695 339.961  14
  -5  -5  15 172.550 504.367  14
  -5  -5  14 9610.57 1614.86  14
   5   5 -13 1365.09 950.728   9
  -5  -5  13 1502.79 894.069  14
   5  -5 -12 16300.7 2456.56   5
   5   5 -12 19629.6 2605.85   5
   5   5 -12 16083.8 2738.47   9
   5  -5 -11 19518.0 2646.93   5
   5   5 -11 19335.8 2595.32   5
   5   5 -11 17250.5 2761.94   9
   5   5 -11 17600.8 2520.99   3
   5   5 -10-894.629 1134.45   9
   5  -5 -10-598.220 843.489   5
   5   5 -10-335.578 852.351   5
   5   5 -10 501.438 988.272   3
   5   5  -9 15904.3 2284.58   3
   5   5  -8 3730.57 1183.74   3
   5  -5  -8 2657.02 987.312   3
   5   5  -7 2040.98 833.038   3
   5  -5  -7 2254.26 809.508   3
   5   5  -6 4957.42 1222.01   3
   5  -5  -6 4933.90 1170.04   3
   5   5  -5 1085.91 745.574   3
   5  -5  -5 115.605 656.726   3
   5   5  -4 26530.0 2267.77   3
   5  -5  -4 29728.9 2305.83   3
   5   5  -3 1266.70 683.759   3
   5  -5  -3 620.300 604.705   3
   5   5  -3 856.300 725.916   7
   5   5  -2 4474.81 997.841  13
   5   5  -2 6069.47 1068.62   7
   5   5  -2 5497.23 1079.16   3
   5   5  -1 61469.5 3073.77   3
   5   5  -1 56784.9 3098.92  13
   5   5  -1 58996.6 3059.75   7
   5   5   0 3325.23 747.703   3
   5   5   0 4591.62 1084.32  13
   5  -5   1 20803.7 1876.82  13
   5   5   1 24710.4 2160.36  13
   5   5   2 15455.0 1604.10   4
   5   5   2 15979.9 1870.81  13
   5   5   3 1440.31 674.084   4
   5   5   3 877.179 663.635  13
   5   5   4 41000.4 2692.45   4
   5   5   4 45901.2 3293.86  13
   5   5   5-268.954 750.604  13
   5  -5   6 1537.45 804.277  14
   5   5   6 2015.56 876.257  13
   5   5   7 697.816 844.725  14
   5  -5   7 754.516 867.580  14
   5   5   7-481.054 667.325  13
   5   5   8-318.706 645.793  14
   5  -5   8 685.298 691.953  14
   5  -5   9 3575.39 1208.41  14
   5  -5  10 2953.76 1003.74  14
   5  -5  11 353.031 524.853  14
   5  -5  12 4869.34 908.747  14
  -5  -6  15 1122.25 653.977  14
  -5  -6  14 789.146 581.937  14
   5   6 -13-96.9853 847.581   9
  -5  -6  13 863.001 651.444  14
   5   6 -12 4710.60 1565.17   9
   5  -6 -12 9277.37 1842.98   5
   5   6 -12 4849.09 1430.12   5
   5   6 -11 760.470 811.064   9
   5  -6 -11 844.827 888.392   5
   5   6 -11 379.694 715.575   5
   5   6 -10 3490.84 1453.86   9
   5  -6 -10 3359.27 1167.45   5
   5   6 -10 2306.38 1187.32   5
   5   6 -10 2140.51 1064.06   3
   5   6  -9 2614.23 1060.69   3
   5   6  -8 10350.0 1819.72   3
   5  -6  -8 11391.9 1570.99   3
   5   6  -7 2458.69 892.322   3
   5  -6  -7 2239.71 927.831   3
   5   6  -6 46254.8 3198.15   3
   5  -6  -6 48364.7 3111.52   3
   5   6  -5-63.4360 594.861   3
   5  -6  -5 360.857 645.348   3
   5   6  -4 98714.7 4284.08   3
   5  -6  -4 103603. 4345.55   3
   5  -6  -3 5584.77 1079.33   3
   5   6  -3 4522.21 944.367   3
   5   6  -3 4948.04 1150.59   7
   5   6  -2 4273.20 1028.42  13
   5   6  -2 4769.48 991.181   3
   5   6  -2 3658.75 1013.59   7
   5   6  -1 930.946 607.497   3
   5   6  -1 891.336 771.380  13
   5   6  -1 348.285 740.684   7
   5   6   0 1116.01 699.845   7
   5   6   0 626.663 537.907  13
   5   6   0 1193.93 527.256   3
   5   6   1 6223.34 1130.48   4
   5   6   1 5872.39 1218.61  13
   5   6   2 15928.5 1669.95   4
   5   6   2 14023.0 1759.11  13
   5   6   3 2044.05 761.012   4
   5   6   3 1764.56 774.684  13
   5   6   4 13985.3 1653.04   4
   5   6   4 14629.3 1950.44  13
   5   6   5 462.022 556.720   4
   5   6   5-843.517 781.590  13
   5  -6   6 16478.2 2266.53  14
   5   6   6 18358.7 2421.02  13
   5  -6   7 2130.63 875.690  14
   5   6   7 3115.50 1177.70  13
   5  -6   8 389.778 585.428  14
   5  -6   9-380.015 668.446  14
   5  -6  10 67.1615 571.232  14
   5  -6  11-25.9506 423.627  14
   5  -6  12-420.792 344.507  14
  -5  -7  15 177.844 377.632  14
   5   7 -15-2778.02 1758.21  12
  -5  -7  14 2099.16 859.750  14
   5   7 -13 7013.45 1800.93   9
  -5  -7  13 6694.81 1538.25  14
   5   7 -12 3247.29 1327.73   9
   5   7 -12 1531.33 1036.38   5
   5   7 -11 622.396 798.950   9
   5  -7 -11 294.386 726.608   5
   5   7 -11 1704.44 816.743   5
   5   7 -10 3721.56 1591.67   9
   5  -7 -10 3651.69 1344.76   5
   5   7 -10 396.419 716.140   5
   5   7 -10 3446.61 1371.77   3
   5   7  -9 7320.48 1800.79   9
   5   7  -9 9105.88 1693.65   3
   5   7  -8 3111.32 1141.29   3
   5   7  -7 2692.38 1078.59   3
   5   7  -6 2950.00 977.781   3
   5  -7  -6 2807.54 843.811   3
   5   7  -5 1027.40 706.347   3
   5  -7  -5 2230.62 803.882   3
   5  -7  -4 4116.31 1016.01   3
   5   7  -4 5231.60 1109.00   3
   5   7  -3 27800.1 2288.20   3
   5  -7  -3 27579.7 2227.53   3
   5   7  -3 28193.7 2606.39   7
   5   7  -2 24268.6 2135.78  13
   5   7  -2 23790.5 1996.39   3
   5   7  -2 23126.6 2327.71   7
   5   7  -1 93098.0 4386.63   7
   5   7  -1 96157.4 4139.75  13
   5   7  -1 91579.1 3714.88   3
   5   7   0 3596.24 919.724  13
   5   7   0 3629.86 1169.96   7
   5   7   1 36876.2 2520.38   4
   5   7   1 40828.5 2853.34  13
   5   7   1 36012.3 2941.40   7
   5   7   2 12870.6 1536.77   4
   5   7   2 11698.6 1594.67  13
   5   7   3 2792.43 819.348   4
   5   7   3 3708.15 1090.13  13
   5   7   4 608.831 481.003   4
   5   7   4 853.878 903.525  13
   5   7   5 2680.74 965.173   4
   5   7   5 3234.90 1153.34  13
   5  -7   6 3416.69 1108.77  14
   5   7   6 4521.50 1386.07  13
   5   7   7 1842.07 947.406  13
   5  -7   7 763.943 763.464  14
   5  -7   8-203.308 708.249  14
   5  -7   9 4644.80 1222.72  14
   5  -7  10-236.827 546.813  14
   5  -7  11-59.3224 419.318  14
  -5  -8  15-90.6322 350.709  14
   5   8 -15-253.642 948.121  12
  -5  -8  14 286.914 442.710  14
   5   8 -13-1012.10 819.784   9
  -5  -8  13 113.061 653.719  14
   5   8 -12 363.056 828.257   9
  -5  -8  12 764.648 736.201  14
   5   8 -11 2601.19 1361.35   9
   5  -8 -11 2676.58 1033.06   5
   5   8 -11 3600.50 1246.82   5
   5   8 -10 835.338 972.476   9
   5  -8 -10 2438.46 1026.13   5
   5   8 -10 1409.01 1279.75   3
   5   8  -9 5817.70 1848.56   9
   5   8  -9 5056.37 1460.36   3
   5   8  -8 1158.16 1020.01   3
   5   8  -7 16139.2 2150.54   3
   5   8  -6 188.638 571.893   3
   5   8  -5 1829.01 702.226   3
   5  -8  -5 1922.95 803.860   3
   5  -8  -4 8079.35 1283.53   3
   5   8  -4 8572.54 1381.02   3
   5   8  -4 8785.20 1560.65   7
   5   8  -3 12389.9 1513.50   3
   5  -8  -3 11512.3 1532.90   3
   5   8  -3 12936.1 1889.49   7
   5   8  -2 1592.37 723.898  13
   5   8  -2 2345.02 1060.88   7
   5   8  -1 1195.29 745.185  13
   5   8  -1 129.154 707.134   7
   5   8   0 74.0260 495.868  13
   5   8   0 1741.02 996.283   7
   5   8   1 4500.43 1021.80   4
   5   8   1 5496.52 1235.15  13
   5   8   1 5366.69 1226.12   7
   5   8   2 1406.90 789.558   4
   5   8   2 2324.69 888.973  13
   5   8   3 3624.68 941.954   4
   5   8   3 3213.25 1061.46  13
   5   8   4 1613.71 761.302   4
   5   8   4 925.683 788.343  13
   5   8   5 2502.27 1685.05   6
   5   8   5 1705.21 803.101   4
   5   8   5 2032.74 862.621  13
   5   8   6-942.678 1496.90   6
  -5   8  -6 729.076 946.634  10
   5   8   6-623.288 456.481   4
   5   8   6 1639.76 971.679  13
   5  -8   6 415.112 742.858  14
   5  -8   7 14140.4 2110.24  14
   5  -8   8-693.098 697.369  14
   5  -8   9 3900.17 1193.72  14
   5  -8  10 103.683 452.246  14
   5  -8  11 473.378 500.255  14
  -5  -9  15-720.702 451.068  14
   5   9 -15 386.833 1012.02  12
  -5  -9  14 1107.09 630.650  14
   5   9 -14 4821.92 2236.73  12
   5   9 -13-662.363 882.358   9
  -5  -9  13-781.265 678.347  14
   5   9 -12 1299.39 931.946   9
  -5  -9  12 3766.16 1170.36  14
   5   9 -11 5217.77 1717.94   9
   5   9 -10 405.477 894.733   9
   5   9 -10-447.101 655.884   3
   5   9  -9 3692.13 1562.02   9
   5   9  -9-1280.83 1186.19   3
   5   9  -8 1947.58 1022.52   3
   5   9  -7 2265.16 1207.31   3
   5   9  -6 2269.64 974.832   3
   5   9  -5 11031.0 1571.71   3
   5  -9  -4 3769.22 970.582   3
   5   9  -4 5111.26 1044.97   3
   5   9  -4 5464.71 1444.52   7
   5  -9  -3 3912.74 976.546   3
   5   9  -3 4375.77 1345.26   7
   5   9  -2 35427.4 2628.01  13
   5   9  -2 38076.9 3185.61   7
   5   9  -1 25817.2 2268.86  13
   5   9  -1 23312.2 2491.69   7
   5   9   0 1891.63 887.355   7
   5   9   0 2398.75 892.149  13
   5   9   1 14903.2 1791.51   4
   5   9   1 14283.9 1765.01  13
   5   9   1 11575.8 1901.77   7
   5   9   2 36565.9 2738.74   4
   5   9   2 33424.6 2788.01  13
   5   9   3 1920.47 747.501   4
   5   9   3 2391.66 976.033  13
   5   9   4 12071.9 1762.09   4
   5   9   4 12088.6 1950.64  13
   5   9   5 1702.91 1302.40   6
  -5   9  -5 595.625 892.679  10
   5   9   5 99.8886 491.961   4
   5  -9   5 554.754 622.427  14
   5   9   5 653.483 777.567  13
   5   9   6-852.552 1374.94   6
  -5   9  -6 1039.52 855.879  10
   5   9   6 901.339 578.188   4
   5  -9   6 857.423 677.657  14
   5   9   6 1482.65 1011.98  13
  -5   9  -7-1488.12 1182.96  10
   5  -9   7-232.799 710.010  14
   5  -9   8 406.254 503.436  14
   5  -9   9 1384.92 851.045  14
   5  -9  10 2321.34 858.886  14
   5  -9  11 87.6101 414.958  14
  -5 -10  14 1212.50 563.784  14
   5  10 -14 3181.39 2017.15  12
   5  10 -13-1062.46 886.673   9
  -5 -10  13-319.273 527.541  14
   5  10 -12 2403.18 1205.78   9
  -5 -10  12 78.7946 516.165  14
   5  10 -11 312.994 672.151   9
   5  10 -10 508.313 801.969   9
   5  10 -10 100.997 704.649   3
   5  10  -9 931.481 1095.11   9
   5  10  -9 1472.10 1053.93   3
   5  10  -8 20418.5 3058.53   9
   5  10  -8 22225.5 2664.26   3
   5  10  -7 1639.66 823.402   3
   5  10  -6 42418.9 3197.99   3
   5  10  -5 2083.66 875.015   3
   5  10  -5 427.286 1356.33   7
   5  10  -4 44680.0 3862.07   7
   5 -10  -3 297.839 487.012   3
   5  10  -3 1023.20 904.011   7
   5  10  -2 15784.4 1843.29  13
   5  10  -2 16830.2 2226.48   7
   5  10  -1 1510.33 715.112  13
   5  10  -1 2819.76 1135.90   7
   5  10   0 4271.29 1054.80  13
   5  10   0 5023.14 1388.34   7
   5  10   1-16.1279 732.817  13
   5  10   1 661.513 977.070   7
   5  10   2 5819.08 1237.06   4
   5  10   2 2125.52 813.180  13
   5  10   3-672.505 741.426   4
   5  10   3 235.300 706.447  13
   5  10   4 18840.9 2183.71   4
   5  10   4 18307.6 2320.01  13
   5  10   5 821.192 1345.26   6
  -5  10  -5-628.609 1167.71  10
   5  10   5 66.5685 502.064   4
   5 -10   5-641.028 641.881  14
   5  10   5 276.506 704.453  13
   5  10   6 29882.8 3999.83   6
   5  10   6 24787.9 2629.31   4
   5 -10   6 23253.8 2587.75  14
   5  10   6 26734.1 3058.22  13
  -5  10  -6 26604.6 3478.38  10
  -5  10  -7-839.871 913.804  10
   5 -10   7 164.907 521.104  14
  -5  10  -8 1705.72 1107.07  10
   5 -10   8 1424.97 675.540  14
   5 -10   9 1476.38 870.813  14
   5 -10  10 77.5353 456.089  14
   5 -10  11 745.769 510.440  14
  -5 -11  14-693.599 535.509  14
   5  11 -14 2684.94 1843.54  12
   5  11 -13 1976.04 897.111   9
  -5 -11  13 1482.37 687.268  14
   5  11 -13 4319.32 2592.82  12
   5  11 -12 1234.79 1037.12   9
  -5 -11  12 1143.72 906.699  14
   5  11 -11 3259.37 1452.09   9
  -5 -11  11 5017.74 1258.46  14
   5  11 -10-404.733 1212.93   9
   5  11  -9 7747.96 1953.25   9
   5  11  -9 8143.59 1732.80   3
   5  11  -8 5166.90 1758.22   9
   5  11  -8 3867.47 1088.76   3
   5  11  -7 1316.91 721.510   3
   5  11  -6 3612.78 1281.67   7
   5  11  -6 4737.56 1326.45   3
   5  11  -5 411.952 1028.33   7
   5  11  -4 26224.4 3086.92   7
   5  11  -3 5633.07 1633.07   7
   5  11  -2-67.1806 1018.24   7
   5  11  -1 50630.1 3944.53   7
   5  11  -1 52380.9 3363.68  13
   5  11   0 746.429 764.279  13
   5  11   0 1277.53 1005.02   7
   5  11   1 30226.6 2708.59  13
   5  11   1 30866.2 3283.32   7
   5  11   2 15111.4 2011.38   4
   5  11   2 16263.3 2115.93  13
   5  11   3 5385.66 1248.42   4
   5  11   3 6632.90 1488.07  13
   5  11   4 16768.2 2114.49   4
  -5  11  -4 20063.6 2900.68  10
   5  11   4 16644.3 2259.43  13
   5  11   5 834.998 1581.47   6
  -5  11  -5-226.372 768.762  10
   5  11   5-329.586 574.634   4
   5  11   5-2.63844 690.579  13
   5  11   6 2293.37 1436.25   6
  -5  11  -6 1368.02 1279.68  10
   5  11   6 2571.82 973.659   4
   5 -11   6 721.130 599.462  14
   5  11   7-757.047 1517.78   6
  -5  11  -7 406.607 698.051  10
   5 -11   7 190.467 636.423  14
  -5  11  -8 1714.32 1132.38  10
   5 -11   8 116.058 486.510  14
  -5  11  -9 494.013 578.503  10
   5 -11   9 1977.52 798.940  14
   5 -11  10 1108.09 565.176  14
  -5 -12  14-475.803 470.832  14
   5  12 -14 1636.34 1538.24  12
   5  12 -13-473.702 848.783   9
  -5 -12  13 923.408 624.900  14
   5  12 -13-622.136 1338.05  12
   5  12 -12-887.917 958.910   9
  -5 -12  12 2289.33 863.145  14
   5  12 -12 2567.44 2246.39  12
   5  12 -11 5267.36 1690.58   9
  -5 -12  11 5509.79 1351.90  14
   5  12 -11 7519.36 3552.95  12
   5  12 -10 1730.66 1209.59   9
   5  12 -10 5561.25 2842.49  12
   5  12  -9 14747.2 2711.08   9
   5  12  -9 14150.7 2090.15   3
   5  12  -9 17294.3 5194.83  12
   5  12  -8 608.219 1093.10   9
   5  12  -8 1481.18 983.557   3
   5  12  -8 1431.17 1877.73  12
   5  12  -7 6515.65 1948.59   7
   5  12  -7 5799.71 1851.43   9
   5  12  -7 4759.56 1289.63   3
   5  12  -6-1143.11 1468.70   7
   5  12  -5 578.153 1040.14   7
   5  12  -4-749.358 1149.03   7
   5  12  -3 7535.03 1810.94   7
   5  12  -2-351.439 1346.36   7
   5  12  -1 1240.45 934.383   7
   5  12   0 8880.05 1472.47  13
   5  12   0 6705.90 1732.69   7
   5  12   1 645.817 680.959  13
   5  12   1 2363.38 1461.07   7
   5  12   2 15395.4 2056.20   4
   5  12   2 15755.4 2082.50  13
   5  12   3 2183.19 1038.81   4
   5  12   3 2959.96 1088.55  13
   5  12   4-636.470 1234.61   6
  -5  12  -4 1339.92 1250.17  10
   5  12   4-289.676 595.722   4
   5  12   4 747.686 1558.37   8
   5  12   4-256.449 742.437  13
   5  12   5 732.357 1569.40   6
  -5  12  -5 1002.45 682.914  10
   5  12   5 900.245 940.281   4
   5  12   5 465.375 642.188  13
   5  12   6-172.547 1538.67   6
  -5  12  -6 465.851 714.690  10
   5  12   7 9639.24 2692.12   6
  -5  12  -7 10204.1 2197.46  10
   5 -12   7 7666.27 1483.08  14
  -5  12  -8 359.726 826.753  10
   5 -12   8 295.415 463.871  14
  -5  12  -9 5926.99 1553.32  10
   5 -12   9 6710.38 1261.81  14
   5 -12  10-441.215 492.287  14
   5  13 -14-394.168 1029.25  12
   5  13 -13 822.323 1703.63  12
   5  13 -12 1448.50 1026.13   9
   5  13 -12 5187.28 2772.90  12
   5  13 -11 5289.52 1682.81   9
   5  13 -11 2240.36 2425.34  12
   5  13 -10-348.562 855.551   9
   5  13 -10 1175.93 1949.95  12
   5  13  -9 281.673 1014.49   9
   5  13  -9 2204.86 2206.05  12
   5  13  -8 3259.09 1345.82   7
   5  13  -8 717.256 936.838   9
   5  13  -8 1366.93 1491.20  12
   5  13  -7 10107.8 2159.43   9
   5  13  -7 12891.5 2708.03   7
   5  13  -6 188.163 1037.49   7
   5  13  -5 46027.0 4482.16   7
   5  13  -4 3327.91 1406.05   7
   5  13  -3 9525.87 2180.56   7
   5  13  -2 7174.26 1650.98   7
   5  13  -1 19567.6 2763.94   7
   5  13   0 6028.99 1758.11   7
   5  13   1 10214.6 1696.59  13
   5  13   1 8481.47 2041.74   7
   5  13   2 16907.7 2248.79   4
   5  13   2 15036.2 2101.26  13
  -5  13  -3 1545.74 1342.39  10
   5  13   3 1751.90 943.973   4
   5  13   3 4490.10 2448.30   8
   5  13   3 2081.20 1048.63  13
  -5  13  -4 3507.42 1497.02  10
   5  13   4 4142.58 1186.83   4
   5  13   4 5722.99 2566.80   8
   5  13   4 2309.93 1088.73  13
   5  13   5 3355.09 1817.81   6
  -5  13  -5 2837.74 1323.52  10
   5  13   5 3161.21 1073.20   4
   5  13   5 1101.74 640.364  13
   5  13   6 3171.14 2016.31   6
  -5  13  -6 2910.71 1413.07  10
   5  13   7-2516.23 1654.15   6
  -5  13  -7 407.948 1118.02  10
  -5  13  -8-2170.47 1090.02  10
  -5  13  -9 3289.79 1199.81  10
   5  13  10 876.355 438.411  15
   5  14 -14 1167.32 1451.73  12
   5  14 -13-507.925 1477.80  12
   5  14 -12-28.6082 656.189   9
   5  14 -12-1092.50 1641.39  12
   5  14 -11 963.553 1044.42   9
   5  14 -11 2061.02 1911.53  12
   5  14 -10 163.366 805.379   9
   5  14 -10-144.945 1782.88  12
   5  14  -9 1217.31 883.868   9
   5  14  -9 1769.77 2039.98  12
   5  14  -8 8692.90 2096.21   9
   5  14  -8 14545.4 4127.64  12
   5  14  -8 15554.0 3051.73   7
   5  14  -7-2404.36 1265.17   9
   5  14  -7 33.3554 2518.51  12
   5  14  -7 1851.08 1398.12   7
   5  14  -6 17860.2 2830.16   9
  -5  14   6 21746.1 3459.26  11
   5  14  -6 20706.8 3184.54   7
   5  14  -5-457.223 1091.53   7
   5  14  -4 23241.9 3265.92   7
   5  14  -3-623.737 1276.32   7
   5  14  -2 5133.81 1532.60   7
   5  14  -1-2256.88 1425.93   7
   5  14   0 1384.94 1434.78   7
   5  14   1 4525.05 1727.70   7
  -5  14  -2-109.943 807.496  10
   5  14   2 2581.88 1627.06   8
   5  14   2 1780.81 1010.48  13
   5  14   2 549.390 613.363  15
   5  14   3-504.314 870.567   4
   5  14   3-314.889 1571.87   8
   5  14   3-1769.06 927.167  13
   5  14   3 125.959 731.246  15
  -5  14  -4 14045.5 2789.11  10
   5  14   4 12870.2 2043.26   4
   5  14   4 9341.59 2832.83   8
   5  14   4 12002.5 2078.54  13
   5  14   5 1408.39 1408.03   6
  -5  14  -5 712.221 1131.73  10
   5  14   6 12943.9 2864.60   6
  -5  14  -6 12988.1 2587.87  10
   5  14   7-60.5986 1091.94   6
  -5  14  -7 701.318 720.647  10
  -5  14  -8 1274.79 824.904  10
  -5  14  -9 1168.56 990.597  10
   5  14   9 376.961 412.777  15
   5  15 -13-143.718 1317.19  12
   5  15 -12 1210.84 1406.25   9
   5  15 -12 1176.59 1643.13  12
   5  15 -11 6065.18 1649.67   9
   5  15 -11 11043.9 3818.10  12
   5  15 -10-407.796 794.872   9
   5  15 -10-887.295 1707.45  12
   5  15  -9 10798.9 2373.42   9
   5  15  -9 7317.70 3214.81  12
   5  15  -8-139.732 738.021   9
   5  15  -8 1502.24 2072.78  12
   5  15  -7 1545.19 1234.27   9
   5  15  -7 1190.06 2333.09  12
  -5  15   7-1354.01 1240.26  11
   5  15  -7-1059.79 1410.16   7
   5  15  -6-1161.54 955.556   9
   5  15  -6-22.0811 2404.82  12
  -5  15   6 1611.17 1557.13  11
   5  15  -6 3186.83 1607.74   7
   5  15  -5 1248.27 1285.95   9
   5  15  -5-2701.74 3106.17  12
   5  15  -5 188.008 1288.58   7
  -5  15   5 434.820 874.352  10
   5  15  -4 29738.8 3670.43   7
   5  15  -3 7107.78 2048.24   7
   5  15  -2 2782.43 1554.17   7
   5  15  -1 24192.9 3465.88   7
  -5  15   0 252.823 1120.60  10
   5  15   0 1631.23 982.499  15
   5  15   0 3450.22 2078.75   8
   5  15   0 2588.10 1305.71   7
  -5  15  -1 13002.5 2547.06  10
   5  15   1 10830.8 1866.86  15
   5  15   1 7552.24 2818.52   8
   5  15   1 13954.0 2728.26   7
  -5  15  -2 15349.2 2808.38  10
   5  15   2 15286.4 3523.96   8
   5  15   2 16658.1 2390.29  15
  -5  15  -3 924.651 1063.11  10
   5  15   3 3362.29 2144.84   8
   5  15   3 1028.50 730.598  15
   5  15   3 3497.69 1126.14  13
   5  15   4 3616.30 1283.96  13
  -5  15  -4 4562.25 1741.48  10
   5  15   4 3588.91 1339.67   4
   5  15   4 3690.71 2318.04   8
   5  15   4 2349.98 1016.91  15
   5  15   5 5571.30 2220.04   6
  -5  15  -5 3515.93 1673.26  10
   5  15   5 2006.73 939.940  15
   5  15   5 4606.45 2344.57   8
   5  15   6-280.869 1078.16   6
  -5  15  -6 556.589 908.735  10
   5  15   6-174.045 730.704  15
   5  15   7-211.730 1256.50   6
  -5  15  -7 1239.01 937.031  10
   5  15   7-1715.93 956.572  15
  -5  15  -8-111.292 884.799  10
   5  15   8 1109.37 615.682  15
  -5  15  -9 1654.30 909.202  10
   5  15   9 1093.30 558.058  15
   5  16 -13-254.531 1133.77  12
   5  16 -12 347.388 575.986   9
   5  16 -12-4034.76 2063.21  12
   5  16 -11 2687.93 1045.97   9
   5  16 -11 2422.36 2571.46  12
   5  16 -10 1164.90 703.936   9
   5  16 -10 1608.97 2250.13  12
   5  16  -9 10457.0 2269.97   9
   5  16  -9 12708.8 4167.95  12
   5  16  -8 581.553 963.855   9
  -5  16   8-45.1663 898.027  11
   5  16  -7 1421.92 1580.66  12
  -5  16   7 2401.13 1330.49  11
   5  16  -6-808.058 832.047   9
   5  16  -6-1669.21 2028.28  12
  -5  16   6 1088.90 1130.03  11
   5  16  -6 1985.66 1431.26   7
   5  16  -5 3196.99 1446.16   9
   5  16  -5 2810.30 2350.81  12
   5  16  -5 1428.13 1460.20   7
  -5  16   5 2568.83 1288.43  10
   5  16  -4 1430.57 2244.78  12
   5  16  -4 2763.96 1646.78   7
  -5  16   4 2946.80 1610.98  10
  -5  16   3 7685.30 2084.50  10
   5  16  -3 12053.1 2915.38   8
   5  16  -3 8971.53 3701.42  12
   5  16  -3 8030.99 2187.25   7
  -5  16   2 5029.16 1777.62  10
   5  16  -2 6248.45 2407.20   8
   5  16  -2 8588.11 2254.44   7
  -5  16   1 7511.94 1867.60  10
   5  16  -1 6280.40 1580.78  15
   5  16  -1 8180.56 3047.45   8
   5  16  -1 12106.6 3291.62  12
   5  16  -1 6249.21 1864.39   7
  -5  16   0 2899.44 1443.35  10
   5  16   0 4706.31 1202.70  15
   5  16   0 3407.82 2230.67   8
   5  16   0 7020.45 2238.46   7
  -5  16  -1 233.072 841.215  10
   5  16   1-318.836 893.016  15
   5  16   1-174.396 1528.83   8
  -5  16  -2 1329.54 1003.99  10
   5  16   2-305.165 712.602  15
   5  16   2 948.469 1733.77   8
  -5  16  -3 587.692 950.814  10
   5  16   3-336.940 1376.50   8
   5  16   3 1180.88 852.131  15
  -5  16  -4 747.392 964.874  10
   5  16   4 950.657 593.846  15
   5  16   4 234.117 1161.98   8
   5  16   5 3768.99 1613.93   6
  -5  16  -5 1042.72 1024.89  10
   5  16   5-195.191 645.806  15
   5  16   5 967.497 1713.18   8
   5  16   6 788.039 1421.60   6
  -5  16  -6-52.7927 760.349  10
   5  16   6 762.153 668.065  15
   5  16   7 11928.9 2653.43   6
  -5  16  -7 14406.7 2545.40  10
   5  16   7 12967.7 1883.44  15
  -5  16  -8 143.098 606.555  10
   5  16   8 1406.35 697.789  15
  -5  16  -9 3526.85 1078.80  10
   5  17 -13 3292.23 1693.80  12
   5  17 -12-1437.80 1371.29  12
   5  17 -11 429.575 779.355   9
   5  17 -11-308.975 1258.36  12
   5  17 -10 172.364 644.250   9
   5  17 -10 2262.29 1929.47  12
   5  17  -9 6605.81 1833.98   9
   5  17  -9 5277.72 3056.08  12
   5  17  -8 457.747 932.546   9
   5  17  -8 1505.73 2185.23  12
  -5  17   8 924.740 1372.32  11
   5  17  -7-110.398 751.608   9
   5  17  -7 1683.89 2135.15  12
  -5  17   7-842.952 1216.87  11
   5  17  -6 341.346 818.403   9
   5  17  -6 1419.98 2595.77  12
  -5  17   6 51.5502 999.215  11
   5  17  -6-1228.14 1308.73   7
   5  17  -5 8062.49 3342.66  12
   5  17  -5 8912.68 2352.34   7
  -5  17   5 8197.77 2337.02  11
   5  17  -4 1338.48 1675.85  12
   5  17  -4-1302.34 1625.64   7
  -5  17   4 761.909 836.614  10
  -5  17   3 535.922 968.376  10
   5  17  -3 2367.93 1844.44   8
   5  17  -3 2272.62 2867.02  12
   5  17  -3 2953.03 1886.74   7
  -5  17   2 1542.28 1281.60  10
   5  17  -2-1212.95 2112.09  12
   5  17  -2-94.5751 1489.15   8
   5  17  -2 387.621 1137.52   7
  -5  17   1 4178.19 1882.83  10
   5  17  -1 1018.81 2103.60  12
   5  17  -1 4042.57 1946.56   8
   5  17  -1 2136.59 1208.20  15
   5  17  -1 4070.99 1875.62   7
  -5  17   0 2957.14 1601.25  10
   5  17   0 3841.68 1287.68  15
   5  17   0 3391.59 2654.29   8
   5  17   0 3819.73 1537.35   7
  -5  17  -1 12485.4 2504.51  10
   5  17   1 14505.6 2225.90  15
   5  17   1 18932.1 4082.39   8
  -5  17  -2 5335.27 1936.02  10
   5  17   2 5850.41 1417.06  15
   5  17   2 4202.87 2257.24   8
  -5  17  -3 816.775 1013.58  10
   5  17   3 1998.76 1861.20   8
   5  17   3-309.920 542.322  15
  -5  17  -4 2541.50 1392.40  10
   5  17   4 1670.03 877.167  15
   5  17   4 1629.51 1765.75   8
   5  17   5 2336.69 1642.31   6
  -5  17  -5-286.803 907.111  10
   5  17   5 1747.91 1702.57   8
   5  17   5 1074.22 530.074  15
   5  17   6 10638.2 2510.32   6
  -5  17  -6 8606.72 2148.30  10
   5  17   6 8979.23 1702.13  15
  -5  17  -7 681.573 882.138  10
   5  17   7 695.857 605.818  15
  -5  17  -8-163.086 580.967  10
  -5  17  -9 1854.21 891.021  10
   5  18 -12-690.586 1298.41  12
   5  18 -11-688.730 841.459   9
   5  18 -11-103.890 1337.75  12
   5  18 -10 1538.17 956.589   9
   5  18 -10-308.915 1710.01  12
   5  18  -9 4165.19 1383.90   9
   5  18  -9 984.117 1751.81  12
   5  18  -8 3762.95 1420.54   9
   5  18  -8 1510.13 2117.45  12
  -5  18   8 3704.71 1619.84  11
   5  18  -7 831.622 1168.65   9
   5  18  -7 3882.25 2734.43  12
  -5  18   7 272.494 1107.91  11
   5  18  -6 18828.4 4977.62  12
  -5  18   6 14330.0 3342.92  11
   5  18  -5-2596.83 2338.88  12
  -5  18   5-1665.25 1225.92  11
   5  18  -4 5615.38 1963.72   7
  -5  18   4 8577.63 2087.26  10
   5  18  -3-688.227 1421.64   8
   5  18  -3 143.176 1688.89  12
   5  18  -3-1990.95 1551.72   7
  -5  18   3-227.685 779.934  10
  -5  18   2 762.270 763.935  10
   5  18  -2 1771.02 1871.06   8
   5  18  -2 3079.18 2770.08  12
   5  18  -2 2769.74 1700.15   7
  -5  18   1-238.731 1068.32  10
   5  18  -1 1898.82 1825.77   8
   5  18  -1 2341.45 1399.22   7
  -5  18   0 2435.74 1424.72  10
   5  18   0-427.362 1495.32   8
   5  18   0 2030.17 1066.57  15
   5  18   0 1380.32 1132.35   7
  -5  18  -1 1690.56 1161.73  10
   5  18   1 255.319 2070.09   8
   5  18   1 1299.24 835.001  15
  -5  18  -2 851.707 1261.71  10
   5  18   2 1349.23 959.683  15
   5  18   2 1727.58 1926.44   8
  -5  18  -3 837.477 992.033  10
   5  18   3 284.127 1858.00   8
   5  18   3 460.536 666.688  15
  -5  18  -4 3229.54 1550.49  10
   5  18   4 2607.33 1011.13  15
   5  18   4 3383.30 2264.79   8
  -5  18  -5 2006.46 1327.80  10
   5  18   5 613.459 805.147  15
   5  18   5 4091.95 2231.31   8
   5  18   6 4610.66 1627.56   6
  -5  18  -6 4934.11 1588.32  10
   5  18   6 3448.79 1027.71  15
  -5  18  -7-1240.51 880.988  10
   5  18   7-591.668 590.270  15
  -5  18  -8-493.013 587.005  10
   5  19 -12-480.916 1271.16  12
   5  19 -11 530.970 492.973   9
   5  19 -11 38.4040 1537.34  12
   5  19 -10 502.962 580.840   9
   5  19 -10-3858.01 2133.06  12
   5  19  -9 465.131 1484.49  12
   5  19  -8-3855.53 2382.75  12
  -5  19   8 2736.98 1496.42  11
   5  19  -7-7348.85 3175.18  12
  -5  19   7-31.2931 937.544  11
   5  19  -6-722.737 1514.03  12
  -5  19   6 1383.37 1272.89  11
   5  19  -5 708.306 1804.79  12
  -5  19   5 656.497 1251.70  11
   5  19  -4 5079.21 3185.69  12
   5  19  -3 4724.40 2405.51   8
   5  19  -3 6311.26 3355.21  12
  -5  19   3 6903.66 2053.11  10
  -5  19   2 1989.58 1421.72  10
   5  19  -2 2151.39 1847.42   8
   5  19  -2 5940.35 3626.72  12
  -5  19   1 6474.97 2038.45  10
   5  19  -1 9825.09 3146.02   8
  -5  19   0 3662.64 1709.69  10
   5  19   0 1521.21 1795.89   8
   5  19   1 17153.7 4235.00   8
   5  19   1 26706.1 2962.85  15
  -5  19  -1 28079.7 3827.58  10
  -5  19  -2 4842.95 1677.15  10
   5  19   2 4340.71 2325.68   8
   5  19   2 5942.79 1495.07  15
  -5  19  -3 138.192 806.785  10
   5  19   3 1487.37 1958.69   8
   5  19   3 393.213 632.357  15
  -5  19  -4 611.164 953.127  10
   5  19   4-1847.29 851.242  15
   5  19   4 2098.61 1952.36   8
  -5  19  -5 77.4705 811.807  10
   5  19   5 2057.19 2192.31   8
   5  19   5-39.6337 586.242  15
  -5  19  -6 1077.09 1001.18  10
   5  19   6 550.673 658.307  15
  -5  19  -7 684.703 934.464  10
  -5  19  -8 1215.08 810.817  10
   5  20 -11 4125.35 2046.62  12
   5  20 -10-1405.62 1598.37  12
   5  20  -9-2403.35 1994.29  12
   5  20  -8-3296.78 2248.54  12
   5  20  -7 2244.24 2208.98  12
  -5  20   7 3423.90 1782.78  11
   5  20  -6 205.540 1955.31  12
  -5  20   6 16.1751 950.282  11
   5  20  -5 1867.57 1755.01  12
  -5  20   5-67.4090 1119.57  11
   5  20  -4 2373.47 2768.58  12
  -5  20   4-5249.96 1922.02  11
   5  20  -3 2405.05 1899.64   8
   5  20  -3 6359.60 3339.28  12
  -5  20   3 2364.69 1498.74  10
  -5  20   2 1661.06 1164.66  10
   5  20  -2-830.103 1815.96   8
  -5  20   1-594.490 879.881  10
   5  20  -1 1748.79 1505.04   8
  -5  20   0-200.833 819.208  10
   5  20   0 803.019 1269.31   8
  -5  20  -1 1094.88 1055.23  10
   5  20   1 3144.60 1764.12   8
  -5  20  -2 1576.70 1284.41  10
   5  20   2 211.328 544.083  15
   5  20   2 1287.47 1808.87   8
  -5  20  -3 319.040 1042.01  10
   5  20   3 886.302 758.739  15
   5  20   3-479.445 1263.82   8
  -5  20  -4-1339.46 1048.60  10
   5  20   4 1114.98 1443.99   8
   5  20   4 735.369 575.081  15
  -5  20  -5-2404.09 1154.06  10
   5  20   5 444.962 530.200  15
  -5  20  -6 3635.77 1360.80  10
  -5  20  -7 9454.49 1819.22  10
  -5  20  -8 903.061 693.469  10
   5  21 -11-456.081 918.736  12
   5  21 -10 2654.15 2061.26  12
   5  21  -9 1373.47 1986.86  12
   5  21  -8 1252.36 1594.35  12
  -5  21   7 1893.48 1538.56   8
   5  21  -7-912.453 1628.29  12
  -5  21   7 1661.36 1472.69  11
   5  21  -6 1759.19 2075.61  12
  -5  21   6-1470.59 1174.83  11
   5  21  -5 471.397 1485.33  12
  -5  21   5 545.565 1202.79  11
   5  21  -4 3860.02 2791.92  12
  -5  21   4 748.416 946.936  11
   5  21  -3-1488.26 1562.22   8
   5  21  -3 2059.94 2739.83  12
   5  21  -2 4253.84 2080.95   8
  -5  21   2 2354.67 1196.61  10
  -5  21   1-1075.11 871.306  10
   5  21  -1 2672.48 1876.78   8
  -5  21   0 497.461 975.065  10
   5  21   0 2149.82 1890.88   8
  -5  21  -1 4236.52 1559.53  10
   5  21   1 1069.34 1755.51   8
  -5  21  -2 6200.03 1819.60  10
   5  21   2 5588.69 2381.56   8
  -5  21  -3 149.646 963.884  10
   5  21   3 393.788 1245.97   8
  -5  21  -4 311.300 1125.94  10
   5  21   4 2935.06 1857.41   8
  -5  21  -5 39.2844 724.670  10
  -5  21  -6 4131.72 1289.90  10
  -5  21  -7 770.275 674.586  10
   5  22 -10 1385.68 1494.06  12
   5  22  -9-2101.48 1523.63  12
   5  22  -8-1301.54 1620.11  12
  -5  22   7 38.3903 914.113   8
   5  22  -7 93.1979 1472.81  12
  -5  22   7-372.100 964.193  11
  -5  22   6 19513.9 3511.55   8
   5  22  -6 19572.7 5015.23  12
  -5  22   6 14063.8 2862.47  11
   5  22  -5 370.859 1712.67  12
  -5  22   5-419.809 983.852  11
   5  22  -4 12850.0 4328.67  12
  -5  22   4 10199.2 2691.77  11
   5  22  -3 1929.41 1770.37   8
   5  22  -3 922.149 2193.23  12
  -5  22   3-723.000 1405.72  11
   5  22  -2 1226.65 1546.86   8
  -5  22   1 2756.62 1267.57  10
   5  22  -1 824.025 1379.99   8
  -5  22   0 17.7398 863.109  10
   5  22   0 2213.03 1965.81   8
  -5  22  -1-139.594 879.704  10
   5  22   1-16.7619 1186.35   8
  -5  22  -2 448.416 944.726  10
   5  22   2 842.098 1684.00   8
  -5  22  -3 2178.40 1183.06  10
   5  22   3 1611.59 1760.07   8
  -5  22  -4 6191.25 1789.18  10
   5  22   4 7615.65 2488.93   8
  -5  22  -5-83.5909 649.896  10
  -5  22  -6 2515.67 1008.85  10
   5  23  -9 2508.65 1900.01  12
   5  23  -8 2315.51 1737.17  12
  -5  23   7 647.936 1004.69   8
   5  23  -7 1476.11 1782.41  12
  -5  23   6 544.718 1081.88   8
   5  23  -6-259.109 1880.65  12
  -5  23   6 323.204 1005.93  11
   5  23  -5 2232.05 2005.07  12
  -5  23   5 2667.46 1396.65   8
  -5  23   5 899.601 1181.94  11
   5  23  -4 3393.28 2689.34  12
  -5  23   4 2263.36 1525.54  11
   5  23  -3 7551.59 2574.54   8
  -5  23   3 2176.03 1548.85  11
   5  23  -2 2621.58 2247.52   8
   5  23  -1-41.9569 1171.81   8
  -5  23   1 3598.43 1242.33  10
  -5  23   0 1200.34 1017.58  10
   5  23   0 341.672 1286.43   8
  -5  23  -1 7677.75 1858.65  10
   5  23   1 10131.0 3130.78   8
  -5  23  -2-291.552 928.698  10
   5  23   2 2708.08 1843.27   8
  -5  23  -3 428.702 697.153  10
   5  23   3 1174.35 1220.60   8
  -5  23  -4 712.884 662.683  10
   5  23   4 3581.28 1876.11   8
  -5  23  -5 11.0037 570.710  10
  -5  23  -6 601.463 505.781  10
   5  24  -9-184.199 912.690  12
   5  24  -8-68.6422 1186.41  12
  -5  24   7 878.036 880.876   8
   5  24  -7 878.641 1484.36  12
  -5  24   6 266.343 965.317   8
   5  24  -6 868.852 2162.31  12
  -5  24   6-754.819 909.491  11
  -5  24   5 331.232 935.992   8
   5  24  -5 1489.87 2033.66  12
  -5  24   5 426.697 757.281  11
  -5  24   4 1699.88 1448.47   8
  -5  24   4 1010.37 1067.41  11
   5  24  -3 963.850 1005.28   8
  -5  24   3 256.042 1051.16  11
   5  24  -2 4103.49 1862.13   8
  -5  24   2 123.132 1036.84  11
   5  24  -1 1119.58 1860.95   8
   5  24   0 1399.61 1546.76   8
  -5  24   0-447.020 635.955  10
  -5  24  -1 842.877 701.156  10
   5  24   1 1005.13 1445.15   8
  -5  24  -2-1156.45 820.899  10
   5  24   2-465.636 1192.57   8
  -5  24  -3 173.569 566.334  10
   5  24   3 1761.09 1472.11   8
  -5  24  -4-900.315 665.521  10
  -5  24  -5-978.328 645.014  10
   5  25  -8 144.837 1149.74  12
   5  25  -7 846.412 1089.45  12
  -5  25   6-570.136 1025.95   8
   5  25  -6 368.126 1304.19  12
  -5  25   5-381.974 1153.97   8
  -5  25   5 669.116 884.599  11
  -5  25   4 184.375 1246.39   8
  -5  25   4 1551.15 1161.74  11
   5  25  -3 2831.05 1637.50   8
  -5  25   3 1660.15 1315.76   8
  -5  25   3-451.999 991.300  11
   5  25  -2 2950.30 1571.17   8
  -5  25   2 2477.51 1586.54   8
  -5  25   2 92.2748 775.434  11
   5  25  -1 894.022 1342.94   8
  -5  25   1 1500.05 1509.96   8
  -5  25   1 120.323 1254.37  11
   5  25   0 880.651 1296.64   8
  -5  25   0 1925.76 1379.24   8
   5  25   1 122.433 1037.50   8
  -5  25  -1-2519.18 1228.82   8
  -5  25  -1-763.834 696.269  10
  -5  25  -2 1036.19 727.867  10
   5  25   2-394.112 1068.46   8
  -5  25  -3 370.945 594.356  10
   5  25   3 1882.31 1304.05   8
  -5  25  -4-594.056 628.544  10
  -5  26   6 6118.36 1614.78   8
  -5  26   5-1579.00 1078.67   8
  -5  26   5 1066.17 1092.50  11
  -5  26   4 1374.97 1042.99   8
  -5  26   4 2623.22 1208.54  11
  -5  26   3-657.717 1060.32   8
  -5  26   3 576.864 849.793  11
   5  26  -2-236.907 1017.94   8
  -5  26   2 819.755 1217.56   8
  -5  26   2-507.000 756.346  11
   5  26  -1 259.080 1332.37   8
  -5  26   1 379.572 899.392   8
  -5  26   1-693.378 1055.09  11
   5  26   0 376.728 1428.33   8
  -5  26   0-1425.95 1101.95   8
  -5  26   0-157.897 738.186  11
   5  26   1 2772.08 1553.79   8
  -5  26  -1 2305.39 1189.26   8
  -5  26  -1 189.896 769.180  11
   5  26   2 1877.92 1414.35   8
  -5  26  -2 1044.20 654.879  11
  -5  27   5 621.908 943.419   8
  -5  27   4-754.058 1088.30   8
  -5  27   4 420.713 847.729  11
  -5  27   3 3655.05 1434.77   8
  -5  27   3 5160.44 1498.40  11
  -5  27   2 266.773 851.693   8
  -5  27   2-69.2904 808.743  11
   5  27  -1 1786.11 1363.73   8
  -5  27   1-349.785 849.576   8
  -5  27   1-464.659 791.901  11
   5  27   0 694.269 1028.38   8
  -5  27   0 408.209 1073.53   8
  -5  27   0-818.449 867.185  11
  -5  27  -1 2155.41 910.019  11
  -6   0  15 29.5582 385.064  14
  -6   0  14 2902.28 965.253  14
   6   0 -13-978.965 917.984   5
   6   0 -12 9469.63 1861.06   5
   6   0 -11 848.765 871.681   5
   6   0 -11 43.0079 618.151   3
   6   0 -10-256.435 692.494   3
   6   0 -10-1082.99 799.757   5
   6   0  -9 936.573 951.376   3
   6   0  -8 22757.6 2568.02   3
   6   0  -7 1746.27 936.153   3
   6   0  -6 38622.3 3111.16   3
   6   0  -5 354.520 686.187   3
   6   0  -4 21157.5 2179.60   3
   6   0  -3 926.856 771.485   3
   6   0  -2-222.589 727.876   3
   6   0  -1 955.697 703.227  13
   6   0   0 66664.1 3737.17  13
   6   0   1 32.7533 700.200  13
   6   0   2 57497.6 3650.17  13
   6   0   3-147.442 593.513  13
   6   0   4 1478.04 856.505  13
   6   0   5-44.6340 695.046  14
   6   0   5 869.438 844.996  13
   6   0   6 431.358 708.978  14
   6   0   7 2514.68 1194.44  14
   6   0   8 1261.45 733.638  14
   6   0   9 1586.81 774.234  14
   6   0  10 3016.57 1038.23  14
   6   0  11 87.5145 353.553  14
  -6  -1  15 1113.73 636.651  14
  -6   1  15-578.204 431.307  14
  -6   1  14 619.998 600.574  14
  -6  -1  14 564.264 571.511  14
   6  -1 -13 1731.24 909.949   5
   6   1 -13 671.037 739.332   5
   6   1 -12-1299.36 1036.93   9
   6  -1 -12 586.976 859.086   5
   6   1 -12-218.887 791.830   5
   6   1 -11 9336.53 2025.83   9
   6  -1 -11 9828.76 2022.35   5
   6   1 -11 10583.8 2045.24   5
   6   1 -11 10920.1 1955.27   3
   6  -1 -11 8502.21 1726.70   3
   6   1 -10 1574.82 975.006   3
   6  -1 -10 560.016 810.467   3
   6   1 -10 22.1159 810.330   5
   6  -1 -10 2642.98 1323.86   5
   6   1  -9 6378.31 1589.28   3
   6  -1  -9 4324.13 1279.18   3
   6   1  -8 8391.81 1669.64   3
   6  -1  -8 9283.91 1666.51   3
   6   1  -7 245.929 821.892   3
   6  -1  -7 834.408 908.653   3
   6   1  -6 11305.3 1773.69   3
   6  -1  -6 12372.6 1800.84   3
   6   1  -5 5731.64 1242.82   3
   6  -1  -5 7229.91 1349.70   3
   6  -1  -4 4119.63 1083.36   3
   6   1  -4 2991.51 1002.58   3
   6   1  -3 53765.2 3319.43   3
   6  -1  -3 54025.9 3323.24   3
   6   1  -2 285.142 714.279   3
   6  -1  -2-6.88597 604.411   3
   6   1  -1 1084.71 920.056  13
   6   1  -1 540.119 836.964   3
   6  -1   0 2531.25 943.666  13
   6   1   0 1806.93 923.904  13
   6   1   1 8516.40 1440.65  13
   6  -1   1 7873.04 1409.51  13
   6  -1   2 133600. 5436.31  13
   6   1   2 137366. 5569.33  13
   6  -1   3 1184.61 843.208  13
   6   1   3 880.824 782.945  13
   6  -1   4 36653.4 3061.64  13
   6   1   4 39571.9 3281.31  13
   6   1   5 806.383 803.820  14
   6  -1   5 358.607 610.931  13
   6   1   5-1019.41 744.199  13
   6  -1   5 1297.79 934.597  14
   6   1   6 3486.04 1180.81  14
   6   1   6 4327.38 1288.78  13
   6  -1   6 5040.88 1411.48  14
   6  -1   7 18486.6 2435.02  14
   6   1   7 17422.2 2314.39  14
   6  -1   8-250.389 551.156  14
   6   1   8-184.067 796.815  14
   6  -1   9 696.923 712.856  14
   6   1   9 752.112 845.371  14
   6   1  10 956.037 418.649  14
   6  -1  10-348.251 529.742  14
   6  -1  11-24.8925 357.698  14
   6   1  11 782.251 479.670  14
  -6   2  15 941.692 580.846  14
  -6  -2  15 3506.78 900.813  14
  -6  -2  14 94.0304 651.881  14
  -6   2  14-414.763 582.322  14
   6  -2 -13 5358.29 1504.68   5
   6   2 -13 3421.22 1234.49   5
   6   2 -12-118.831 743.702   9
   6  -2 -12 117.129 676.547   5
   6   2 -12-474.322 738.103   5
   6   2 -11 9878.89 2098.84   9
   6  -2 -11 8726.31 1824.66   5
   6   2 -11 12125.5 2150.95   5
   6  -2 -11 7967.45 1522.17   3
   6   2 -10-90.3378 696.593   3
   6  -2 -10 452.020 704.898   3
   6   2 -10 1139.14 1049.40   9
   6  -2 -10 1315.80 995.562   5
   6   2 -10-324.836 750.974   5
   6   2  -9 6359.76 1581.79   3
   6  -2  -9 4459.13 1224.85   3
   6   2  -8 1099.26 844.294   3
   6  -2  -8-826.218 810.203   3
   6  -2  -7 371.848 892.730   3
   6   2  -7 1342.30 1052.66   3
   6   2  -6 1185.93 884.378   3
   6  -2  -6-95.2601 650.210   3
   6   2  -5 69147.5 3993.15   3
   6  -2  -5 72622.1 4056.15   3
   6  -2  -4-214.369 631.354   3
   6   2  -4 449.339 684.800   3
   6   2  -3 49946.9 3201.90   3
   6  -2  -3 51019.8 3236.12   3
   6  -2  -2 2417.54 849.471   3
   6   2  -2 4462.60 1133.28   3
   6   2  -1 137720. 5333.34  13
   6   2  -1 141296. 5149.10   3
   6  -2   0 22973.5 2219.41  13
   6   2   0 26713.7 2377.65  13
   6  -2   1 9504.79 1497.79  13
   6   2   1 9291.83 1523.27  13
   6  -2   2 2885.28 1040.51  13
   6   2   2 2251.48 1022.20  13
   6  -2   3 2436.03 929.406  13
   6   2   3 671.694 619.790  13
   6  -2   4 1234.02 801.549  13
   6   2   4 1576.23 927.318  13
   6  -2   5 2340.09 866.710  14
   6   2   5 296.810 746.510  14
   6   2   5 634.336 722.390  13
   6   2   6 1071.36 778.719  14
   6  -2   6 588.591 1347.93  14
   6   2   6 1133.59 759.016  13
   6   2   7 7912.56 1585.23  14
   6  -2   7 7750.02 1724.73  14
   6   2   8-166.598 594.443  14
   6  -2   8 511.758 620.107  14
   6  -2   9 17332.7 2204.70  14
   6   2   9 16061.3 2062.50  14
   6  -2  10-389.712 590.105  14
   6   2  10 329.804 546.097  14
   6  -2  11 1502.76 558.156  14
   6   2  11 981.172 511.288  14
  -6   3  15 428.716 445.952  14
  -6  -3  15-135.160 454.161  14
  -6   3  14-185.191 566.379  14
  -6  -3  14 592.772 572.098  14
   6   3 -13 2050.09 1087.21   9
   6  -3 -13 3400.69 1228.23   5
   6   3 -13 2254.04 1076.93   5
  -6   3  13 2701.07 963.745  14
   6   3 -12 408.777 668.954   9
   6  -3 -12 586.717 794.876   5
   6   3 -12-179.429 683.501   5
   6   3 -11 6961.84 1752.55   9
   6  -3 -11 5802.51 1540.48   5
   6   3 -11 4665.37 1328.86   5
   6   3 -10 1159.41 752.716   3
   6  -3 -10 981.194 825.102   3
   6   3 -10 1512.13 1150.05   9
   6  -3 -10 2922.15 1187.02   5
   6   3 -10 2227.77 1006.99   5
   6   3  -9 10456.8 1790.89   3
   6  -3  -9 11171.6 1857.36   3
   6   3  -9 9330.05 1750.46   5
   6  -3  -9 11362.8 1991.32   5
   6   3  -8 22688.7 2636.87   3
   6  -3  -8 26045.1 2709.83   3
   6   3  -7 5995.55 1528.30   3
   6  -3  -7 8965.17 1583.81   3
   6   3  -6 5620.10 1430.49   3
   6  -3  -6 5960.01 1334.52   3
   6   3  -5 48328.7 3342.05   3
   6  -3  -5 48164.5 3340.00   3
   6  -3  -4-257.335 716.391   3
   6   3  -4 209.984 629.198   3
   6   3  -3 9209.47 1506.20   3
   6  -3  -3 10877.7 1631.13   3
   6   3  -2 10425.0 1481.76   3
   6  -3  -2 12458.2 1698.67   3
   6   3  -1 11427.3 1677.78  13
   6   3  -1 10497.3 1441.38   3
   6   3   0 1403.82 801.427  13
   6   3   0 2708.14 936.814   3
   6  -3   1 3526.07 999.285  13
   6   3   1 3413.00 1097.79  13
   6  -3   2 56390.7 3555.36  13
   6   3   2 63401.2 3880.61  13
   6  -3   3 2969.76 851.628  13
   6   3   3 7334.80 1934.22  13
   6   3   4 15267.0 2105.50  13
   6   3   5 4101.54 1184.77  14
   6   3   5 2679.92 1005.78  13
   6  -3   5 4149.43 1116.85  14
   6  -3   6 12186.5 2045.94  14
   6   3   6 9550.00 1804.29  13
   6   3   6 9456.58 1754.98  14
   6   3   7 3630.31 1091.01  14
   6  -3   7 4478.70 1249.09  14
   6  -3   8 504.696 563.965  14
   6   3   8-479.941 500.659  14
   6   3   9-317.179 498.881  14
   6  -3   9 963.546 764.985  14
   6  -3  10 855.338 565.868  14
   6   3  10 807.325 631.842  14
   6  -3  11-655.476 422.397  14
  -6  -4  15 350.193 437.011  14
  -6   4  14 3340.59 923.667  14
  -6  -4  14 3788.08 1161.64  14
   6   4 -13-323.834 873.244   9
   6  -4 -13 1150.32 893.635   5
   6   4 -13 1361.40 908.200   5
  -6   4  13 75.0467 522.143  14
   6   4 -12 3235.50 1290.67   9
   6   4 -12 1351.07 890.642   5
   6   4 -11 2798.14 1298.53   9
   6  -4 -11 3955.68 1309.56   5
   6   4 -11 1707.24 1126.29   5
   6   4 -10 9381.57 1868.54   3
   6  -4 -10 7762.61 1598.23   3
   6  -4 -10 9882.86 1974.56   5
   6   4 -10 11017.9 2254.54   9
   6   4 -10 11477.5 2111.20   5
   6   4  -9 1064.78 891.018   3
   6  -4  -9-417.656 864.720   3
   6  -4  -9 2476.58 1295.81   5
   6   4  -9 841.402 830.791   5
   6   4  -9 2204.18 1182.91   9
   6   4  -8 20137.2 2531.25   3
   6  -4  -8 15312.9 2100.45   3
   6   4  -7 1459.25 863.275   3
   6  -4  -7 2101.43 947.457   3
   6   4  -6 12688.1 1835.85   3
   6  -4  -6 15149.8 2006.60   3
   6   4  -5 2298.08 935.632   3
   6  -4  -5 2656.26 904.669   3
   6   4  -4 36592.0 2908.38   3
   6  -4  -4 37390.4 2887.85   3
   6  -4  -3 4842.19 1193.41   3
   6   4  -3 5467.12 1225.48   3
   6   4  -2 15869.7 1937.78  13
   6   4  -2 17685.1 1936.11   3
   6  -4  -2 17911.4 1956.29   3
   6   4  -1 2539.21 964.729  13
   6   4  -1 402.086 509.096   3
   6   4   0 55294.3 3527.90  13
   6   4   0 54486.9 3211.20   3
   6  -4   1 29797.3 2497.19  13
   6   4   1 34044.8 2799.15  13
   6  -4   2 12137.8 1695.85  13
   6   4   2 12304.7 1831.71  13
   6   4   3 5689.88 1347.52  13
   6   4   4 11788.7 1875.32  13
   6  -4   5 86.9385 580.864  14
   6   4   5-29.2576 844.434  14
   6   4   5 471.154 785.988  13
   6   4   6 122.899 584.203  14
   6   4   6 1904.99 1149.94  13
   6  -4   6 203.506 573.599  14
   6  -4   7 1058.27 877.523  14
   6   4   7 1212.86 845.217  14
   6   4   8 802.501 703.784  14
   6  -4   8 1068.44 718.776  14
   6  -4   9 1381.08 850.329  14
   6   4   9 2114.45 856.133  14
   6   4  10 4893.02 1041.54  14
   6  -4  10 6123.51 1233.22  14
   6  -4  11 805.482 462.241  14
  -6  -5  15-439.153 424.801  14
  -6  -5  14 810.980 667.249  14
   6   5 -13 664.608 643.326   9
   6  -5 -13 2047.77 1016.56   5
   6   5 -13 1649.66 827.224   5
  -6  -5  13 168.743 559.200  14
   6   5 -12 1315.74 998.633   9
   6  -5 -12 2243.89 1143.02   5
   6   5 -12 787.531 840.200   5
   6   5 -11 1460.88 1083.82   9
   6  -5 -11 4774.75 1548.06   5
   6   5 -11 2951.78 1189.91   5
   6   5 -10 2336.05 1329.80   9
   6   5 -10 1903.11 1121.01   5
   6  -5 -10 569.715 872.677   5
   6   5 -10 2154.19 1032.23   3
   6   5  -9 1470.24 923.285   3
   6  -5  -9 1579.61 763.538   3
   6   5  -9 187.076 1063.98   9
   6  -5  -9 309.806 698.738   5
   6   5  -9-130.295 855.304   5
   6   5  -8 3390.77 1326.32   3
   6  -5  -8 1081.83 757.395   3
   6   5  -7 1157.45 958.738   3
   6  -5  -7 1604.83 896.428   3
   6   5  -6 33591.5 2946.66   3
   6  -5  -6 36271.2 2983.65   3
   6   5  -5 1434.66 831.939   3
   6  -5  -5 3556.78 1110.59   3
   6  -5  -4 713.386 656.433   3
   6   5  -4 1531.98 825.987   3
   6  -5  -3 3943.11 1034.72   3
   6   5  -3 5180.74 1128.63   3
   6   5  -2 4707.15 1089.00   3
   6   5  -2 3224.07 989.554  13
   6   5  -1-417.016 543.572   3
   6   5  -1 331.683 766.807  13
   6   5   0 1040.01 682.859   3
   6   5   0 1381.15 851.436  13
   6   5   1 6614.02 1393.49  13
   6   5   2 8664.41 1556.95  13
   6   5   3 16028.5 2127.96  13
   6   5   4 53860.9 3934.19  13
   6   5   5 8724.73 1602.12  14
   6  -5   5 8030.11 1589.23  14
   6   5   5 8465.31 1664.10  13
   6   5   6 1842.81 841.133  13
   6   5   6 1782.69 773.875  14
   6  -5   6 343.457 516.802  14
   6  -5   7 3512.22 1240.86  14
   6   5   7 4851.66 1330.04  14
   6   5   8-759.483 670.450  14
   6  -5   8 451.803 794.791  14
   6  -5   9 1100.99 815.265  14
   6  -5  10 10.5569 456.801  14
   6  -5  11-551.238 398.147  14
  -6  -6  15 753.059 512.101  14
  -6  -6  14 232.912 511.026  14
   6   6 -13 7813.50 1816.07   9
  -6  -6  13 6458.75 1462.54  14
   6   6 -12 4060.48 1455.69   9
   6  -6 -12 2762.37 1005.79   5
   6   6 -12 3632.90 1282.75   5
   6   6 -11 8991.90 2186.55   9
   6  -6 -11 6241.28 1672.10   5
   6   6 -11 5487.35 1489.68   5
   6   6 -10 1147.42 1135.99   9
   6   6 -10-395.175 683.505   5
   6  -6 -10 1826.66 802.254   5
   6   6 -10 699.016 866.312   3
   6   6  -9 8873.02 1879.14   3
   6   6  -9 7939.47 2027.36   9
   6  -6  -9 7027.37 1322.11   5
   6   6  -9 7064.98 1645.10   5
   6   6  -8 2962.53 1230.29   3
   6  -6  -8 790.846 684.997   3
   6   6  -7 2072.33 1348.74   3
   6  -6  -7 115.635 596.007   3
   6   6  -6 4195.55 1190.08   3
   6  -6  -6 6783.45 1346.02   3
   6   6  -5 9973.59 1680.94   3
   6  -6  -5 8866.35 1536.02   3
   6  -6  -4 260.940 708.926   3
   6   6  -4 1000.37 810.644   3
   6   6  -4-306.156 876.470   7
   6   6  -3 57906.6 3507.38   3
   6  -6  -3 61463.6 3623.36   3
   6   6  -2 828.999 870.654  13
   6   6  -2-97.2816 683.258   3
   6   6  -1 90829.6 4523.98  13
   6   6  -1 89126.9 4115.60   3
   6   6   0 8957.93 1510.83  13
   6   6   1 2895.73 1044.62  13
   6   6   2 12688.5 1955.91  13
   6   6   3 768.078 871.786  13
   6   6   4 5206.60 1433.03  13
   6  -6   5 1008.84 976.291  14
   6   6   5 2928.06 1190.99  13
   6  -6   6 876.410 617.527  14
   6   6   6-829.424 887.074  13
   6  -6   7 6444.67 1563.09  14
   6  -6   8 555.026 498.598  14
   6  -6   9 10466.0 1721.11  14
   6  -6  10 27.1051 448.165  14
   6  -6  11 477.381 416.316  14
  -6  -7  15-2.14752 337.965  14
  -6  -7  14 501.607 545.412  14
   6   7 -14-2469.11 1596.48  12
   6   7 -13 200.761 756.926   9
  -6  -7  13 1192.80 754.594  14
   6   7 -12 150.034 721.662   9
   6  -7 -12 10.4876 712.398   5
   6   7 -12-1051.18 810.568   5
   6   7 -11 8281.72 1980.10   9
   6  -7 -11 6390.78 1618.17   5
   6   7 -11 10421.3 1948.39   5
   6   7 -10 1015.39 1112.12   9
   6   7 -10 97.7992 726.187   5
   6  -7 -10 2237.88 1028.98   5
   6   7 -10 1355.50 962.504   3
   6   7  -9 3956.47 1285.00   3
   6   7  -9 4121.30 1534.52   9
   6  -7  -9 3807.45 1308.40   5
   6   7  -9 4879.98 1461.78   5
   6   7  -8 30754.0 3089.74   3
   6   7  -7 2586.64 1060.33   3
   6  -7  -7 4441.84 1240.69   3
   6   7  -6 43850.9 3392.89   3
   6  -7  -6 45510.6 3333.88   3
   6   7  -5 1068.40 894.626   7
   6   7  -5 3007.44 986.710   3
   6  -7  -5 3899.76 1129.21   3
   6  -7  -4 10734.3 1736.77   3
   6   7  -4 11447.9 1689.58   3
   6   7  -4 10634.9 1731.51   7
   6  -7  -3 9953.30 1590.35   3
   6   7  -3 8803.52 1396.17   3
   6   7  -2 46.3867 695.826  13
   6   7  -2 456.271 610.877   3
   6   7  -1 18533.4 2136.15  13
   6   7   0-91.9244 711.202  13
   6   7   1 10866.3 1795.62  13
   6   7   2 47415.5 3606.71  13
   6   7   3 5638.14 1453.46  13
   6   7   4 18433.0 2115.07   4
   6  -7   4 20271.3 2408.02  14
   6   7   4 22167.5 2710.24  13
   6  -7   5 8600.34 1659.59  14
   6   7   5 7623.50 1759.34  13
   6  -7   6 6689.05 1591.35  14
   6  -7   7 6636.29 1503.05  14
   6  -7   8 1731.24 916.749  14
   6  -7   9-135.374 512.597  14
   6  -7  10 265.904 515.807  14
   6  -7  11 1117.99 491.554  14
  -6  -8  15 954.130 477.324  14
  -6  -8  14 550.129 547.332  14
   6   8 -14 2142.58 1747.86  12
   6   8 -13-485.987 621.267   9
  -6  -8  13 892.346 605.663  14
   6   8 -13 1913.05 1376.19  12
   6   8 -12-753.966 958.492   9
   6  -8 -12-576.112 674.291   5
   6   8 -12-790.770 724.254   5
   6   8 -11 653.548 912.019   9
   6  -8 -11 927.899 720.582   5
   6   8 -11-219.136 757.524   5
   6   8 -10 1485.46 1157.51   9
   6  -8 -10 2004.68 963.454   5
   6   8 -10 476.112 740.398   5
   6   8 -10 143.040 904.654   3
   6   8  -9 2883.69 1477.78   9
   6   8  -9 2700.84 1058.98   3
   6   8  -8 576.012 819.686   3
   6   8  -8 1359.46 981.789   9
   6   8  -7 5304.31 1458.90   3
   6   8  -6 19674.7 2329.53   3
   6  -8  -6 21721.1 2336.75   3
   6   8  -5 3026.20 975.143   3
   6  -8  -5 5514.15 1233.99   3
   6   8  -5 3799.43 1261.68   7
   6   8  -4 25588.6 2416.99   3
   6  -8  -4 24966.6 2430.92   3
   6   8  -4 26877.5 2751.63   7
   6  -8  -3 1305.92 696.715   3
   6   8  -3 101.508 586.532   3
   6   8  -3-448.134 860.676   7
   6   8  -2 5729.85 1275.43  13
   6   8  -1 10296.5 1703.74  13
   6   8   0 38597.8 3118.54  13
   6   8   1 9711.56 1726.00  13
   6   8   2 15858.0 2133.89  13
   6   8   3 99.4560 807.548  13
   6   8   4 1388.85 794.965   4
   6   8   4 50.9091 699.748  13
   6  -8   4 885.263 506.270  14
   6   8   5-379.557 827.657  13
   6  -8   5-278.204 528.024  14
   6  -8   6-150.458 581.574  14
   6  -8   7 284.619 644.816  14
   6  -8   8-163.762 635.126  14
   6  -8   9-223.942 501.199  14
   6  -8  10 4173.74 981.431  14
  -6  -9  15 5.71143 312.911  14
  -6  -9  14 1478.03 697.984  14
   6   9 -14 2752.44 2061.68  12
   6   9 -13 1653.01 997.052   9
  -6  -9  13 1299.67 792.323  14
   6   9 -13 4428.00 2445.14  12
   6   9 -12 1096.53 956.456   9
   6   9 -12 3634.94 2470.33  12
   6   9 -11 3383.41 1517.32   9
   6   9 -10 4629.86 1615.07   9
   6   9  -9 3303.63 1380.29   9
   6   9  -9 2316.72 1116.84   3
   6   9  -8 6550.22 1619.45   3
   6   9  -8 5430.91 1606.87   9
   6   9  -7 951.066 791.207   3
   6   9  -6 7851.44 1757.78   7
   6   9  -6 5296.81 1305.38   3
   6   9  -5 1127.10 684.869   3
   6  -9  -5 2782.59 977.262   3
   6   9  -5 1920.87 1065.82   7
   6  -9  -4 2801.75 924.946   3
   6   9  -4 2100.63 868.389   3
   6   9  -4 592.507 1026.22   7
   6  -9  -3 1166.23 841.665   3
   6   9  -3 1375.30 1427.62   7
   6   9  -2 2785.90 979.623  13
   6   9  -2 2249.12 1052.27   7
   6   9  -1 27721.5 2694.32  13
   6   9   0 12142.2 1826.08  13
   6   9   1 20259.0 2409.92  13
   6   9   2 5718.31 1397.82  13
   6   9   3-1029.06 714.093  13
  -6   9  -4 10217.8 2149.67  10
   6   9   4 7913.47 1529.11   4
   6  -9   4 10257.6 1780.39  14
   6   9   4 7213.90 1631.48  13
  -6   9  -5 3985.64 1426.95  10
   6   9   5 3732.97 1043.53   4
   6  -9   5 2462.48 1021.55  14
   6   9   5 3748.36 1248.56  13
   6  -9   6 2314.36 1082.70  14
   6  -9   7 1246.26 732.926  14
   6  -9   8-206.796 586.923  14
   6  -9   9 1303.94 776.246  14
   6  -9  10-343.186 540.034  14
  -6 -10  14-183.976 440.489  14
   6  10 -14 1232.38 1150.48  12
   6  10 -13 6713.43 1764.84   9
  -6 -10  13 3143.72 1012.21  14
   6  10 -13 3249.59 1903.25  12
   6  10 -12 1657.90 911.882   9
  -6 -10  12 3270.95 1121.55  14
   6  10 -11 1555.00 1301.74   9
   6  10 -11 734.667 1466.54  12
   6  10 -10 468.549 870.778   9
   6  10 -10-1053.40 2365.58  12
   6  10  -9 2899.78 1311.69   9
   6  10  -9 1760.10 852.741   3
   6  10  -8 578.519 1105.01   9
   6  10  -8-438.757 712.366   3
   6  10  -7-1461.39 1447.92   7
   6  10  -7-438.014 815.832   3
   6  10  -7 1808.37 1282.25   9
   6  10  -6 277.257 803.636   3
   6  10  -6-28.6700 1072.57   7
   6  10  -5 92.9941 637.685   3
   6  10  -5 122.450 909.761   7
   6 -10  -4 982.290 751.875   3
   6  10  -4-2067.79 1370.69   7
   6  10  -3 79194.0 5108.28   7
   6 -10  -3 88960.8 4590.78   3
   6  10  -2-313.775 612.270  13
   6 -10  -2 1283.35 808.682   3
   6  10  -2-693.168 884.579   7
   6  10  -1 93002.0 4859.75  13
   6  10  -1 94854.3 5403.60   7
   6  10   0 70.7998 733.269  13
   6  10   1 4457.48 1257.10  13
   6  10   2 8462.21 1685.47  13
  -6  10  -3-188.286 890.076  10
   6  10   3 826.906 810.130  13
  -6  10  -4 1401.81 989.363  10
   6 -10   4 1755.46 805.762  14
   6  10   4 939.792 848.989  13
  -6  10  -5 1586.80 953.107  10
   6  10   5 632.110 647.154   4
   6 -10   5 1003.57 732.234  14
   6  10   5 2024.01 1051.03  13
  -6  10  -6 1338.28 699.287  10
   6 -10   6 729.371 589.941  14
   6 -10   7 3566.05 1065.99  14
   6 -10   8-43.2642 537.295  14
   6 -10   9 3033.40 978.876  14
   6 -10  10 341.305 430.757  14
  -6 -11  14 387.643 531.896  14
   6  11 -14 2230.58 1664.85  12
   6  11 -13 38.3075 553.965   9
  -6 -11  13-337.275 564.058  14
   6  11 -13 333.472 1559.34  12
   6  11 -12-1355.91 929.098   9
  -6 -11  12-161.432 543.590  14
   6  11 -12-901.644 1542.95  12
   6  11 -11 10263.4 2257.52   9
   6  11 -11 17362.1 4508.48  12
   6  11 -10 4015.21 1572.79   9
   6  11 -10 7593.92 3388.77  12
   6  11  -9 886.455 960.477   9
   6  11  -9 225.874 642.552   3
   6  11  -8 15833.3 2814.07   7
   6  11  -8 13942.6 2581.37   9
   6  11  -8 12923.8 2053.98   3
   6  11  -7 4418.94 1261.15   3
   6  11  -7 2664.11 1245.47   9
   6  11  -7 3229.15 1269.23   7
   6  11  -6 10944.0 2262.61   7
   6  11  -5 3290.74 1327.16   7
   6  11  -4 158.934 993.551   7
   6 -11  -3 4781.96 1162.10   3
   6  11  -3 3981.04 1403.23   7
   6 -11  -2 959.134 729.208   3
   6  11  -2 865.719 909.134   7
   6  11  -1 12298.2 1899.36  13
   6  11  -1 14954.2 2339.02   7
   6  11   0 2074.65 1004.22  13
   6  11   1 3901.56 1244.52  13
   6  11   2 31044.4 4851.56   8
   6  11   2 31145.4 3105.33  13
  -6  11  -2 32349.1 3722.35  10
  -6  11  -3-711.159 1002.67  10
   6  11   3 191.460 678.931  13
  -6  11  -4 13609.9 2585.79  10
   6  11   4 12783.5 2064.23  13
  -6  11  -5 5371.63 1816.02  10
   6 -11   5 3510.98 1110.02  14
  -6  11  -6 4092.56 1493.71  10
   6 -11   6 1670.93 814.978  14
  -6  11  -7 4636.67 1547.62  10
   6 -11   7 3765.74 1122.97  14
   6 -11   8-822.123 597.392  14
   6 -11   9-260.322 546.364  14
   6  11  10-567.423 406.759  15
   6  12 -14-2355.51 1326.64  12
   6  12 -13-249.116 566.466   9
  -6 -12  13-519.338 515.472  14
   6  12 -13 425.712 1405.46  12
   6  12 -12-744.906 725.271   9
  -6 -12  12 241.871 503.133  14
   6  12 -12 1059.92 1635.62  12
   6  12 -11 791.934 727.028   9
   6  12 -11 2153.89 2536.51  12
   6  12 -10-117.900 1038.64   9
   6  12 -10 1630.54 1876.10  12
   6  12  -9 1194.47 912.077   9
   6  12  -9 1155.02 2755.27  12
   6  12  -8 102.384 966.795   9
   6  12  -8 1705.32 874.293   3
   6  12  -7 6165.94 1852.39   9
   6  12  -7 4737.50 1888.56   7
   6  12  -6 20699.1 3083.19   9
  -6  12   6 20443.8 3089.49  10
   6  12  -6 23949.7 3242.97   7
   6  12  -5 1317.30 1110.41   7
   6  12  -4 20352.3 2897.41   7
   6  12  -3 1127.60 932.116   7
   6 -12  -2 1805.76 1069.90   3
   6  12  -2 1619.96 1326.41   7
   6  12  -1 4184.80 1281.57  13
   6  12  -1 3729.74 1583.25   7
   6  12   0 14354.2 2090.90  13
   6  12   0 16429.4 2604.20   7
   6  12   1 5900.25 1264.85  15
   6  12   1 4325.88 1317.60  13
  -6  12  -2 10423.2 2275.71  10
   6  12   2 5327.82 2444.31   8
   6  12   2 9229.40 1905.77  13
  -6  12  -3 164.313 1018.01  10
   6  12   3 401.665 749.242  13
  -6  12  -4 3176.06 1424.33  10
   6  12   4 1655.30 1228.09  13
  -6  12  -5 718.309 771.383  10
  -6  12  -6-465.201 821.639  10
  -6  12  -7 1895.39 937.944  10
   6 -12   7-526.803 497.205  14
  -6  12  -8 724.954 857.459  10
   6 -12   8-620.214 512.102  14
   6 -12   9 1176.64 591.344  14
   6  12   9-134.221 608.264  15
   6  13 -13 417.711 504.716   9
   6  13 -13 1718.75 1684.79  12
   6  13 -12 4301.80 1416.44   9
   6  13 -12 5422.50 2903.73  12
   6  13 -11 2968.56 1236.87   9
   6  13 -11 4094.04 2594.95  12
   6  13 -10 3488.70 1591.42   9
   6  13 -10 4069.65 2578.84  12
   6  13  -9 5405.55 1764.70   9
   6  13  -9 11941.8 4122.81  12
   6  13  -8 7697.52 2203.16   9
   6  13  -8 9480.17 3613.47  12
   6  13  -8 6858.99 2101.30   7
   6  13  -7 3115.90 1458.17   9
   6  13  -7 3448.07 1703.53   7
   6  13  -6 1450.51 1259.31   9
  -6  13   6-321.742 885.533  10
   6  13  -6-1012.96 1617.14   7
   6  13  -5 6381.33 1877.26   9
   6  13  -5 5442.61 1554.77   7
  -6  13   5 7746.92 1987.54  10
   6  13  -4 1501.85 1391.69   7
   6  13  -3-1101.55 1413.65   7
   6  13  -2 2951.81 1282.80   7
   6  13  -1 791.406 1007.17   7
   6  13   0 16299.3 3710.74   8
   6  13   0 22009.1 2570.50  15
   6  13   0 15698.7 2155.99  13
   6  13   0 21183.3 3024.18   7
  -6  13   0 20971.5 3064.97  10
  -6  13  -1 1989.77 1209.91  10
   6  13   1 50.9924 610.633  15
   6  13   1 880.103 715.816  13
  -6  13  -2 5772.80 1757.11  10
   6  13   2 4020.86 1318.48  15
   6  13   2 3822.66 2200.07   8
   6  13   2 3770.65 1107.89  13
  -6  13  -3 3032.62 1425.98  10
   6  13   3 4614.27 2428.86   8
   6  13   3 3723.57 1289.10  13
  -6  13  -4 2755.28 1454.15  10
  -6  13  -5-240.772 798.800  10
  -6  13  -6 2057.71 1291.72  10
  -6  13  -7 8769.97 1860.10  10
  -6  13  -8-256.307 681.029  10
   6  13   8 946.102 663.353  15
   6  13   9 1474.47 669.121  15
   6  14 -13 783.816 654.195   9
   6  14 -13 625.133 991.781  12
   6  14 -12 617.910 669.036   9
   6  14 -12 2037.85 1799.75  12
   6  14 -11 398.032 867.090   9
   6  14 -11 1742.71 2308.05  12
   6  14 -10 660.032 865.928   9
   6  14 -10 2510.60 2684.62  12
   6  14  -9 1856.25 1287.05   9
   6  14  -9 587.540 1863.61  12
   6  14  -8-353.957 886.850   9
   6  14  -8 3960.30 2564.83  12
   6  14  -7-441.896 1022.67   9
   6  14  -7-1109.39 961.949   7
   6  14  -6 4363.47 1711.88   9
  -6  14   6 3326.60 1481.59  10
   6  14  -6 1916.83 1403.14   7
   6  14  -5 8118.18 2077.95   9
   6  14  -5 9436.64 2217.97   7
  -6  14   5 10472.9 2499.81  10
   6  14  -4 964.227 843.038   9
   6  14  -4 145.468 990.185   7
  -6  14   4-1468.33 1216.53  10
  -6  14   3 16399.5 2855.03  10
   6  14  -3 16500.2 2699.26   9
   6  14  -3 12110.6 3005.45   8
   6  14  -3 14668.8 2644.84   7
  -6  14   2-571.521 1072.02  10
   6  14  -2-194.106 798.137  15
   6  14  -2 640.984 1004.10   9
   6  14  -2 2787.58 2124.36   8
   6  14  -2 979.220 1045.28   7
   6  14  -1 38792.3 3941.56   9
   6  14  -1 33663.4 3172.19  15
   6  14  -1 29452.0 5282.26   8
   6  14  -1 37737.1 3996.45   7
  -6  14   1 35806.7 4186.02  10
  -6  14   0 5081.99 1776.50  10
   6  14   0 3101.74 1084.04  15
   6  14   0 2478.10 1383.12   9
   6  14   0 7208.22 3073.69   8
   6  14   0 7331.43 2344.47   7
  -6  14  -1 6784.78 1970.54  10
   6  14   1 5798.53 2651.65   8
   6  14   1 6038.66 1374.27  15
  -6  14  -2 1038.71 941.494  10
   6  14   2 1712.53 1800.88   8
   6  14   2-1298.41 829.035  13
   6  14   2-267.048 839.533  15
  -6  14  -3 2150.07 1429.71  10
   6  14   3 1200.37 730.262  15
   6  14   3 3741.71 2255.04   8
   6  14   3 3588.34 1238.05  13
  -6  14  -4-526.119 801.844  10
   6  14   4-1095.14 795.512  15
  -6  14  -5 623.371 985.001  10
   6  14   5-505.330 696.520  15
  -6  14  -6 1299.50 1148.39  10
   6  14   6 1643.54 803.584  15
  -6  14  -7 3753.28 1274.10  10
   6  14   7 3860.75 1180.71  15
  -6  14  -8 6909.63 1935.67  10
   6  14   8 9.59176 514.752  15
   6  14   9 5715.71 1017.72  15
   6  15 -13 1115.93 1339.29  12
   6  15 -12-606.169 722.900   9
   6  15 -12-1397.31 1653.03  12
   6  15 -11 5866.07 1626.15   9
   6  15 -11 11004.2 3459.64  12
   6  15 -10 447.072 886.866   9
   6  15 -10 785.401 1678.99  12
   6  15  -9 2039.24 1061.58   9
   6  15  -9-265.366 1752.94  12
   6  15  -8 1226.07 1247.16   9
   6  15  -8 8184.22 3196.90  12
   6  15  -7 3398.38 1527.17   9
   6  15  -7 4746.32 2461.67  12
   6  15  -6 483.522 1048.92   9
   6  15  -6 802.370 2670.60  12
  -6  15   6 1042.71 990.685  11
   6  15  -6 283.881 1089.70   7
   6  15  -5 3800.19 1415.44   9
   6  15  -5 6033.38 1677.79   7
  -6  15   5 6324.94 1980.22  10
   6  15  -4 2271.58 1300.53   9
   6  15  -4 804.012 1145.03   7
  -6  15   4 1490.26 1367.05  10
  -6  15   3 4907.45 1893.67  10
   6  15  -3 5262.07 1700.09   9
   6  15  -3 5829.96 2231.76   8
   6  15  -3 7625.64 2059.53   7
  -6  15   2 1636.17 1197.33  10
   6  15  -2 1730.12 1011.68  15
   6  15  -2 3255.22 1612.75   8
   6  15  -2 2775.73 1566.00   9
   6  15  -2-115.337 1226.59   7
  -6  15   1 5023.43 1854.51  10
   6  15  -1-438.610 980.512   9
   6  15  -1 2890.36 1124.17  15
   6  15  -1 4989.28 1712.87   7
  -6  15   0 9869.54 2410.82  10
   6  15   0 9998.36 1978.44  15
   6  15   0 16630.5 2686.27   9
   6  15   0 15880.8 3857.19   8
   6  15   0 13353.2 2636.17   7
  -6  15  -1 286.093 959.672  10
   6  15   1 588.009 805.315  15
   6  15   1-2412.75 1210.60   9
   6  15   1 1124.29 1537.80   8
  -6  15  -2 4180.05 1592.96  10
   6  15   2 4751.20 2359.88   8
   6  15   2-88.8387 741.727  15
  -6  15  -3-56.0491 776.373  10
   6  15   3 505.045 611.527  15
  -6  15  -4 8097.91 2134.36  10
   6  15   4 6598.83 1574.10  15
  -6  15  -5 2109.33 1221.24  10
   6  15   5 2780.61 1015.37  15
  -6  15  -6 3040.50 1382.82  10
   6  15   6 4944.27 1286.54  15
  -6  15  -7 2552.33 1072.87  10
   6  15   7 276.974 625.337  15
  -6  15  -8 837.764 690.993  10
   6  15   8 465.004 549.008  15
   6  16 -12 121.788 583.956   9
   6  16 -12-2406.65 1594.57  12
   6  16 -11-455.662 730.728   9
   6  16 -11-3197.59 1925.21  12
   6  16 -10-1401.88 969.114   9
   6  16 -10 1755.57 1678.76  12
   6  16  -9 1301.06 1118.61   9
   6  16  -9 5754.20 3190.55  12
   6  16  -8-328.546 959.157   9
   6  16  -8-1646.38 2150.50  12
   6  16  -7 1362.60 1150.41   9
   6  16  -7 2439.38 2358.62  12
   6  16  -6 5595.08 1743.82   9
   6  16  -6 8688.38 3164.97  12
  -6  16   6 6190.40 1925.96  11
   6  16  -5 3517.40 1454.84   9
   6  16  -5 9824.40 3795.32  12
   6  16  -5 5028.39 1958.81   7
  -6  16   5 4551.18 1799.14  10
   6  16  -4 1234.35 1168.04   9
   6  16  -4 872.402 984.063   7
  -6  16   4 1296.81 1231.60  10
   6  16  -3 566.746 758.013   9
   6  16  -3 2506.88 2006.12   8
   6  16  -3-773.249 1349.49   7
  -6  16   3-70.8822 870.988  10
  -6  16   2 2395.23 1422.70  10
   6  16  -2 3741.36 1572.62   9
   6  16  -2 5540.25 2612.59   8
   6  16  -2 4000.61 1687.06   7
  -6  16   1 195.139 1010.40  10
   6  16  -1 2382.25 1407.55   9
   6  16  -1 757.605 970.700  15
   6  16  -1 943.978 1174.93   7
  -6  16   0 9296.84 2305.89  10
   6  16   0 8615.69 2062.57   9
   6  16   0 9264.21 3051.90   8
   6  16   0 6711.04 1548.17  15
   6  16   0 12302.3 2473.61   7
  -6  16  -1 13610.3 2764.45  10
   6  16   1 16465.6 2437.09  15
   6  16   1 13328.3 3660.74   8
  -6  16  -2-1366.66 1081.90  10
   6  16   2 895.163 818.862  15
   6  16   2 2605.31 2109.99   8
  -6  16  -3 1203.43 936.576  10
   6  16   3 2077.37 1029.22  15
   6  16   3 4332.79 2171.48   8
  -6  16  -4 1307.08 1136.33  10
   6  16   4-547.888 744.971  15
  -6  16  -5 1414.36 1048.81  10
   6  16   5 152.668 751.071  15
  -6  16  -6 489.833 701.807  10
   6  16   6 292.922 724.488  15
  -6  16  -7-53.4811 616.808  10
   6  16   7-19.8989 442.190  15
  -6  16  -8 106.616 496.009  10
   6  16   8 783.576 543.588  15
   6  17 -12 397.657 515.804   9
   6  17 -12 1048.89 1384.26  12
   6  17 -11 1107.64 826.548   9
   6  17 -11 4311.90 2088.77  12
   6  17 -10 2117.72 1200.07   9
   6  17 -10 7482.97 2902.73  12
   6  17  -9-666.414 930.285   9
   6  17  -9 1759.42 1928.23  12
   6  17  -8 87.9841 866.534   9
   6  17  -8-2813.29 2379.45  12
   6  17  -7 3938.29 1426.61   9
  -6  17   7 2196.73 1168.44  11
   6  17  -6 121.973 919.291   9
   6  17  -6-457.373 2240.48  12
  -6  17   6 1795.95 1302.02  11
   6  17  -5 1785.01 1756.50  12
   6  17  -5 648.279 1031.81   9
  -6  17   5 208.558 816.232  10
   6  17  -4 517.833 1736.94  12
   6  17  -4 535.738 924.198   9
   6  17  -4-298.233 1037.67   7
  -6  17   4-1412.30 1089.61  10
   6  17  -3 783.275 1573.85   8
   6  17  -3-1279.26 1960.59  12
   6  17  -3-1143.16 1363.12   9
   6  17  -3-550.901 1214.91   7
  -6  17   3 1073.65 992.354  10
  -6  17   2 2165.10 1350.12  10
   6  17  -2 4287.54 2023.11   8
   6  17  -2 2431.78 1569.52   7
  -6  17   1 145.129 796.660  10
   6  17  -1-171.516 618.958  15
   6  17  -1-1968.43 908.263   7
  -6  17   0 2219.04 1228.35  10
   6  17   0 2467.96 1257.41  15
  -6  17  -1 3875.75 1626.49  10
   6  17   1 4590.29 1390.50  15
   6  17   1 2062.67 1804.35   8
  -6  17  -2 5142.69 1694.84  10
   6  17   2 3058.98 1190.23  15
   6  17   2 193.345 1277.98   8
  -6  17  -3 2793.62 1439.18  10
   6  17   3 2119.08 1025.61  15
   6  17   3 9.60804 1506.24   8
  -6  17  -4 8270.37 2195.93  10
   6  17   4 7452.90 1647.32  15
  -6  17  -5 866.636 1150.27  10
   6  17   5 636.385 663.997  15
  -6  17  -6 1926.82 1094.80  10
   6  17   6 515.383 598.201  15
  -6  17  -7 5129.50 1357.61  10
   6  17   7 4141.14 922.808  15
  -6  17  -8-168.415 568.807  10
   6  18 -12 4435.01 1838.70  12
   6  18 -11-631.958 655.582   9
   6  18 -11-75.3203 1099.91  12
   6  18 -10 515.480 597.707   9
   6  18 -10-36.0709 1808.88  12
   6  18  -9 1224.67 833.638   9
   6  18  -9 382.520 1301.67  12
   6  18  -8 1115.31 831.978   9
   6  18  -8 1542.19 1796.51  12
   6  18  -7 1146.16 1039.61   9
   6  18  -7-572.969 2220.72  12
  -6  18   7-618.591 1208.12  11
   6  18  -6 2677.44 1107.04   9
   6  18  -6-681.067 1657.23  12
  -6  18   6 424.705 1032.48  11
   6  18  -5 836.088 927.534   9
   6  18  -5 1802.30 1740.79  12
  -6  18   5-1547.74 1528.90  11
  -6  18   5 231.418 831.162  10
   6  18  -4 3133.70 2721.23  12
  -6  18   4 1491.75 1279.34  10
   6  18  -3 2206.87 1838.15   8
   6  18  -3 6204.00 3316.12  12
  -6  18   3 4355.75 1710.02  10
  -6  18   2 2962.60 1485.68  10
   6  18  -2 1295.83 1816.12   8
  -6  18   1 14086.4 2763.98  10
   6  18  -1 15909.0 3957.78   8
  -6  18   0-124.179 771.761  10
   6  18   0-346.199 629.886  15
  -6  18  -1 1354.28 1089.67  10
   6  18   1 994.677 1469.16   8
   6  18   1 1011.87 818.013  15
  -6  18  -2 1235.65 1060.64  10
   6  18   2 872.019 1491.77   8
   6  18   2 634.195 690.937  15
  -6  18  -3 5928.88 1858.66  10
   6  18   3 7237.59 2713.91   8
   6  18   3 4812.22 1301.70  15
  -6  18  -4-194.524 825.400  10
   6  18   4-729.268 664.794  15
  -6  18  -5-232.538 783.936  10
   6  18   5 91.9076 563.149  15
  -6  18  -6 2295.69 1149.25  10
   6  18   6 2105.58 817.858  15
  -6  18  -7 1791.48 930.163  10
   6  18   7 2034.56 714.088  15
   6  19 -11 2669.13 853.014   9
   6  19 -11 1886.90 1578.45  12
   6  19 -10-293.201 677.805   9
   6  19 -10 4017.85 2460.47  12
   6  19  -9 2691.10 1187.68   9
   6  19  -9 6926.67 3196.62  12
   6  19  -8 4069.94 1441.89   9
   6  19  -8 4672.45 2664.91  12
  -6  19   8-549.093 935.141  11
   6  19  -7-384.322 688.444   9
   6  19  -7 13.1593 1549.41  12
  -6  19   7 704.026 1100.22  11
   6  19  -6 3300.85 1556.68   9
   6  19  -6 6620.16 3118.58  12
  -6  19   6 5394.34 1740.33  11
  -6  19   5 1881.63 1299.49  11
  -6  19   5-116.538 899.301  10
   6  19  -4 803.380 1694.21  12
  -6  19   4 2457.59 1324.28  10
   6  19  -3 3631.02 2219.49   8
   6  19  -3 3133.76 2721.12  12
  -6  19   3 1898.78 1445.43  10
  -6  19   2 10952.4 2361.29  10
   6  19  -2 5343.89 2632.88   8
  -6  19   1 1262.35 1203.55  10
   6  19  -1-1218.50 1665.58   8
  -6  19   0 2749.91 1489.90  10
   6  19   0 3455.76 2438.72   8
  -6  19  -1 1218.51 1197.59  10
   6  19   1 421.875 587.438  15
   6  19   1 1883.75 1774.55   8
  -6  19  -2-184.834 680.071  10
   6  19   2 436.757 1231.98   8
   6  19   2 457.828 592.235  15
  -6  19  -3 2303.25 1341.59  10
   6  19   3 2076.96 1871.16   8
   6  19   3 421.055 635.405  15
  -6  19  -4 8668.77 2162.20  10
   6  19   4 6541.12 1423.43  15
  -6  19  -5 118.355 825.833  10
   6  19   5 448.487 588.434  15
  -6  19  -6 3773.34 1277.38  10
   6  19   6 2514.46 807.152  15
  -6  19  -7 771.583 623.799  10
   6  20 -11 147.145 912.561  12
   6  20 -10-1279.59 1362.12  12
   6  20  -9 3886.64 2190.80  12
   6  20  -8 2600.25 2340.60  12
   6  20  -7-1332.30 1557.86  12
  -6  20   7 906.768 889.033  11
   6  20  -6 6364.48 3208.13  12
  -6  20   6 3260.69 1498.23  11
   6  20  -5 3380.45 2452.92  12
  -6  20   5 1751.18 1055.98  11
   6  20  -4 2738.64 2445.49  12
  -6  20   4 1247.22 1007.54  10
   6  20  -3 2369.16 2001.20   8
   6  20  -3 3113.13 2321.21  12
  -6  20   3 1459.34 951.541  10
   6  20  -2 4287.26 2189.12   8
  -6  20   2 3935.70 1362.51  10
  -6  20   1 814.077 1028.48  10
   6  20  -1 2124.79 1818.83   8
   6  20   0 13452.3 3569.71   8
  -6  20   0 21128.3 3255.80  10
  -6  20  -1 319.099 794.235  10
   6  20   1 2473.73 2180.64   8
  -6  20  -2-36.8710 885.352  10
   6  20   2 1405.93 1586.82   8
   6  20   2 607.515 1347.77  15
  -6  20  -3 5660.98 1806.01  10
   6  20   3 5251.81 2522.22   8
   6  20   3 4028.68 1203.60  15
  -6  20  -4-713.502 799.038  10
   6  20   4 672.958 568.610  15
  -6  20  -5 2821.34 1253.35  10
   6  20   5 3672.73 1002.52  15
  -6  20  -6-110.150 547.930  10
   6  21 -10-182.297 1213.57  12
   6  21  -9 3072.84 2033.45  12
   6  21  -8 5587.55 2586.05  12
  -6  21   7 844.160 903.900   8
  -6  21   7 1074.44 1217.78  11
   6  21  -6 6031.05 2827.46  12
  -6  21   6 231.454 898.991  11
   6  21  -5 5098.72 2776.68  12
  -6  21   5 113.761 869.885  11
   6  21  -4-74.0710 1366.94  12
  -6  21   4-899.099 1139.30  11
  -6  21   4-183.530 748.773  10
   6  21  -3 3914.77 2058.85   8
  -6  21   3 998.379 1117.08  10
   6  21  -2 4872.85 2209.48   8
  -6  21   2 9211.89 2244.32  10
  -6  21   1-565.501 854.736  10
   6  21  -1 827.649 1611.39   8
  -6  21   0 390.843 718.497  10
   6  21   0 1767.45 1925.47   8
  -6  21  -1-1304.82 1117.72  10
   6  21   1 3582.62 1962.63   8
  -6  21  -2 8854.81 2136.99  10
   6  21   2 6441.57 2676.79   8
  -6  21  -3 431.798 749.778  10
  -6  21  -4 563.653 630.043  10
  -6  21  -5 2891.67 1126.94  10
  -6  21  -6 275.361 504.025  10
   6  22  -9 2734.34 1684.60  12
   6  22  -8-75.4713 1205.05  12
  -6  22   7-1529.31 1461.40   8
   6  22  -7-4068.48 2139.80  12
  -6  22   7-497.058 825.753  11
   6  22  -6-3383.76 2136.53  12
  -6  22   6-489.387 925.093  11
   6  22  -5 2341.91 2368.02  12
  -6  22   5-808.037 888.673  11
  -6  22   4-166.790 1005.27  11
   6  22  -3 4665.81 2293.58   8
  -6  22   3 2299.92 1282.46  10
   6  22  -2 2159.03 1584.55   8
  -6  22   2 1040.33 906.948  10
   6  22  -1 5553.64 2354.90   8
  -6  22   1 5942.22 1770.40  10
  -6  22   0-2.10066 752.031  10
   6  22   0-566.900 1193.13   8
  -6  22  -1 247.654 873.035  10
   6  22   1 3290.72 2209.13   8
  -6  22  -2 254.990 723.763  10
   6  22   2 4966.02 2418.85   8
  -6  22  -3-96.0953 623.432  10
  -6  22  -4 707.240 760.993  10
  -6  22  -5 645.439 726.742  10
   6  23  -9 1850.84 1339.22  12
   6  23  -8 657.438 1276.14  12
  -6  23   7-509.333 1021.06   8
   6  23  -7 1867.23 1731.95  12
  -6  23   6 1731.51 1219.99   8
  -6  23   6-388.501 860.014  11
   6  23  -5 874.724 1710.84  12
  -6  23   5 558.172 859.688  11
  -6  23   4 4934.62 1846.68  11
   6  23  -3 4488.83 1901.27   8
  -6  23   3 1038.21 1317.75  11
   6  23  -2 1436.78 1526.83   8
  -6  23   2 1636.93 1086.77  10
   6  23  -1 1897.51 1575.70   8
  -6  23   1 1867.68 1168.02  10
   6  23   0 2663.45 1929.39   8
  -6  23   0 1613.48 1061.56  10
  -6  23  -1 941.804 918.391  10
   6  23   1 3568.25 1833.54   8
  -6  23  -2 34.6552 665.929  10
  -6  23  -3 93.1042 612.466  10
  -6  23  -4 3849.91 1177.19  10
   6  24  -8 921.429 1015.85  12
   6  24  -7-3278.70 1706.44  12
  -6  24   6 2863.98 1397.87   8
  -6  24   6 3418.01 1487.32  11
  -6  24   5-1077.82 1191.47   8
  -6  24   5 401.435 753.202  11
  -6  24   4 1094.26 1037.73  11
  -6  24   3-817.755 947.399  11
   6  24  -2 1030.51 1353.36   8
  -6  24   2 1290.99 1087.29  11
   6  24  -1-275.544 955.810   8
  -6  24   1 965.473 718.746  10
   6  24   0 2739.90 1981.41   8
  -6  24   0 1349.09 813.732  10
  -6  24  -1 1317.61 965.047  10
  -6  24  -2 114.045 720.112  10
  -6  24  -3 2890.08 1063.79  10
  -6  25   6 610.472 942.941   8
  -6  25   5 39.2470 1028.51   8
  -6  25   5 1531.04 1008.73  11
  -6  25   4 266.630 1013.60   8
  -6  25   4 1874.45 912.737  11
  -6  25   3-1055.33 841.533   8
  -6  25   3 939.044 962.718  11
  -6  25   2 3784.72 1788.08   8
  -6  25   2 3085.78 1211.25  11
  -6  25   1 1883.03 1427.97   8
  -6  25   1-61.5084 787.040  11
  -6  25   0 1964.36 1495.12   8
  -6  25   0 679.692 705.406  11
  -6  25   0-49.9103 516.908  10
  -6  25  -1-81.4967 824.724   8
  -6  25  -1 1081.28 629.854  10
  -6  25  -2-1158.84 810.946  10
  -6  26   5 1047.20 768.628   8
  -6  26   5 1340.72 907.593  11
  -6  26   4-1139.43 991.700   8
  -6  26   4 539.640 725.848  11
  -6  26   3 1980.21 1214.37   8
  -6  26   3 1120.29 951.589  11
  -6  26   2-230.096 847.001   8
  -6  26   2-222.069 839.278  11
  -6  26   1 3637.45 1541.24   8
  -6  26   1 2982.84 1213.26  11
  -6  26   0 13.1991 677.910   8
  -6  26   0-292.501 583.332  11
  -6  26  -1-73.4934 703.257  11
  -6  27   2 468.044 633.339  11
  -7   0  15 1943.32 662.026  14
  -7   0  14-844.154 622.158  14
   7   0 -13 17889.8 2386.24   5
   7   0 -12 1571.96 969.132   5
   7   0 -11 5934.42 1533.57   5
   7   0 -10-346.758 590.835   3
   7   0 -10 498.189 952.006   5
   7   0  -9 1430.60 1114.30   3
   7   0  -9 1059.17 913.801   5
   7   0  -8 197.725 845.970   3
   7   0  -7 1817.84 1131.77   3
   7   0  -6 849.328 791.919   3
   7   0  -5 4515.47 1340.34   3
   7   0  -4-945.099 934.518   3
   7   0  -3 14449.0 2015.86   3
   7   0  -2 53.4803 847.389   3
   7   0  -1 70616.0 4108.74   3
   7   0   0 264.025 720.997  13
   7   0   1 3461.74 1252.02  13
   7   0   2 479.919 863.247  13
   7   0   3 4868.66 1252.65  13
   7   0   4 986.544 821.419  14
   7   0   4 596.656 761.930  13
   7   0   5 11477.5 1964.43  13
   7   0   5 13942.3 2190.63  14
   7   0   6 451.280 631.203  14
   7   0   7 1927.93 944.017  14
   7   0   8 997.711 698.545  14
   7   0   9 773.524 525.738  14
   7   0  10 556.216 397.276  14
  -7   1  15-232.028 357.843  14
  -7  -1  15 6.71812 448.027  14
  -7   1  14 1497.67 620.682  14
  -7  -1  14 2165.48 883.234  14
   7  -1 -13 1492.91 871.903   5
   7   1 -13 2760.95 1235.48   5
   7  -1 -12 959.347 862.345   5
   7   1 -12 1105.98 932.714   5
   7  -1 -11-231.124 738.772   5
   7   1 -11 563.904 832.743   5
   7   1 -10 1647.74 918.822   3
   7  -1 -10 4599.52 1449.41   5
   7   1 -10 2830.84 1127.29   5
   7   1  -9 2078.67 1086.06   3
   7  -1  -9 1914.78 995.272   3
   7  -1  -9 2282.69 1096.23   5
   7   1  -9 2817.49 1137.20   5
   7   1  -8 22515.5 2622.26   3
   7  -1  -8 22057.7 2623.81   3
   7   1  -7 5801.65 1357.92   3
   7  -1  -7 9525.97 1787.92   3
   7   1  -6 535.072 733.370   3
   7  -1  -6 564.886 745.827   3
   7   1  -5 22412.9 2620.11   3
   7  -1  -5 19930.1 2375.16   3
   7  -1  -4 143.412 839.301   3
   7   1  -4 2832.99 1005.23   3
   7   1  -3 77574.6 4355.36   3
   7  -1  -3 85810.0 4623.17   3
   7  -1  -2 345.356 785.545   3
   7   1  -2-73.7760 689.081   3
   7   1  -1 22901.9 2369.48   3
   7  -1  -1 26761.0 2628.45   3
   7   1   0 2197.27 1002.28  13
   7  -1   0 3115.00 1154.38  13
   7   1   1-612.726 701.997  13
   7  -1   1-147.378 745.824  13
   7  -1   2 1717.58 838.910  13
   7   1   2 1737.46 912.858  13
   7  -1   3 5311.78 1259.19  14
   7  -1   3 6381.76 1410.52  13
   7   1   3 5496.97 1326.47  13
   7  -1   4 3454.14 1177.10  13
   7   1   4 3530.71 1327.10  13
   7   1   4 3665.00 1286.42  14
   7  -1   4 4325.27 1358.34  14
   7  -1   5 1701.68 826.529  14
   7   1   5 2574.99 1116.69  13
   7   1   5 1656.39 888.102  14
   7   1   6 5120.36 1340.60  14
   7  -1   6 4884.05 1258.24  14
   7  -1   7 6698.06 1439.60  14
   7   1   7 7117.82 1564.50  14
   7  -1   8-51.5695 542.423  14
   7   1   8-670.543 604.604  14
   7   1   9 940.223 634.280  14
   7  -1   9 1397.29 624.386  14
   7   1  10 3250.77 842.437  14
   7  -1  10 4011.61 903.286  14
  -7   2  15 182.694 363.248  14
  -7  -2  15 359.579 453.353  14
  -7   2  14 269.236 410.671  14
  -7  -2  14 821.111 625.830  14
   7  -2 -13-637.335 840.512   5
   7   2 -13-421.009 708.670   5
   7   2 -12 3580.73 1382.48   9
   7  -2 -12 3638.61 1327.07   5
   7   2 -12 5517.84 1463.42   5
   7   2 -11 1591.77 1027.18   9
   7   2 -11 2073.73 979.832   5
   7  -2 -11 2422.58 1196.63   5
   7   2 -10 5777.74 1439.59   3
   7  -2 -10 5652.69 1413.12   3
   7   2 -10 2904.67 1120.14   9
   7   2 -10 7101.00 1765.69   5
   7  -2 -10 5839.50 1541.17   5
   7   2  -9 1189.99 805.162   3
   7  -2  -9 511.204 800.394   3
   7   2  -9-594.334 699.174   9
   7  -2  -9-260.740 882.801   5
   7   2  -9 968.516 821.949   5
   7   2  -8 10377.5 1891.33   3
   7  -2  -8 10233.3 1932.40   3
   7   2  -7 2043.34 1037.70   3
   7  -2  -7 2174.30 1055.69   3
   7   2  -6 5559.16 1412.88   3
   7  -2  -6 5036.07 1413.43   3
   7   2  -5 482.314 791.454   3
   7  -2  -5 2437.90 1203.11   3
   7  -2  -4-833.458 924.725   3
   7   2  -4-1069.50 906.519   3
   7   2  -3 4032.02 1235.74   3
   7  -2  -3 5092.04 1406.83   3
   7   2  -2 705.319 640.775   3
   7  -2  -2 1744.13 842.297   3
   7   2  -1 6618.56 1361.83   3
   7   2  -1 5635.67 1329.76  13
   7   2   0 50824.6 3674.41  13
   7   2   0 62146.0 3868.38   3
   7  -2   1 166.421 879.539  13
   7   2   1 1463.60 945.373  13
   7  -2   2 38127.9 3271.18  13
   7   2   2 37526.0 3319.32  13
   7   2   3-197.218 695.978  14
   7  -2   3-767.391 735.626  13
   7  -2   3 138.252 679.981  14
   7   2   3 658.919 683.666  13
   7  -2   4 94213.8 5262.60  14
   7   2   4 92851.2 5493.20  13
   7   2   4 94564.4 5245.71  14
   7   2   5 4931.38 1308.20  14
   7  -2   5 3966.45 1228.40  14
   7   2   5 3376.04 1041.17  13
   7  -2   6 1284.55 857.979  14
   7   2   6-412.047 769.335  14
   7   2   7 1898.51 942.489  14
   7  -2   7 3179.25 1159.27  14
   7   2   8 1874.37 908.717  14
   7  -2   8 1635.96 864.286  14
   7  -2   9-669.301 594.231  14
   7   2   9-104.781 514.628  14
   7   2  10 1381.86 528.787  14
   7  -2  10 839.763 475.595  14
  -7   3  15-689.874 494.334  14
  -7  -3  15 578.113 492.988  14
  -7   3  14-113.769 447.495  14
  -7  -3  14 70.5325 490.507  14
   7   3 -13 844.125 755.147   9
   7  -3 -13 929.859 771.962   5
   7   3 -13 1979.08 1023.27   5
   7   3 -12-554.905 847.193   9
   7  -3 -12-369.270 724.692   5
   7   3 -12 646.661 874.903   5
   7   3 -11 3703.46 1404.70   9
   7   3 -11 3738.31 1243.97   5
   7  -3 -11 2386.96 1074.36   5
   7   3 -10 1354.18 854.177   3
   7  -3 -10 1037.39 900.385   3
   7   3 -10 1768.22 1236.68   9
   7  -3 -10 750.876 867.935   5
   7   3 -10 1070.68 1011.49   5
   7   3  -9 4354.40 1092.09   3
   7   3  -9 3750.09 1378.55   9
   7  -3  -9 1819.91 752.537   3
   7  -3  -9 4200.88 1272.44   5
   7   3  -9 3162.15 1249.59   5
   7   3  -8 35311.7 3333.67   5
   7   3  -8 33784.3 3269.99   3
   7  -3  -8 35653.4 3308.61   3
   7   3  -7 6176.34 1502.66   3
   7  -3  -7 6730.95 1525.27   3
   7   3  -6 14665.4 2075.08   3
   7  -3  -6 19480.5 2417.35   3
   7   3  -5 42148.6 3366.97   3
   7  -3  -5 40933.5 3330.58   3
   7  -3  -4 7104.43 1486.48   3
   7   3  -4 5195.22 1385.39   3
   7   3  -3 47047.9 3407.45   3
   7  -3  -3 49439.7 3569.82   3
   7   3  -2 5731.30 1324.23   3
   7  -3  -2 4920.13 1265.24   3
   7   3  -1 23596.4 2542.59  13
   7   3  -1 21101.5 2288.94   3
   7   3   0 15001.0 2107.57  13
   7   3   0 15423.3 2068.91   3
   7   3   1 4015.97 1253.65  13
   7   3   1 3214.96 1116.79   3
   7  -3   2 10430.1 1726.64  13
   7   3   2 13776.0 2074.68  13
   7   3   3 12319.8 1856.76  14
   7  -3   3 12117.2 1889.67  14
   7   3   3 13684.8 2167.31  13
   7  -3   4 20030.1 2434.46  14
   7   3   4 21366.2 2523.15  14
   7   3   4 20894.5 2705.40  13
   7  -3   5 1263.60 812.619  14
   7   3   5 3505.02 1166.69  13
   7   3   5 2484.18 945.118  14
   7   3   6 1508.59 845.675  14
   7  -3   6-665.306 693.121  14
   7   3   7 8383.09 1578.27  14
   7  -3   7 9423.87 1765.76  14
   7   3   8 4147.32 1122.96  14
   7  -3   8 2946.57 1009.94  14
   7   3   9 1803.11 728.259  14
   7  -3   9 3454.94 937.089  14
   7  -3  10 1819.40 684.824  14
  -7  -4  15 833.357 487.814  14
  -7   4  14 430.027 483.693  14
  -7  -4  14-374.239 578.015  14
   7   4 -13 10761.1 1985.46   9
   7  -4 -13 12515.5 1969.13   5
   7   4 -13 8647.30 1635.08   5
   7   4 -12 386.377 668.481   9
   7  -4 -12 334.581 890.174   5
   7   4 -12-469.427 740.329   5
   7   4 -11 12876.7 2424.24   9
   7  -4 -11 14415.0 2439.02   5
   7   4 -11 14958.1 2341.61   5
   7   4 -10 8219.77 1832.33   3
   7  -4 -10 6760.07 1529.67   3
   7   4 -10 6651.16 1746.03   9
   7   4 -10 7434.97 1612.16   5
   7  -4 -10 7591.61 1735.94   5
   7   4  -9 4021.44 1315.19   3
   7   4  -9 3480.96 1644.22   9
   7  -4  -9 2864.72 1033.47   3
   7  -4  -9 3425.70 1141.71   5
   7   4  -9 4629.97 1584.06   5
   7   4  -8 984.338 967.045   3
   7  -4  -8 95.9718 729.441   3
   7  -4  -8 1955.30 983.969   5
   7   4  -8 2766.41 1227.95   5
   7   4  -7 1175.32 935.466   3
   7  -4  -7 944.681 916.177   3
   7   4  -6 13289.9 2134.45   3
   7  -4  -6 12971.2 1960.42   3
   7   4  -5 1749.08 1113.40   3
   7  -4  -5 2260.04 1108.22   3
   7   4  -4 19788.3 2332.81   3
   7  -4  -4 21141.8 2375.06   3
   7   4  -3 20795.2 2328.04   3
   7  -4  -3 22060.1 2462.36   3
   7   4  -2-121.723 765.034   3
   7  -4  -2 752.379 837.720   3
   7   4  -1 45940.5 3506.24  13
   7   4  -1 48930.1 3420.37   3
   7   4   0 2359.38 903.257   3
   7   4   0 2032.61 990.796  13
   7   4   1 109.326 785.740  13
   7   4   1 842.987 665.904   3
   7   4   2-435.027 930.757  13
   7   4   3 3222.29 1180.09  14
   7  -4   3 2222.34 887.579  14
   7   4   3 165.992 850.401  13
   7   4   4 6974.58 1434.50  14
   7   4   4 7814.99 1684.97  13
   7  -4   4 6461.88 1486.88  14
   7  -4   5 3298.94 1119.57  14
   7   4   5 3628.96 1206.85  14
   7   4   5 3589.49 1252.32  13
   7  -4   6 1523.45 778.432  14
   7   4   6 1666.71 817.950  14
   7   4   7 1654.79 875.735  14
   7  -4   7 976.716 763.193  14
   7   4   8-56.9445 462.439  14
   7  -4   8 1176.45 786.252  14
   7   4   9 424.582 616.387  14
   7  -4   9-357.384 525.696  14
   7  -4  10 355.910 342.298  14
  -7  -5  15-192.702 365.396  14
  -7  -5  14-70.3007 434.010  14
   7   5 -13 3653.36 1227.92   9
   7  -5 -13 1741.77 929.060   5
   7   5 -13 3465.73 1118.05   5
   7   5 -12-462.456 863.206   9
   7  -5 -12-380.100 943.925   5
   7   5 -12 194.928 708.087   5
   7   5 -11-1021.81 815.668   9
   7  -5 -11 235.351 691.052   5
   7   5 -11 781.617 849.083   5
   7   5 -10 939.265 1040.60   3
   7   5 -10-1000.77 768.694   9
   7  -5 -10 1024.87 1147.63   5
   7   5 -10 286.057 748.961   5
   7   5  -9 400.034 817.789   3
   7  -5  -9-681.420 906.610   3
   7   5  -9 1735.64 1033.09   9
   7  -5  -9 1883.54 947.780   5
   7   5  -9 22.4878 885.618   5
   7   5  -8 10734.4 1960.74   3
   7   5  -8 10080.1 2055.49   9
   7  -5  -8 8063.16 1599.37   3
   7  -5  -8 10865.9 1956.09   5
   7   5  -8 11387.1 1941.11   5
   7   5  -7 2938.88 1133.42   3
   7  -5  -7 3574.21 1201.87   3
   7   5  -6 7596.93 1649.31   3
   7  -5  -6 6932.47 1497.11   3
   7   5  -5 5988.08 1425.55   3
   7  -5  -5 13174.5 1979.23   3
   7  -5  -4 6956.84 1467.96   3
   7   5  -4 5101.55 1227.88   3
   7   5  -3 78523.4 4479.14   3
   7  -5  -3 84962.9 4660.41   3
   7  -5  -2 298.314 703.125   3
   7   5  -2-1087.20 793.218   3
   7   5  -1 7025.31 1567.14  13
   7   5  -1 5587.70 1198.84   3
   7   5   0 994.660 906.353  13
   7   5   1-121.040 853.036  13
   7   5   2 5115.59 1351.93  13
   7  -5   3 3751.87 1253.22  14
   7   5   3 2457.12 933.423  14
   7   5   3 2830.38 1284.43  13
   7   5   4 703.385 878.489  14
   7  -5   4-590.936 753.951  14
   7   5   4-482.201 875.907  13
   7  -5   5 5562.03 1371.65  14
   7   5   5 7351.74 1408.33  14
   7  -5   6 946.409 693.225  14
   7   5   6 1881.59 959.407  14
   7   5   7 5300.29 1272.12  14
   7  -5   7 2978.82 1011.46  14
   7  -5   8 1040.79 688.740  14
   7   5   8 1355.27 704.740  14
   7  -5   9 2096.81 772.860  14
   7  -5  10 1686.95 592.970  14
  -7  -6  15 1092.31 579.196  14
  -7  -6  14 725.486 558.187  14
   7   6 -13 1489.52 934.401   9
   7  -6 -13 669.881 612.868   5
   7   6 -13 850.763 714.552   5
   7   6 -12 472.429 730.871   9
   7  -6 -12 537.952 632.228   5
   7   6 -12-58.2937 803.672   5
   7   6 -11-191.580 812.992   9
   7  -6 -11-216.931 820.331   5
   7   6 -11-1702.81 952.194   5
   7   6 -10 5915.77 1731.78   9
   7   6 -10 3322.94 1268.00   5
   7  -6 -10 6276.91 1673.27   5
   7   6  -9 2751.86 1262.60   3
   7   6  -9 3261.89 1420.17   9
   7  -6  -9 1953.92 887.239   5
   7   6  -9 1264.04 923.285   5
   7   6  -8 10033.8 2045.25   3
   7   6  -8 9259.99 2130.80   9
   7  -6  -8 9623.65 1787.23   3
   7  -6  -8 9935.93 1860.94   5
   7   6  -8 10510.3 1914.51   5
   7   6  -7-1109.80 1005.18   3
   7  -6  -7 70.6625 746.270   3
   7   6  -6 777.680 976.152   3
   7  -6  -6 211.112 800.957   3
   7   6  -5 1758.41 845.093   3
   7  -6  -5 1933.80 839.049   3
   7  -6  -4 2551.49 1012.89   3
   7   6  -4 1450.23 702.531   3
   7  -6  -3 2480.97 1062.12   3
   7   6  -3 1785.17 950.368   3
   7  -6  -2 3515.79 1061.27   3
   7   6  -2 679.230 626.505   3
   7   6  -1 7544.93 1615.01  13
   7   6   0 63982.4 4292.49  13
   7   6   1-300.443 734.413  13
   7   6   2 17556.5 2405.59  13
   7  -6   3 6882.17 1561.70  14
   7   6   3 6735.87 1671.47  13
   7  -6   4 2052.53 923.682  14
   7   6   4 1823.48 1118.01  13
   7  -6   5-19.0386 564.601  14
   7  -6   6-1084.31 750.767  14
   7  -6   7 391.221 626.244  14
   7  -6   8 869.743 663.039  14
   7  -6   9 1796.91 779.020  14
   7  -6  10 1730.52 614.523  14
  -7  -7  15 47.9148 358.101  14
  -7  -7  14-28.0820 411.203  14
   7   7 -13 0.90531 712.397   9
   7   7 -13-206.517 545.241   5
   7   7 -12-875.191 948.634   9
   7  -7 -12-1512.52 947.069   5
   7   7 -12-156.612 790.997   5
   7   7 -11 4217.07 1639.17   9
   7  -7 -11 7229.48 1603.06   5
   7   7 -11 5515.50 1587.04   5
   7   7 -10 1883.24 1234.42   9
   7  -7 -10 1723.98 795.903   5
   7   7 -10 2084.71 1047.72   5
   7   7  -9 19835.9 2955.15   9
   7   7  -9 13585.6 2058.57   5
   7  -7  -9 19423.2 2451.13   5
   7   7  -9 18503.1 2587.39   3
   7   7  -8 7715.56 1794.41   3
   7   7  -8 6595.26 1881.23   9
   7  -7  -8 5851.26 1408.99   5
   7   7  -8 7620.85 1732.32   5
   7   7  -7 10801.2 1949.85   3
   7   7  -7 12635.5 2360.74   9
   7  -7  -7 11009.7 1854.53   3
   7   7  -6 22480.1 2569.58   3
   7  -7  -6 22290.6 2540.01   3
   7   7  -5 8736.46 1707.41   3
   7  -7  -5 10290.0 1721.34   3
   7  -7  -4 13317.6 1972.02   3
   7   7  -4 12809.8 1885.35   3
   7   7  -3 25276.2 2575.33   3
   7  -7  -3 27335.8 2852.76   3
   7  -7  -2 726.521 729.664   3
   7   7  -1 8249.27 1711.19  13
   7   7   0 2245.27 1136.90  13
   7   7   1 27111.2 2925.34  13
   7   7   2 15416.7 2353.92  13
   7  -7   3 4107.39 1111.79  14
   7   7   3 5545.68 1467.12  13
   7  -7   4 1964.43 934.085  14
   7   7   4 2151.27 1051.49  13
   7  -7   5 2489.08 1082.02  14
   7  -7   6 1583.01 886.437  14
   7  -7   7 5887.67 1434.15  14
   7  -7   8 946.594 668.117  14
   7  -7   9 1509.09 682.024  14
   7  -7  10 1449.79 571.828  14
  -7  -8  14 994.062 586.001  14
   7   8 -13 6446.48 1596.49   9
  -7  -8  13 3058.37 927.762  14
   7   8 -12-1363.58 993.544   9
   7  -8 -12 181.882 529.582   5
   7   8 -12 273.642 626.908   5
   7   8 -11 10972.4 2250.05   9
   7  -8 -11 12592.7 1973.10   5
   7   8 -11 9982.02 1801.40   5
   7   8 -10 6140.20 1888.84   9
   7   8 -10 3779.45 1256.38   5
   7  -8 -10 6588.60 1552.89   5
   7   8  -9 981.443 971.597   3
   7   8  -9 90.7007 850.023   9
   7  -8  -9-1358.08 1016.85   5
   7   8  -9 678.608 754.483   5
   7   8  -8 1990.30 985.479   3
   7   8  -8 3191.75 1540.81   9
   7   8  -7 995.328 666.483   3
   7  -8  -7 201.657 556.301   3
   7   8  -6 63.3499 731.487   3
   7  -8  -6 902.785 794.838   3
   7   8  -5 3587.17 1166.36   3
   7  -8  -5 3207.80 1131.92   3
   7  -8  -4-327.582 747.946   3
   7   8  -4-136.166 696.574   3
   7  -8  -3-480.127 841.790   3
   7  -8  -2 584.530 801.829   3
   7   8  -1 45782.0 3705.10  13
   7   8   0 7063.51 1620.26  13
   7   8   1 1624.25 1033.27  13
   7  -8   2 718.584 654.731  14
   7   8   2 567.403 794.783  13
   7  -8   3 5092.85 1324.96  14
   7   8   3 5054.79 1379.87  13
   7  -8   4 3861.98 1243.71  14
   7   8   4 4884.45 1374.05  13
   7  -8   5 6363.70 1496.86  14
   7  -8   6 1697.66 965.258  14
   7  -8   7 2206.36 943.826  14
   7  -8   8 324.410 504.989  14
   7  -8   9 192.561 466.610  14
  -7  -9  14-124.583 443.619  14
   7   9 -13 178.998 752.428   9
  -7  -9  13-264.837 660.147  14
   7   9 -12 125.268 768.037   9
   7   9 -11 1202.09 828.493   9
   7   9 -10 7728.81 1936.14   9
   7   9  -9 5163.36 1703.63   9
   7   9  -9 2491.05 1233.01   3
   7   9  -8 8796.78 2053.76   7
   7   9  -8 9829.42 1849.17   3
   7   9  -8 13721.9 2598.91   9
   7   9  -7 10357.6 1863.24   3
   7   9  -7 10118.9 2182.19   9
   7   9  -7 8432.67 1907.83   7
   7   9  -6 23223.5 3122.55   9
   7   9  -6 22911.8 2568.86   3
   7   9  -5 9625.20 1704.50   3
   7  -9  -5 9578.89 1853.73   3
   7  -9  -4 4434.43 1341.97   3
   7  -9  -3 31709.7 3006.10   3
   7  -9  -2 1481.12 919.784   3
   7   9  -1 4983.26 1282.69  13
   7   9   0 6560.40 1575.31  13
   7   9   1 23556.7 2814.10  13
  -7   9  -2-816.015 826.778  10
   7   9   2-358.659 986.792  13
   7  -9   2-611.873 734.750  14
  -7   9  -3-246.248 803.039  10
   7   9   3 564.786 877.873  13
   7  -9   4 729.854 549.040  14
   7  -9   5 8527.00 1695.21  14
   7  -9   6 30.3296 699.342  14
   7  -9   7 2934.54 1013.26  14
   7  -9   8 644.202 489.359  14
   7  -9   9-92.8044 389.085  14
  -7 -10  14 1110.51 523.882  14
   7  10 -13 954.999 843.657   9
  -7 -10  13-1008.53 643.079  14
   7  10 -12 487.368 777.448   9
   7  10 -11 265.464 764.061   9
   7  10 -10 9667.56 2185.64   9
   7  10  -9-346.757 1108.02   9
   7  10  -8 2389.18 1017.72   3
   7  10  -8 1733.42 1119.24   9
   7  10  -8 3215.43 1466.00   7
   7  10  -7 2580.32 1087.09   3
   7  10  -7 1581.50 1257.07   9
   7  10  -7 4853.17 1581.15   7
   7  10  -6-351.665 798.137   3
   7  10  -6 403.239 948.892   9
   7  10  -6-12.3705 1340.62   7
   7  10  -5 7341.12 1705.92   9
  -7  10   5 8636.47 2235.54  10
   7 -10  -4-150.981 703.557   3
   7 -10  -3 1688.63 791.351   3
   7 -10  -2 1895.52 1028.07   3
   7  10  -1 3037.96 1133.46  13
   7  10   0 17439.3 2388.21  13
   7  10   0 15479.7 2063.03  15
  -7  10  -1 886.417 1011.45  10
   7  10   1 1221.11 1020.09  13
   7  10   2 21557.5 2715.12  13
  -7  10  -2 26919.3 3438.01  10
  -7  10  -3 3939.19 1548.99  10
   7 -10   3 2710.07 1119.57  14
   7  10   3 1939.58 1061.19  13
  -7  10  -4 2581.76 1309.51  10
   7 -10   4 4104.20 1200.12  14
   7 -10   5 1937.51 781.050  14
   7 -10   6-320.603 493.988  14
   7 -10   7-208.403 560.391  14
   7 -10   8 189.146 513.755  14
   7  10   9 1009.58 597.565  15
   7 -10   9 1392.55 554.164  14
  -7 -11  14 540.689 502.257  14
   7  11 -13-147.841 547.231   9
  -7 -11  13 62.3002 527.530  14
   7  11 -12 137.122 674.304   9
  -7 -11  12 531.540 632.619  14
   7  11 -11-322.166 680.365   9
   7  11 -10 2025.18 1208.22   9
   7  11  -9 3505.96 1553.11   9
   7  11  -8 7263.44 1923.36   9
   7  11  -8 7704.14 1861.02   7
   7  11  -7 6159.86 1871.56   9
   7  11  -7 4409.39 1305.98   7
   7  11  -6 4991.40 1748.97   9
  -7  11   6 4576.81 1843.98  10
   7  11  -6 3160.16 1492.67   7
   7  11  -5 35479.9 3852.32   9
  -7  11   5 36235.9 4147.33  10
   7  11  -4 2002.98 1160.60   9
  -7  11   4 1085.08 1107.97  10
   7 -11  -3 13973.6 2039.04   3
   7  11  -3 18554.3 2841.70   9
  -7  11   3 14202.6 2506.47  10
  -7  11   2 768.822 862.141  10
   7  11  -2 170.046 848.869   9
   7 -11  -2 554.794 927.013   3
  -7  11   1 1823.78 957.736  10
   7  11  -1 6638.97 1437.61  15
   7  11  -1 4659.00 1507.62   9
   7  11  -1 6347.35 1619.14  13
  -7  11   0 1211.99 945.082  10
   7  11   0 2211.50 1096.98  13
   7  11   0 705.080 590.188  15
  -7  11  -1 712.576 907.014  10
   7  11   1 3022.08 1044.81  15
   7  11   1 3790.29 1188.74  13
  -7  11  -2 2057.00 1161.05  10
   7  11   2 2472.74 1069.02  13
  -7  11  -3 8440.81 2193.42  10
   7  11   3 8952.03 1829.11  13
  -7  11  -4 3762.63 1492.40  10
  -7  11  -5 677.732 866.195  10
   7 -11   5 873.359 762.661  14
   7 -11   6-177.775 588.112  14
   7 -11   7 3663.69 1039.73  14
   7 -11   8 182.682 438.760  14
   7  11   9 3346.67 797.704  15
   7  12 -13 3654.65 1153.08   9
  -7 -12  13 3621.57 936.228  14
   7  12 -12 1773.19 920.865   9
  -7 -12  12 980.384 648.547  14
   7  12 -11 12078.6 2297.79   9
   7  12 -10 1610.95 953.746   9
   7  12  -9 1269.07 1061.14   9
   7  12  -8 947.005 1052.73   9
   7  12  -7 1468.59 1162.28   9
   7  12  -7-825.372 991.510   7
   7  12  -6 1096.42 1054.71   9
   7  12  -6 1475.74 1159.40   7
  -7  12   6 2694.54 1515.53  10
   7  12  -5 3349.16 1301.09   9
   7  12  -5 4533.03 1557.30   7
  -7  12   5 2392.96 1304.43  10
   7  12  -4 2857.71 1428.87   9
  -7  12   4 213.698 1123.61  10
   7  12  -3 8786.38 2034.05   9
   7  12  -3 9219.81 1705.57  15
  -7  12   3 11689.1 2241.20  10
  -7  12   2-90.7093 710.278  10
   7  12  -2 957.779 882.058  15
   7  12  -2-1456.56 1105.06   9
   7  12  -2 2210.36 2268.66   8
   7 -12  -2 515.927 614.334   3
   7  12  -1 33837.1 3753.40   9
   7  12  -1 24616.0 2672.37  15
   7  12  -1 22907.7 4328.73   8
   7  12  -1 25231.4 2831.77  13
  -7  12   1 25360.6 3308.23  10
  -7  12   0 989.657 879.878  10
   7  12   0 1277.90 866.386  15
   7  12   0 1661.48 1922.61  13
  -7  12  -1 155.396 937.479  10
   7  12   1-569.380 704.748  15
   7  12   1 1319.20 923.116  13
  -7  12  -2 325.761 1196.03  10
   7  12   2 632.274 701.811  15
   7  12   2 2621.62 1087.41  13
  -7  12  -3 3455.65 1603.17  10
  -7  12  -4-866.692 848.503  10
  -7  12  -5 7526.51 1886.05  10
  -7  12  -6 666.808 717.789  10
   7 -12   7 1407.99 752.542  14
   7  12   7 1633.20 848.485  15
   7 -12   8-175.868 446.561  14
   7  12   8-565.895 610.501  15
   7  13 -13 178.174 521.015   9
   7  13 -12 929.488 850.194   9
   7  13 -11 364.855 765.276   9
   7  13 -10 5643.72 1745.45   9
   7  13  -9 7487.57 1996.07   9
   7  13  -8 22140.4 3271.47   9
   7  13  -7 3853.47 1401.38   9
   7  13  -7 1906.18 1226.63   7
   7  13  -6 1942.87 1297.89   9
   7  13  -6 1256.62 1102.34   7
   7  13  -5 2427.27 1147.51   9
   7  13  -5 204.322 1022.73   7
  -7  13   5 1420.87 1023.15  10
   7  13  -4 4950.38 1613.08   9
   7  13  -4 3117.31 1099.17   7
  -7  13   4 3445.01 1662.01  10
   7  13  -3 15993.9 2796.72   9
  -7  13   3 15996.8 2929.16  10
  -7  13   2 5669.39 1955.21  10
   7  13  -2 4383.65 1284.77  15
   7  13  -2 5689.21 1763.81   9
  -7  13   1 1169.51 743.809  10
   7  13  -1 1813.75 891.327  15
   7  13  -1 3491.52 1643.53   9
   7  13  -1 1613.79 2294.04   8
   7 -13  -1 2199.35 1078.89   3
  -7  13   0-831.601 1164.54  10
   7  13   0 216.080 821.793  15
   7  13   0 1812.07 1061.05  13
  -7  13  -1 11364.6 2513.57  10
   7  13   1 9687.11 1831.91  15
   7  13   1 14341.8 2304.12  13
  -7  13  -2 682.258 1123.88  10
   7  13   2 258.706 603.121  15
  -7  13  -3 2022.68 1192.51  10
   7  13   3 1184.10 699.506  15
  -7  13  -4 343.543 810.503  10
   7  13   4 628.682 685.900  15
  -7  13  -5 2015.54 1090.10  10
   7  13   5 926.301 712.703  15
  -7  13  -6-598.457 778.606  10
   7  13   6-850.175 686.110  15
  -7  13  -7 1360.16 878.906  10
   7  13   7 2180.36 843.937  15
   7  13   8 154.190 421.501  15
   7  14 -13-175.514 531.025   9
   7  14 -12-735.962 594.940   9
   7  14 -11 781.410 929.840   9
   7  14 -10 19655.0 2891.20   9
   7  14  -9 1121.79 1093.56   9
   7  14  -8 11848.0 2384.36   9
   7  14  -7 7463.60 1994.08   9
   7  14  -6 1056.19 1086.40   9
   7  14  -6 471.986 850.845   7
   7  14  -5-805.692 951.098   9
  -7  14   5 2591.60 1276.85  10
   7  14  -4 1087.82 835.215   9
   7  14  -4 1012.00 1040.78   7
  -7  14   4 1935.94 1427.41  10
   7  14  -3 4237.96 1503.68   9
  -7  14   3 1951.85 1288.11  10
  -7  14   2 4578.06 1738.44  10
   7  14  -2 4520.23 1270.03  15
   7  14  -2 4669.19 1635.00   9
   7  14  -2 3931.47 2741.64   8
  -7  14   1 727.451 871.467  10
   7  14  -1 1006.75 733.440  15
   7  14  -1 1075.62 1039.29   9
   7  14  -1 1540.65 2217.36   8
  -7  14   0 13783.7 2887.58  10
   7  14   0 16545.6 2378.81  15
   7  14   0 18189.0 2908.16   9
   7  14   0 16993.2 4150.89   8
  -7  14  -1 2324.70 1380.23  10
   7  14   1 1073.02 705.685  15
   7  14   2 28140.9 3112.90  15
  -7  14  -2 28277.2 3812.07  10
  -7  14  -3 2179.97 1403.14  10
   7  14   3 1354.55 744.923  15
  -7  14  -4 5441.68 1724.67  10
   7  14   4 6530.26 1463.74  15
  -7  14  -5 979.496 957.115  10
   7  14   5 367.139 681.941  15
  -7  14  -6 243.314 638.753  10
   7  14   6-1290.69 760.994  15
  -7  14  -7 105.070 627.944  10
   7  14   7-441.021 470.262  15
   7  14   8 1055.48 515.122  15
   7  15 -13-272.048 558.622   9
   7  15 -12 3116.77 1165.30   9
   7  15 -11-421.312 731.220   9
   7  15 -10 3655.65 1414.38   9
   7  15  -9 876.396 1044.24   9
   7  15  -8 4341.72 1633.52   9
   7  15  -7 2975.12 1198.76   9
   7  15  -6 3530.57 1386.80   9
   7  15  -5 3126.79 1413.06   9
   7  15  -5 1133.70 1062.99   7
  -7  15   5 3848.70 1776.38  10
   7  15  -4-254.171 817.416   9
   7  15  -4 1586.27 1084.22   7
  -7  15   4-324.892 921.783  10
   7  15  -3 14285.5 2603.34   9
   7  15  -3 14310.2 3694.38   8
  -7  15   3 14038.2 2886.61  10
  -7  15   2 11232.9 2391.90  10
   7  15  -2 12275.4 2077.56  15
   7  15  -2 15342.0 2811.95   9
   7  15  -2 12896.8 3773.00   8
   7  15  -1 30899.7 3748.12   9
   7  15  -1 31099.6 3164.56  15
   7  15  -1 22476.7 4736.43   8
  -7  15   1 24688.7 3586.89  10
  -7  15   0 2871.65 1507.37  10
   7  15   0 4121.93 1520.78   9
   7  15   0 6773.95 2898.58   8
   7  15   0 4277.67 1322.50  15
  -7  15  -1 286.840 850.870  10
   7  15   1 157.120 581.769  15
   7  15   1-91.2214 818.337   9
  -7  15  -2 4972.31 1776.73  10
   7  15   2 3418.07 1190.86  15
  -7  15  -3 5613.71 1895.40  10
   7  15   3 4290.41 1307.71  15
  -7  15  -4 3126.51 1388.74  10
   7  15   4 3663.55 1177.30  15
  -7  15  -5 1331.08 1051.79  10
   7  15   5 2237.22 881.104  15
  -7  15  -6 13.7243 615.038  10
   7  15   6-45.2345 456.767  15
  -7  15  -7 795.470 728.588  10
   7  15   7 1408.56 765.384  15
   7  16 -12 1505.02 801.645   9
   7  16 -11 5993.20 1521.15   9
   7  16 -10 695.876 849.024   9
   7  16  -9 958.945 930.701   9
   7  16  -8 1065.44 1034.86   9
   7  16  -7 2304.67 1238.32   9
   7  16  -6-199.665 758.642   9
   7  16  -5-1753.10 1136.86   9
  -7  16   5 847.431 1354.34  10
   7  16  -4 5395.72 1883.81   9
  -7  16   4 4333.70 1625.30  10
   7  16  -3-370.266 941.309   9
   7  16  -3 1978.94 1911.53   8
  -7  16   3 1944.69 1335.46  10
  -7  16   2 9241.01 2216.74  10
   7  16  -2 15099.5 2662.14   9
   7  16  -2 8782.05 3264.60   8
  -7  16   1 3824.45 1543.28  10
   7  16  -1 3294.22 1423.84   9
   7  16  -1 2531.10 2212.38   8
   7  16  -1 4243.57 1346.52  15
  -7  16   0-16.4191 892.712  10
   7  16   0-2401.52 1084.18   9
   7  16   0 1575.37 1897.35   8
   7  16   0-741.415 891.486  15
  -7  16  -1 4063.25 1706.90  10
   7  16   1 4059.60 1412.90  15
   7  16   1 4068.57 1527.39   9
  -7  16  -2 2065.06 1324.53  10
   7  16   2 336.410 640.994  15
   7  16   2-1466.01 825.351   9
  -7  16  -3-322.897 716.192  10
   7  16   3 566.905 662.291  15
   7  16   3-173.770 875.022   9
  -7  16  -4 1481.33 837.762  10
   7  16   4 1464.59 814.405  15
  -7  16  -5 1990.72 1150.04  10
   7  16   5 2419.15 902.199  15
  -7  16  -6 477.151 754.612  10
   7  16   6 1253.28 696.469  15
  -7  16  -7 236.701 480.408  10
   7  16   7 262.289 459.166  15
   7  17 -12-382.029 677.400   9
   7  17 -11-1208.21 842.439   9
   7  17 -10 467.473 600.538   9
   7  17  -9 7727.98 1894.29   9
   7  17  -8 13850.6 2526.59   9
   7  17  -7 449.664 824.042   9
   7  17  -6 2722.63 1496.81   9
  -7  17   6 2275.92 1286.83  11
   7  17  -5 1792.29 1195.10   9
  -7  17   5 1429.02 1266.11  10
   7  17  -4 2138.53 1181.54   9
  -7  17   4 5163.12 1825.48  10
   7  17  -3 9340.26 2064.91   9
   7  17  -3 8430.21 3028.76   8
  -7  17   3 7868.35 2144.49  10
  -7  17   2 680.820 889.669  10
   7  17  -2 1082.53 1071.39   9
   7  17  -2-991.041 1509.82   8
  -7  17   1 439.457 902.222  10
   7  17  -1 2253.11 1136.44   9
   7  17  -1 1479.22 2258.97   8
   7  17  -1 512.623 914.242  15
  -7  17   0-37.6327 952.415  10
   7  17   0 1961.08 1295.46   9
   7  17   0 2368.14 1974.27   8
   7  17   0-66.4322 701.546  15
  -7  17  -1-240.954 972.381  10
   7  17   1-800.334 944.570   9
   7  17   1-542.597 789.667  15
  -7  17  -2 3536.36 1365.65  10
   7  17   2 6435.18 1526.35  15
   7  17   2 3394.98 1078.48   9
  -7  17  -3 990.270 1030.08  10
   7  17   3-47.3377 663.983  15
  -7  17  -4-78.9959 787.055  10
   7  17   4 1658.97 811.361  15
  -7  17  -5 242.295 720.716  10
   7  17   5 117.239 557.670  15
  -7  17  -6-169.105 597.252  10
   7  17   6 448.263 485.160  15
   7  17   7 249.156 381.931  15
   7  18 -11 437.877 595.727   9
   7  18 -10 7065.90 1542.71   9
   7  18  -9 1595.70 994.305   9
   7  18  -9 65.4750 1342.87  12
   7  18  -8 3727.54 1354.14   9
   7  18  -7 566.306 1015.02   9
   7  18  -6 383.903 696.788   9
  -7  18   6-303.551 777.600  11
  -7  18   5-321.778 1184.36  11
  -7  18   5 48.9832 792.364  10
   7  18  -4-1538.87 1042.03   9
  -7  18   4 752.866 1051.84  10
   7  18  -3 1820.42 1928.69   8
   7  18  -3 1262.79 913.295   9
  -7  18   3-1447.49 1063.61  10
   7  18  -2 5002.28 2451.21   8
   7  18  -2 1984.91 1238.85   9
  -7  18   2 1304.66 1262.04  10
  -7  18   1 354.902 834.792  10
   7  18  -1 1263.27 1901.08   8
   7  18  -1 2718.23 1351.88   9
  -7  18   0 15285.2 2847.93  10
   7  18   0 11971.1 2105.01  15
   7  18   0 11264.5 3615.45   8
  -7  18  -1-118.996 1067.61  10
   7  18   1 939.686 856.435  15
   7  18   2 32398.0 3204.78  15
  -7  18  -2 29340.5 3684.66  10
  -7  18  -3 5804.04 1725.10  10
   7  18   3 3640.65 1125.15  15
  -7  18  -4 5941.46 1675.69  10
   7  18   4 2787.96 984.977  15
  -7  18  -5-425.008 695.516  10
   7  18   5 310.398 515.031  15
  -7  18  -6 403.187 656.479  10
   7  18   6-30.8874 393.884  15
   7  19 -11 1210.34 615.241   9
   7  19 -10 971.781 653.821   9
   7  19 -10 5561.77 2176.02  12
   7  19  -9 349.927 575.917   9
   7  19  -9 1999.23 1484.00  12
   7  19  -8 1284.34 595.199   9
   7  19  -8 2784.06 2182.52  12
   7  19  -7 4689.19 1425.09   9
   7  19  -6 946.310 680.535   9
  -7  19   6 1314.43 1121.74  11
   7  19  -5 439.280 887.384   9
  -7  19   5 2610.14 1576.33  11
   7  19  -4-18.7593 791.053   9
  -7  19   4-667.906 913.683  10
   7  19  -3 13885.5 2456.26   9
  -7  19   3 14128.1 2720.13  10
   7  19  -2-280.947 1539.76   8
  -7  19   2 1649.71 1263.64  10
  -7  19   1 1925.47 1422.55  10
   7  19  -1 3379.54 2096.28   8
  -7  19   0-88.5898 787.243  10
   7  19   0 446.080 1590.82   8
  -7  19  -1-9.19604 825.479  10
   7  19   1 68.7218 552.842  15
  -7  19  -2 765.869 1010.51  10
   7  19   2 1112.94 821.077  15
  -7  19  -3 183.131 808.154  10
   7  19   3 2166.34 910.517  15
  -7  19  -4 423.378 695.359  10
   7  19   4 1714.13 764.864  15
  -7  19  -5 928.764 731.026  10
   7  19   5 1652.97 703.162  15
  -7  19  -6-300.811 443.725  10
   7  20 -10 795.955 599.857   9
   7  20  -9 1144.20 683.272   9
   7  20  -9 1212.85 1339.38  12
   7  20  -8 1863.94 883.889   9
   7  20  -8 656.714 1761.32  12
   7  20  -7 1526.73 858.295   9
   7  20  -7-219.198 1398.49  12
  -7  20   7 305.950 938.142  11
   7  20  -6-197.027 727.666   9
  -7  20   6 70.2271 1001.84  11
  -7  20   5 242.308 982.113  11
  -7  20   4 917.141 1041.23  10
  -7  20   3 3964.34 1389.78  10
  -7  20   2 4628.58 1670.22  10
  -7  20   1 4004.45 1591.21  10
  -7  20   0 705.891 1108.74  10
  -7  20  -1 177.825 859.819  10
  -7  20  -2-877.883 948.214  10
  -7  20  -3-187.290 694.863  10
  -7  20  -4 212.849 542.639  10
  -7  20  -5-130.349 496.323  10
   7  21  -9 1904.46 1566.42  12
   7  21  -8 1147.58 1509.11  12
   7  21  -7-1960.99 1609.79  12
  -7  21   7 1171.78 1160.27  11
   7  21  -6 1729.35 1742.63  12
  -7  21   6 1633.95 1239.41  11
  -7  21   5 1703.35 1058.01  11
  -7  21   4 846.890 1242.45  11
  -7  21   4 2840.25 1421.82  10
  -7  21   3 1831.97 1006.81  10
  -7  21   2-70.1778 715.944  10
  -7  21   1 354.538 927.874  10
  -7  21   0-130.795 736.448  10
  -7  21  -1 4227.92 1534.76  10
  -7  21  -2-2145.23 1038.99  10
  -7  21  -3 471.598 747.026  10
  -7  21  -4 960.779 625.973  10
  -7  21  -5-2257.59 790.907  10
   7  22  -8 1528.99 1113.41  12
   7  22  -7 2625.95 1605.99  12
  -7  22   7 133.057 823.050   8
  -7  22   7 204.135 738.955  11
  -7  22   6-829.987 1212.46  11
  -7  22   5 836.214 1069.02  11
  -7  22   4 174.232 898.092  11
  -7  22   3 526.643 806.751  11
  -7  22   3 377.157 861.847  10
  -7  22   2 1853.96 1140.93  10
  -7  22   1 196.961 776.186  10
  -7  22   0 3023.13 1220.16  10
  -7  22  -1 1062.94 871.615  10
  -7  22  -2 2053.11 1027.49  10
  -7  22  -3-83.3385 641.312  10
  -7  22  -4 2795.92 893.972  10
  -7  23   6 771.332 915.157   8
  -7  23   6 1035.18 939.412  11
  -7  23   5 1750.51 995.816  11
  -7  23   4 1531.04 1115.87  11
  -7  23   3 5812.56 1730.38  11
  -7  23   3 7756.25 1568.74  10
  -7  23   2-126.745 635.014  10
  -7  23   1 3249.94 1187.87  10
  -7  23   0-352.888 693.956  10
  -7  23  -1 134.265 567.612  10
  -7  23  -2 1221.24 678.284  10
  -7  23  -3 1347.83 775.623  10
  -7  24   6-513.667 1009.75   8
  -7  24   6 366.041 653.412  11
  -7  24   5 238.962 767.977   8
  -7  24   5-902.753 870.140  11
  -7  24   4 1300.53 938.973  11
  -7  24   3 2315.98 1192.87  11
  -7  24   2 1617.77 955.946  11
  -7  24   2 1947.97 985.259  10
  -7  24   1 1114.90 830.892  11
  -7  24   1 2303.40 922.407  10
  -7  24   0 1661.78 724.997  10
  -7  24  -1-251.418 601.043  10
  -7  24  -2 139.950 516.871  10
  -7  25   5 1079.03 750.695   8
  -7  25   5 1914.40 946.293  11
  -7  25   4 2042.14 1149.38   8
  -7  25   4 362.645 563.119  11
  -7  25   3 1659.30 1239.73   8
  -7  25   3 164.611 697.502  11
  -7  25   2 2002.58 1136.64   8
  -7  25   2-17.8750 716.492  11
  -7  25   1 616.003 977.243   8
  -7  25   1-244.600 943.736  11
  -7  25   0-986.999 871.937  11
  -8   0  15-1014.58 405.378  14
   8   0 -14 1861.66 873.190   5
  -8   0  14 579.952 551.625  14
   8   0 -13 307.437 554.113   5
   8   0 -12 1783.74 1029.86   5
   8   0 -11-79.9758 668.956   5
   8   0 -10 41816.9 3780.96   5
   8   0  -9 494.963 724.367   3
   8   0  -9 1319.59 953.612   5
   8   0  -8 32743.3 3345.27   5
   8   0  -8 35159.6 3483.58   3
   8   0  -7 0.90195 847.713   3
   8   0  -7-569.797 806.839   5
   8   0  -6 1080.90 782.346   3
   8   0  -5-532.745 1013.50   3
   8   0  -4 2131.70 1169.31   3
   8   0  -3 2741.35 1249.76   3
   8   0  -2 1084.40 870.140   3
   8   0  -1 1421.36 1103.74   3
   8   0   0 6409.48 1452.17   3
   8   0   1-581.244 748.258  14
   8   0   1 738.899 867.824  13
   8   0   2 8219.66 1635.25  14
   8   0   2 5482.94 1398.66  13
   8   0   3 443.642 833.418  14
   8   0   3 2283.01 839.478  13
   8   0   4 38524.9 3511.99  14
   8   0   5 788.226 797.640  14
   8   0   6 777.180 909.862  14
   8   0   7 910.103 645.831  14
   8   0   8 5222.22 1137.13  14
   8   0   9 24.8353 426.503  14
  -8   1  15 643.261 375.329  14
  -8  -1  15 1078.41 511.593  14
   8  -1 -14 400.424 616.019   5
   8   1 -14-198.701 542.774   5
  -8   1  14-786.331 492.487  14
  -8  -1  14 455.851 618.238  14
   8  -1 -13 576.714 614.460   5
   8   1 -13 1370.86 907.992   5
   8  -1 -12 3744.04 1150.07   5
   8   1 -12 2184.54 1134.01   5
   8   1 -11 262.819 734.654   5
   8  -1 -11 1315.89 701.039   5
   8  -1 -10 1801.83 1119.13   5
   8   1 -10 108.530 771.536   5
   8   1  -9 5501.16 1542.07   3
   8  -1  -9 5938.84 1549.88   3
   8  -1  -9 6411.51 1671.84   5
   8   1  -9 5200.47 1456.96   5
   8  -1  -8 8247.71 1725.91   3
   8   1  -8 7763.06 1794.95   3
   8  -1  -8 8133.73 1779.51   5
   8   1  -8 6063.06 1646.12   5
   8   1  -7 8383.50 1964.68   3
   8  -1  -7 5062.56 1583.27   3
   8  -1  -7 6490.34 1649.57   5
   8   1  -7 7972.17 1865.66   5
   8   1  -6 4658.76 1457.26   3
   8  -1  -6 7506.21 1779.79   3
   8   1  -5 8586.74 1771.34   3
   8  -1  -5 8790.12 1818.69   3
   8  -1  -4 944.359 901.786   3
   8   1  -4-423.241 1074.48   3
   8   1  -3 62662.2 4339.98   3
   8  -1  -3 69151.9 4566.29   3
   8   1  -2 16046.9 2215.63   3
   8  -1  -2 15990.8 2322.11   3
   8   1  -1 15926.3 2150.71   3
   8  -1  -1 16597.1 2318.86   3
   8   1   0 10749.3 1779.08   3
   8  -1   0 12626.6 2063.63   3
   8   1   1 1187.21 787.168  14
   8  -1   1 167.262 556.750  14
   8   1   1-1.82924 777.662  13
   8   1   1 292.704 662.523   3
   8   1   2 14038.3 2018.42  14
   8  -1   2 12476.4 2021.53  14
   8  -1   2 10928.7 1954.79  13
   8   1   2 13568.2 2088.85  13
   8   1   3 4326.73 1417.27  14
   8  -1   3 2587.54 1232.78  13
   8   1   3 1714.54 926.580  13
   8  -1   3 4047.18 1299.98  14
   8  -1   4 7166.00 1686.41  14
   8   1   4 6452.70 1581.40  14
   8   1   5 9764.66 1797.99  14
   8  -1   5 10948.2 1931.14  14
   8   1   6 484.993 524.987  14
   8  -1   6 870.664 874.088  14
   8  -1   7 917.150 590.163  14
   8   1   7 938.385 804.974  14
   8  -1   8 1959.40 761.656  14
   8   1   8 1327.45 650.410  14
   8  -1   9-456.303 436.035  14
   8   1   9 948.922 511.181  14
  -8  -2  15 136.042 376.016  14
   8   2 -14 58.4357 530.420   5
  -8   2  14-347.034 414.311  14
  -8  -2  14-1001.71 566.545  14
   8  -2 -13 464.683 737.611   5
   8   2 -13 130.433 610.284   5
   8  -2 -12 1799.14 930.367   5
   8   2 -12 352.506 665.612   5
   8  -2 -11 11185.0 2000.62   5
   8   2 -11 10198.5 1854.32   5
   8  -2 -10 576.899 775.046   5
   8   2 -10 6.41277 690.585   5
   8   2  -9 2060.89 1035.50   3
   8  -2  -9 1636.66 1023.39   3
   8  -2  -9 817.382 840.503   5
   8   2  -9 950.757 717.456   5
   8   2  -8 1317.43 901.181   3
   8  -2  -8 3470.30 1324.99   3
   8  -2  -8 1234.87 871.626   5
   8   2  -8 861.349 1060.06   5
   8  -2  -7 74887.8 4845.26   5
   8   2  -7 70678.4 4708.23   5
   8   2  -7 73940.3 4914.69   3
   8  -2  -7 72958.7 4852.72   3
   8   2  -6 353.912 737.735   3
   8  -2  -6-1000.37 1193.13   3
   8   2  -5 11491.3 1953.47   3
   8  -2  -5 12120.9 2057.39   3
   8  -2  -4 1321.13 972.249   3
   8   2  -4 2516.82 1286.54   3
   8   2  -3 27469.8 2923.51   3
   8  -2  -3 28573.3 3057.45   3
   8   2  -2 43.4660 856.345   3
   8  -2  -2-125.689 1015.09   3
   8   2  -1 1469.94 964.826   3
   8  -2  -1 2018.44 1104.62   3
   8   2   0 1512.01 1158.86   3
   8   2   0 3814.11 1353.98  13
   8   2   1 447.596 1009.89  13
   8   2   1-613.475 911.492   3
   8   2   1-823.384 731.844  14
   8  -2   1-118.245 806.653  14
   8  -2   2 7046.49 1556.95  14
   8   2   2 6420.72 1394.70  14
   8   2   2 4503.45 1366.55  13
   8  -2   3 65873.9 4476.96  14
   8   2   3 64339.7 4776.01  13
   8   2   3 68268.3 4520.31  14
   8   2   4-139.343 569.688  14
   8  -2   4 689.418 655.922  14
   8   2   5 6292.17 1407.47  14
   8  -2   5 5228.40 1436.25  14
   8   2   6 683.998 603.119  14
   8  -2   6 1257.43 850.564  14
   8   2   7 2614.35 937.961  14
   8  -2   7 3518.26 1069.04  14
   8   2   8 683.632 597.714  14
   8  -2   8 1574.57 736.730  14
   8  -2   9 371.078 436.946  14
   8   2   9 316.905 335.235  14
  -8  -3  15 679.389 405.161  14
  -8   3  14 1141.94 531.569  14
  -8  -3  14-362.452 507.046  14
   8  -3 -13 4585.38 1275.37   5
   8   3 -13 4862.08 1275.45   5
   8   3 -12-584.722 883.091   9
   8  -3 -12 840.810 836.057   5
   8   3 -12-462.953 707.459   5
   8  -3 -11 1340.14 638.577   5
   8   3 -11 2257.85 1082.10   9
   8   3 -11 804.222 753.473   5
   8   3 -10 4764.22 1430.52   9
   8  -3 -10 3955.29 1203.08   5
   8   3 -10 3857.05 1266.39   5
   8   3  -9 9912.58 1794.61   3
   8   3  -9 9929.05 2130.77   9
   8  -3  -9 10425.6 1896.54   3
   8  -3  -9 10731.6 2010.86   5
   8   3  -9 14509.8 2266.03   5
   8   3  -8 4312.93 1628.75   9
   8   3  -8 3309.18 1231.00   3
   8  -3  -8 2247.82 1264.77   3
   8  -3  -8 1338.65 965.550   5
   8   3  -8 2560.76 1208.53   5
   8   3  -7 1633.93 1271.48   9
   8   3  -7 2491.58 1261.04   3
   8  -3  -7 3094.92 1250.60   5
   8   3  -7 478.764 1116.08   5
   8  -3  -7 1406.65 1171.32   3
   8   3  -6 119.742 926.093   3
   8  -3  -6 438.216 783.868   3
   8   3  -5 6406.46 1682.42   3
   8  -3  -5 6257.52 1587.76   3
   8  -3  -4-45.5083 775.603   3
   8   3  -4 588.099 910.289   3
   8   3  -3 53369.6 3958.64   3
   8  -3  -3 59856.4 4281.70   3
   8   3  -2 1935.30 887.861   3
   8  -3  -2 2727.49 1133.53   3
   8   3  -1 944.900 738.871   3
   8  -3  -1 539.382 1064.09   3
   8   3   0 11319.1 2047.16  13
   8   3   0 10581.8 1872.03   3
   8  -3   1 667.655 653.551  14
   8   3   1-797.292 723.418  14
   8   3   1 896.261 776.908   3
   8   3   1-781.348 813.178  13
   8   3   2 2361.40 806.284  14
   8  -3   2 2960.06 1163.95  14
   8   3   2 944.284 904.316  13
   8  -3   3 7649.23 1662.92  14
   8   3   3 7271.52 1528.03  14
   8   3   3 10417.6 2128.33  13
   8  -3   4 7100.95 1640.26  14
   8   3   4 9262.17 1706.29  14
   8   3   5 1959.55 1088.18  14
   8  -3   5 279.928 643.055  14
   8   3   6 146.769 547.474  14
   8  -3   6 2621.74 988.232  14
   8   3   7-267.487 465.121  14
   8  -3   7 1496.34 798.326  14
   8  -3   8 90.6059 459.239  14
   8   3   8-47.0841 468.005  14
   8  -3   9 167.175 419.430  14
  -8  -4  15-381.177 382.015  14
  -8   4  14 203.528 396.191  14
  -8  -4  14 480.851 393.670  14
   8   4 -13-818.885 931.728   9
   8  -4 -13 112.340 592.823   5
   8   4 -13 804.056 742.916   5
   8   4 -12 299.267 733.516   9
   8  -4 -12 1917.52 892.582   5
   8   4 -12 192.901 581.761   5
   8   4 -11 270.948 811.533   9
   8  -4 -11 1050.11 897.388   5
   8   4 -11 851.179 672.807   5
   8   4 -10 10395.4 2067.34   9
   8  -4 -10 10705.1 2042.49   5
   8   4 -10 10210.9 1884.15   5
   8   4  -9 6067.47 1570.24   3
   8   4  -9 8998.00 2084.98   9
   8  -4  -9 5161.03 1350.15   3
   8  -4  -9 4338.61 1305.24   5
   8   4  -9 6301.16 1661.33   5
   8   4  -8 39515.1 3992.34   9
   8  -4  -8 42002.7 3771.11   5
   8   4  -8 44189.8 3795.73   5
   8   4  -8 48096.1 4078.08   3
   8  -4  -8 44223.3 3849.35   3
   8   4  -7 10913.9 2245.06   9
   8   4  -7 14195.0 2240.95   3
   8  -4  -7 10757.3 2031.16   5
   8   4  -7 11872.0 2170.45   5
   8  -4  -7 10990.8 1976.41   3
   8   4  -6 457.340 907.598   3
   8   4  -6-573.074 754.067   5
   8   4  -5 1026.72 925.441   3
   8  -4  -5 1762.45 1077.04   3
   8  -4  -4-836.922 950.634   3
   8   4  -4-394.623 721.901   3
   8  -4  -3 1666.31 1287.16   3
   8   4  -3 1890.04 1170.08   3
   8   4  -2 4342.82 1341.01   3
   8  -4  -2 4005.74 1368.68   3
   8   4  -1 1973.26 938.621   3
   8  -4  -1 2512.63 1017.00   3
   8   4   0 3321.82 1022.66   3
   8   4   0 4188.59 1432.89  13
   8   4   1 4606.58 1359.73  13
   8  -4   1 5190.93 1253.08  14
   8   4   1 6236.50 1217.98  14
   8  -4   2 23288.3 2647.02  14
   8   4   2 19523.9 2718.66  13
   8   4   2 20642.1 2483.30  14
   8  -4   3 217.030 609.374  14
   8   4   3 1995.34 864.542  14
   8   4   3 645.566 760.029  13
   8   4   4 1048.47 793.201  14
   8  -4   4 1037.53 747.438  14
   8   4   5 268.967 532.206  14
   8  -4   5-85.3352 636.549  14
   8   4   6-134.935 582.038  14
   8  -4   6-130.973 514.708  14
   8   4   7 193.750 451.978  14
   8  -4   7-207.168 523.395  14
   8   4   8 1813.26 709.874  14
   8  -4   8 1059.45 594.546  14
   8  -4   9-480.305 440.864  14
  -8  -5  15 99.2630 311.639  14
  -8  -5  14 210.271 579.893  14
   8   5 -13 3291.19 1150.04   9
   8  -5 -13 2816.35 957.689   5
   8   5 -13 2320.47 954.289   5
   8   5 -12 4182.25 1377.69   9
   8  -5 -12 3518.11 1237.65   5
   8   5 -12 2272.88 953.539   5
   8   5 -11 4369.01 1491.22   9
   8   5 -11 5008.13 1372.52   5
   8  -5 -11 4296.97 1294.29   5
   8   5 -10 8693.29 2011.65   9
   8  -5 -10 7873.45 1713.45   5
   8   5 -10 7157.49 1690.28   5
   8   5  -9 6454.59 1622.37   3
   8   5  -9 5552.89 1697.67   9
   8  -5  -9 4423.90 1233.22   3
   8  -5  -9 5933.64 1539.54   5
   8   5  -9 6554.24 1694.05   5
   8   5  -8-163.942 778.930   3
   8   5  -8 1549.66 1193.55   9
   8  -5  -8 1181.91 997.522   3
   8  -5  -8 1457.51 935.535   5
   8   5  -8 1282.41 1059.75   5
   8   5  -7 17028.4 2653.08   9
   8   5  -7 17244.3 2375.33   3
   8  -5  -7 17846.3 2324.78   5
   8   5  -7 17784.6 2545.29   5
   8  -5  -7 16840.5 2442.02   3
   8   5  -6 4406.87 1144.41   9
   8   5  -6 5508.03 1525.65   3
   8  -5  -6 8550.60 1677.72   5
   8   5  -6 7515.17 1771.19   5
   8  -5  -6 5679.47 1470.17   3
   8   5  -5 1075.23 834.433   3
   8  -5  -5 2948.48 1283.37   3
   8  -5  -4 4927.91 1471.72   3
   8   5  -4 3625.47 1188.92   3
   8   5  -3 35344.5 3265.03   3
   8  -5  -3 40550.1 3556.41   3
   8   5  -2 20595.3 2506.00   3
   8  -5  -2 23857.7 2815.39   3
   8   5  -1 11345.4 1859.94   3
   8  -5  -1 11289.3 2001.97   3
   8  -5   0 5806.08 1378.94  14
   8   5   0 5117.20 1386.09  13
   8  -5   1 1628.17 690.190  14
   8   5   1 2526.45 1108.84  14
   8   5   1 3658.00 1373.70  13
   8   5   2 1200.89 839.618  14
   8  -5   2 173.274 764.337  14
   8   5   2 519.117 879.551  13
   8  -5   3 1068.93 856.144  14
   8   5   3 2705.49 1138.22  14
   8   5   3 616.974 750.875  13
   8   5   4 634.160 657.027  14
   8  -5   4 30.0289 567.723  14
   8   5   5 1662.71 856.303  14
   8  -5   5 3642.98 1171.77  14
   8  -5   6 720.119 787.327  14
   8   5   6-104.951 594.676  14
   8  -5   7 900.339 595.598  14
   8   5   7 1991.87 910.726  14
   8  -5   8 1525.74 675.973  14
   8  -5   9-738.774 428.099  14
  -8  -6  14 217.183 485.125  14
   8   6 -13-262.407 662.001   9
   8  -6 -13-283.080 566.055   5
   8   6 -13 539.571 596.117   5
   8   6 -12 1133.83 923.010   9
   8  -6 -12 220.675 683.908   5
   8   6 -12 958.600 745.536   5
   8   6 -11 11029.0 2250.43   9
   8   6 -11 10615.8 1970.39   5
   8  -6 -11 12546.6 2036.80   5
   8   6 -10 938.227 1068.90   9
   8   6 -10 1566.96 1006.82   5
   8  -6 -10 250.993 671.890   5
   8   6  -9 2106.06 1148.00   9
   8   6  -9 4245.12 1364.59   5
   8   6  -8 442.137 708.474   3
   8  -6  -8 838.320 858.746   3
   8  -6  -8 1191.05 856.358   5
   8   6  -8 503.284 954.278   9
   8   6  -7 21053.9 2985.82   9
   8  -6  -7 23726.0 2747.78   5
   8   6  -7 20760.0 2602.74   5
   8   6  -7 21804.8 2730.48   3
   8  -6  -7 21552.4 2648.39   3
   8   6  -6 503.918 801.660   3
   8  -6  -6 1647.87 1089.40   5
   8   6  -6-2028.95 1037.32   5
   8  -6  -6 647.832 795.171   3
   8   6  -6-704.681 1104.06   9
   8   6  -5 14522.7 2268.75   3
   8  -6  -5 16769.5 2415.57   3
   8  -6  -4 481.456 851.278   3
   8   6  -4 836.930 696.162   3
   8  -6  -3 4518.39 1613.43   3
   8   6  -3 8006.29 1599.89   3
   8  -6  -2 8292.00 1786.28   3
   8  -6  -1 449.540 813.629   3
   8   6   0 6885.99 1637.93   5
   8  -6   0 4674.05 1192.63  14
   8   6   0 6807.44 1639.65  13
   8  -6   0 6880.33 1615.58   5
   8  -6   1 2265.38 891.644  14
   8   6   1 2203.79 941.700  13
   8   6   2-708.914 733.474  13
   8  -6   2 538.907 711.607  14
   8  -6   3 16733.9 2284.22  14
   8   6   3 16357.5 2158.38  14
   8   6   4 442.796 579.693  14
   8  -6   4 979.598 810.070  14
   8   6   5 9583.80 1673.14  14
   8  -6   5 9522.21 1837.03  14
   8  -6   6 389.990 475.928  14
   8  -6   7 5532.83 1239.74  14
   8  -6   8 145.797 493.294  14
   8  -6   9 877.185 435.775  14
  -8  -7  14-1380.88 721.666  14
   8   7 -13 5745.64 1420.13   9
   8  -7 -13 6634.28 1241.40   5
   8   7 -13 5106.14 1174.88   5
   8   7 -12 2849.33 1114.31   9
   8  -7 -12 2040.82 925.291   5
   8   7 -12 2187.79 958.170   5
   8   7 -11 1801.82 1033.29   9
   8  -7 -11 1693.70 961.148   5
   8   7 -11-11.8802 581.338   5
   8   7 -10 1852.10 1137.28   9
   8   7 -10 1614.22 989.560   5
   8  -7 -10 3454.36 1219.39   5
   8   7  -9 335.110 946.273   9
   8  -7  -9 1486.40 1092.38   5
   8   7  -9 266.577 673.831   5
   8   7  -8 12767.0 2111.87   3
   8  -7  -8 9306.93 1657.09   3
   8  -7  -8 12049.2 2066.78   5
   8   7  -8 9656.05 2001.20   5
   8   7  -8 12744.7 2404.73   9
   8   7  -7-627.269 759.613   3
   8   7  -7-1206.18 1056.31   9
   8  -7  -7 632.362 682.069   5
   8   7  -7 469.229 679.959   5
   8  -7  -7-395.641 637.181   3
   8   7  -6-1272.89 1207.40   9
   8  -7  -6 1476.53 961.575   5
   8   7  -6 1535.69 1004.58   5
   8  -7  -6-113.952 924.203   3
   8   7  -6 984.563 711.039   3
   8   7  -5 1663.42 1084.05   9
   8   7  -5 2313.48 980.281   3
   8   7  -5 3004.59 981.539   5
   8  -7  -5 4375.59 1463.34   3
  -8   7   5 2256.49 1433.55  10
   8  -7  -4 1107.70 851.806   3
   8   7  -4 751.236 934.854   9
   8   7  -4 288.029 657.107   3
   8  -7  -3 14262.6 2283.88   3
   8   7  -2 17010.4 2551.07   9
   8  -7  -2 12588.2 2055.81   3
   8  -7  -1 4724.65 1506.94   3
   8   7  -1 3357.20 1219.26   5
   8   7   0 7954.02 1430.81  15
   8  -7   0 5651.67 1331.62  14
   8   7   0 8019.91 1696.11  13
   8   7   0 8184.59 1616.17   5
   8  -7   1 12020.8 1897.94  14
   8   7   1 9281.36 1788.76  13
   8   7   2 5701.98 1974.45  13
   8  -7   2 466.100 557.825  14
   8  -7   3 4070.96 1257.47  14
   8  -7   4 96.1927 515.213  14
   8  -7   5 754.541 665.044  14
   8  -7   6 1383.16 813.948  14
   8  -7   7 366.995 565.938  14
   8  -7   8 496.972 450.686  14
  -8  -8  14-72.7281 369.455  14
   8   8 -13-425.569 587.081   9
   8   8 -13-98.0532 497.909   5
   8   8 -12 1071.28 652.837   9
   8  -8 -12 1208.26 662.166   5
   8   8 -11-767.198 1043.08   9
   8  -8 -11 659.114 870.435   5
   8   8 -11-1162.64 788.407   5
   8   8 -10 7201.51 1947.53   9
   8  -8 -10 9239.83 1730.74   5
   8   8 -10 7737.78 1677.73   5
   8   8  -9-1270.16 982.545   9
   8  -8  -9 99.5801 822.308   5
   8   8  -9-631.663 1057.51   5
   8   8  -8 41069.5 4266.95   9
   8  -8  -8 42586.4 3616.57   5
   8   8  -8 44682.1 3757.85   5
   8   8  -8 46173.3 3962.90   3
   8   8  -7 10288.1 1920.57   3
   8   8  -7 7715.62 1998.48   9
   8   8  -7 11107.6 1995.28   5
   8  -8  -7 11375.5 1952.09   3
   8   8  -6 5805.80 1373.51   3
   8   8  -6 6675.06 1852.22   9
   8   8  -6 6353.04 1496.30   5
   8  -8  -6 5790.61 1395.16   3
   8   8  -5 3693.98 1471.63   9
   8   8  -5 3293.16 1180.51   3
   8  -8  -5 3271.11 1174.32   3
  -8   8   5 2463.74 1584.87  10
   8  -8  -4-357.064 787.316   3
   8   8  -4 207.935 1084.84   9
  -8   8   4-835.971 935.996  10
   8  -8  -3 451.175 753.141   3
   8   8  -3-608.954 1103.92   9
  -8   8   3-1162.02 1071.51  10
   8   8  -2-179.297 769.933   9
   8  -8  -2-180.672 752.382   3
  -8   8   2-1.11192 766.913  10
  -8   8   1 1829.03 1428.34  10
   8   8  -1 412.337 702.696  15
   8  -8  -1 1458.34 784.195   3
   8   8  -1 487.892 772.765   5
  -8   8   0 6209.94 1989.67  10
   8   8   0 5945.10 1357.89  15
   8  -8   0 3765.63 1078.55  14
   8   8   0 4427.62 1357.54  13
   8   8   0 6638.03 1758.96   5
  -8   8  -1-327.393 1151.42  10
   8   8   1-339.829 813.117  13
   8  -8   1 1303.36 777.747  14
   8  -8   2 8488.70 1672.59  14
   8   8   2 11073.3 2089.88  13
   8  -8   3 4284.28 1228.97  14
   8  -8   4 609.806 512.123  14
   8  -8   5-266.919 687.048  14
   8  -8   6 1679.74 893.684  14
   8  -8   7-211.986 460.684  14
   8  -8   8-612.759 525.268  14
  -8  -9  14-193.835 393.391  14
   8   9 -13 478.792 759.172   9
  -8  -9  13-120.808 444.631  14
   8   9 -12 559.836 755.057   9
   8   9 -11 3207.26 1276.97   9
   8   9 -10 8394.21 2090.77   9
   8   9  -9-289.682 975.062   9
   8   9  -8 7757.44 1945.94   9
   8   9  -7 2556.82 1115.27   3
   8   9  -7 295.828 833.870   9
   8   9  -6 9505.45 1802.86   3
   8   9  -6 10404.6 2144.92   9
   8  -9  -6 11475.5 1860.60   3
   8   9  -5 2398.10 1234.49   9
   8  -9  -5 2124.89 1027.28   3
  -8   9   5 889.863 964.885  10
   8  -9  -4-479.190 864.299   3
   8   9  -4 530.849 953.530   9
  -8   9   4-580.067 950.079  10
   8   9  -3 17656.6 2693.83   9
   8  -9  -3 20031.5 2553.02   3
  -8   9   3 21894.9 3134.50  10
   8   9  -2 1996.90 888.361  15
   8   9  -2 1445.87 1031.20   9
   8  -9  -2 2663.55 1196.80   3
  -8   9   2 3559.27 1466.44  10
  -8   9   1 9413.40 2220.60  10
   8   9  -1 11376.3 1748.62  15
   8  -9  -1 9455.10 1978.67   3
  -8   9   0 5316.11 1624.01  10
   8   9   0 6574.98 1394.82  15
   8   9   0 5825.69 1543.77  13
  -8   9  -1 1055.88 694.465  10
   8   9   1 212.077 877.162  15
   8  -9   1 1725.88 851.312  14
   8   9   1 3369.19 1238.71  13
  -8   9  -2 6376.67 1745.16  10
   8  -9   2 7239.69 1500.56  14
   8  -9   3 1457.57 916.701  14
   8  -9   4 1213.41 845.325  14
   8  -9   5-740.011 734.528  14
   8  -9   6 681.787 537.538  14
   8  -9   7 600.489 567.942  14
   8   9   8-19.9030 397.644  15
   8  -9   8 57.7881 389.179  14
   8  10 -13 460.787 730.060   9
  -8 -10  13 1419.39 556.810  14
   8  10 -12 1337.38 916.844   9
   8  10 -11 3620.56 1361.10   9
   8  10 -10 1443.85 1018.00   9
   8  10  -9 2415.47 1213.27   9
   8  10  -8 12126.1 2458.24   9
   8  10  -7 12572.9 2473.17   9
   8  10  -6 1005.35 1058.23   9
   8  10  -5 7447.46 2151.56   9
   8 -10  -5 4286.67 1221.41   3
  -8  10   5 3802.70 1585.94  10
   8 -10  -4-608.341 625.436   3
   8  10  -4 566.895 1198.83   9
  -8  10   4 229.215 727.766  10
   8 -10  -3 1012.69 889.406   3
   8  10  -3 4079.46 1605.53   9
   8  10  -3 2899.14 1175.09  15
  -8  10   3 1713.71 1251.77  10
   8  10  -2 6490.56 1522.15  15
   8  10  -2 6157.82 1816.56   9
   8 -10  -2 4819.91 1325.51   3
  -8  10   2 4473.40 1686.96  10
  -8  10   1 166.541 996.597  10
   8  10  -1 332.866 701.483  15
   8 -10  -1 2147.46 1099.94   3
  -8  10   0-653.120 836.437  10
   8  10   0 340.878 589.747  15
   8  10   0-920.905 914.269  13
  -8  10  -1 489.316 726.322  10
   8  10   1 610.282 817.584  15
  -8  10  -2 1230.44 766.779  10
   8 -10   2 843.250 722.721  14
   8  10   2 339.074 727.232  15
  -8  10  -3 3286.10 1432.14  10
   8 -10   3 4267.29 1199.71  14
   8 -10   4 323.891 564.793  14
   8 -10   5 7675.58 1512.20  14
   8 -10   6-1058.64 650.668  14
   8  10   7 6543.23 1224.61  15
   8 -10   7 4906.55 1005.34  14
   8  10   8-105.004 441.041  15
   8  11 -13 2801.63 956.026   9
  -8 -11  13 2597.88 754.961  14
   8  11 -12 320.902 707.044   9
   8  11 -11-683.950 781.823   9
   8  11 -10 3140.30 1558.26   9
   8  11  -9-296.096 709.377   9
   8  11  -8 183.598 732.942   9
   8  11  -7-131.303 959.025   9
   8  11  -6 2052.88 1279.26   9
   8  11  -5 19730.5 3011.24   9
  -8  11   5 16081.4 2929.39  10
   8 -11  -4 4255.46 1101.35   3
   8  11  -4 4736.19 1651.43   9
  -8  11   4 4681.29 1714.75  10
   8 -11  -3 2372.76 972.782   3
   8  11  -3 1881.31 1251.93   9
   8  11  -3 1327.01 830.089  15
  -8  11   3 1037.65 1071.04  10
   8  11  -2 3406.94 1096.44  15
   8 -11  -2 3998.03 1332.96   3
   8  11  -2 3855.05 1429.40   9
  -8  11   2 2808.04 1319.41  10
  -8  11   1 3513.27 1440.70  10
   8  11  -1 4834.13 1229.70  15
   8  11  -1 2838.72 1361.79   9
   8 -11  -1 3686.64 1367.19   3
  -8  11   0 14721.7 2653.48  10
   8  11   0 13417.9 2111.92  15
   8  11   0 10552.6 1947.75  13
  -8  11  -1-2052.22 1239.24  10
   8  11   1-721.196 723.764  15
  -8  11  -2 8959.56 2087.23  10
   8  11   2 7402.65 1588.78  15
  -8  11  -3 3067.74 1205.91  10
   8  11   3 2237.21 915.982  15
  -8  11  -4 764.179 828.976  10
   8 -11   4 1618.75 720.916  14
   8  11   4 867.441 561.512  15
   8  11   5 1978.68 897.753  15
   8 -11   5 1468.58 704.527  14
   8  11   6 1265.23 713.010  15
   8 -11   6 1749.48 709.860  14
   8  11   7 890.566 581.136  15
   8 -11   7-71.2167 457.180  14
   8  11   8 820.235 550.923  15
   8  12 -13 1256.26 600.171   9
   8  12 -12-607.818 784.554   9
  -8 -12  12-435.877 389.631  14
   8  12 -11-101.184 754.605   9
   8  12 -10 6047.57 1689.96   9
   8  12  -9 599.280 931.298   9
   8  12  -8 13694.1 2627.33   9
   8  12  -7-404.885 820.570   9
   8  12  -6 8869.41 2165.16   9
   8  12  -5 2762.34 1406.01   9
  -8  12   5 3947.17 1808.77  10
   8  12  -4 560.984 1301.86   9
  -8  12   4-1796.07 1141.37  10
   8  12  -3 735.918 977.294   9
  -8  12   3 364.856 833.785  10
   8 -12  -2 7613.57 1615.85   3
   8  12  -2 6656.90 1912.31   9
   8  12  -2 8990.64 1750.94  15
  -8  12   2 5483.79 1819.51  10
  -8  12   1 940.174 845.100  10
   8  12  -1 590.034 620.657  15
   8  12  -1 1853.52 1296.82   9
   8 -12  -1 1197.07 976.243   3
  -8  12   0 3601.72 1327.28  10
   8  12   0 4456.62 1226.14  15
   8  12   0 3923.03 1552.81   9
  -8  12  -1 54.0731 808.526  10
   8  12   1 239.378 555.787  15
  -8  12  -2 7219.27 1923.17  10
   8  12   2 5613.80 1476.11  15
  -8  12  -3 3965.49 1496.82  10
   8  12   3 3749.63 1240.44  15
  -8  12  -4 4843.93 1480.57  10
   8  12   4 3642.50 1123.60  15
   8  12   5 2327.76 951.498  15
   8  12   6 693.665 497.677  15
   8  12   7-59.6161 384.591  15
   8  13 -13 1967.96 791.280   9
   8  13 -12 859.175 605.103   9
   8  13 -11 1446.74 918.581   9
   8  13 -10 1920.60 1057.44   9
   8  13  -9 176.364 812.222   9
   8  13  -8 464.639 1019.25   9
   8  13  -7 2086.67 1416.49   9
   8  13  -6 3994.23 1576.36   9
   8  13  -5 14211.1 2660.69   9
  -8  13   5 10516.8 2562.45  10
   8  13  -4 846.430 971.164   9
  -8  13   4 1509.40 1229.38  10
   8  13  -3 5173.06 1767.30   9
  -8  13   3 2112.25 1360.08  10
   8  13  -2 622.124 784.746   9
   8  13  -2 221.221 615.611  15
  -8  13   2 508.178 892.050  10
  -8  13   1 2568.87 1502.35  10
   8  13  -1-322.269 880.151   9
   8  13  -1 1480.75 856.426  15
  -8  13   0 3954.98 1391.84  10
   8  13   0 5111.64 1412.46  15
   8  13   0 4485.98 1559.24   9
  -8  13  -1 1430.10 1054.99  10
   8  13   1-156.559 776.691  15
   8  13   1-410.582 1198.82   9
  -8  13  -2 2530.31 1123.32  10
   8  13   2 1946.37 953.817  15
  -8  13  -3 400.121 822.971  10
   8  13   3 282.728 522.094  15
  -8  13  -4-718.222 829.713  10
   8  13   4 971.789 621.097  15
  -8  13  -5 167.266 610.468  10
   8  13   5-19.7501 621.689  15
   8  13   6 544.101 598.519  15
   8  13   7 602.023 392.638  15
   8  14 -13-715.145 468.441   9
   8  14 -12-88.2885 664.211   9
   8  14 -11 1806.39 922.582   9
   8  14 -10 908.473 811.067   9
   8  14  -9 772.563 815.631   9
   8  14  -8 1665.80 1132.05   9
   8  14  -7 570.426 820.588   9
   8  14  -6 366.177 901.439   9
   8  14  -5 7618.85 1994.84   9
  -8  14   5 7559.92 2207.61  10
   8  14  -4 4738.56 1724.18   9
  -8  14   4 4541.85 1726.47  10
   8  14  -3 4839.40 1562.12   9
  -8  14   3 5567.16 1863.52  10
   8  14  -2 312.529 918.777  15
   8  14  -2 29.9720 849.958   9
  -8  14   2 433.571 819.396  10
  -8  14   1-27.5477 837.896  10
   8  14  -1 1478.53 885.490  15
   8  14  -1 712.841 1034.18   9
  -8  14   0 341.289 931.469  10
   8  14   0-30.2718 592.468  15
   8  14   0 18.9679 875.467   9
  -8  14  -1 671.551 745.647  10
   8  14   1 561.245 829.864   9
   8  14   1 699.644 734.448  15
  -8  14  -2 1470.32 1004.16  10
   8  14   2 672.501 749.824  15
   8  14   2-155.008 868.213   9
  -8  14  -3 3208.86 1375.90  10
   8  14   3 3301.66 1073.86  15
  -8  14  -4 438.976 850.116  10
   8  14   4-587.732 647.690  15
  -8  14  -5 9543.56 1755.10  10
   8  14   5 8951.28 1549.62  15
   8  14   6 1143.25 618.513  15
   8  14   7 3066.95 720.074  15
   8  15 -12 1648.03 794.086   9
   8  15 -11 641.371 647.049   9
   8  15 -10 1110.23 963.373   9
   8  15  -9-75.0276 660.827   9
   8  15  -8 763.186 862.719   9
   8  15  -7-1048.66 1066.56   9
   8  15  -6-183.643 825.877   9
   8  15  -5 4790.04 1592.03   9
  -8  15   5 2625.63 1430.50  10
   8  15  -4 3808.38 1374.16   9
  -8  15   4 3759.63 1389.28  10
   8  15  -3 13331.0 2598.11   9
  -8  15   3 9829.79 2352.97  10
   8  15  -2 1197.03 944.582   9
  -8  15   2 1667.33 1208.52  10
  -8  15   1 7180.96 1985.86  10
   8  15  -1 6787.55 1879.74   9
   8  15  -1 5991.58 1479.73  15
   8  15   0-343.163 782.224   9
   8  15   0-91.2362 612.638  15
  -8  15  -1 791.635 1054.26  10
   8  15   1 197.696 920.272   9
   8  15   1 1050.51 871.050  15
  -8  15  -2 5202.94 1661.67  10
   8  15   2 4098.37 1226.98  15
   8  15   2 5096.24 1629.24   9
  -8  15  -3 2.09220 668.003  10
   8  15   3 833.831 676.262  15
   8  15   3 1808.70 870.234   9
  -8  15  -4 1632.23 992.679  10
   8  15   4 2213.26 855.923  15
   8  15   4 3455.17 1154.38   9
  -8  15  -5 9.92530 660.666  10
   8  15   5 319.201 491.814  15
   8  15   5 410.328 534.522   9
   8  15   6 182.843 479.402  15
   8  15   6 1032.88 690.944   9
   8  16 -12-391.898 517.856   9
   8  16 -11 465.137 580.844   9
   8  16 -10 1773.64 1092.84   9
   8  16  -9 765.391 773.765   9
   8  16  -8 6326.94 1849.29   9
   8  16  -7-522.708 1067.75   9
   8  16  -6 1782.19 1313.90   9
   8  16  -5 982.145 1299.44   9
  -8  16   5-204.901 995.835  10
   8  16  -4 302.776 722.458   9
  -8  16   4 592.911 944.746  10
   8  16  -3 61.6289 745.261   9
  -8  16   3-96.8352 773.855  10
   8  16  -2 562.681 732.355   9
  -8  16   2 519.785 887.458  10
  -8  16   1 1733.25 1168.63  10
   8  16  -1 516.946 838.129  15
   8  16  -1 1839.82 1288.71   9
  -8  16   0 214.459 893.174  10
   8  16   0-303.008 652.986  15
   8  16   0 553.886 811.513   9
  -8  16  -1 1074.08 810.373  10
   8  16   1 1200.90 912.386  15
   8  16   1 699.366 934.423   9
  -8  16  -2 3269.90 1401.03  10
   8  16   2 4490.61 1205.79  15
   8  16   2 3549.20 1427.67   9
  -8  16  -3-93.0516 741.846  10
   8  16   3 542.562 687.144  15
   8  16   3 2002.38 1123.82   9
  -8  16  -4 1420.65 950.535  10
   8  16   4 1424.73 779.331  15
   8  16   4 2551.14 1124.01   9
  -8  16  -5-484.791 539.347  10
   8  16   5 680.794 587.243  15
   8  16   5 420.342 536.589   9
   8  16   6 414.718 464.541  15
   8  17 -11 334.692 494.139   9
   8  17 -10 520.003 717.666   9
   8  17  -9 1090.89 900.073   9
   8  17  -8 120.490 687.795   9
   8  17  -7 949.903 868.472   9
   8  17  -6 1610.73 1106.02   9
   8  17  -5 2420.21 1265.25   9
  -8  17   5 3619.03 1579.13  10
   8  17  -4 2891.79 1427.40   9
  -8  17   4 384.397 869.442  10
   8  17  -3 4267.39 1343.52   9
  -8  17   3 2935.97 1430.65  10
   8  17  -2 3737.70 1459.24   9
  -8  17   2 3767.26 1675.13  10
   8  17  -1 1351.36 927.796   9
  -8  17   1 511.457 778.616  10
  -8  17   0 476.993 740.921  10
   8  17   0 771.154 688.865  15
   8  17   0 265.867 751.750   9
  -8  17  -1 472.709 999.403  10
   8  17   1 416.789 559.594  15
   8  17   1-554.547 940.040   9
  -8  17  -2-1134.90 1162.62  10
   8  17   2-373.274 655.098  15
   8  17   2-312.071 695.123   9
  -8  17  -3 811.725 826.272  10
   8  17   3-80.8364 462.835  15
   8  17   3 1087.21 761.394   9
  -8  17  -4-712.403 618.434  10
   8  17   4-47.8999 484.091  15
   8  17   4-676.078 644.148   9
  -8  17  -5 422.193 757.747  10
   8  17   5-1417.71 584.480  15
   8  18 -11 862.154 462.853   9
   8  18 -10 1813.07 905.850   9
   8  18  -9 529.882 879.479   9
   8  18  -8-135.219 634.676   9
   8  18  -7 672.739 786.884   9
   8  18  -6 1193.10 1095.42   9
   8  18  -5 3688.02 1399.46   9
  -8  18   5 2335.90 1195.16  11
   8  18  -4 352.630 1025.08   9
  -8  18   4 3018.95 1456.41  10
   8  18  -3 6958.49 1810.85   9
  -8  18   3 5203.92 1718.77  10
   8  18  -2 561.296 879.664   9
  -8  18   2 1083.98 1202.56  10
   8  18  -1-278.031 629.323   9
  -8  18   1-225.363 717.617  10
  -8  18   0 118.929 681.545  10
   8  18   0 1738.30 988.060   9
  -8  18  -1-454.679 722.902  10
   8  18   1 303.947 816.197  15
   8  18   1 1165.46 918.479   9
  -8  18  -2 283.652 843.695  10
   8  18   2 920.767 695.945  15
   8  18   2-568.830 681.009   9
  -8  18  -3 921.179 861.535  10
   8  18   3 1765.72 712.041  15
  -8  18  -4 354.165 617.616  10
   8  18   4 176.888 603.022  15
  -8  18  -5 1961.63 810.979  10
   8  18   5 2692.76 740.756  15
   8  19 -10-482.780 607.448   9
   8  19  -9 1307.06 721.759   9
   8  19  -8 15.6223 577.233   9
   8  19  -7 482.037 600.050   9
   8  19  -6 831.760 939.749   9
   8  19  -5 1874.57 1109.42   9
  -8  19   5 1619.08 912.619  11
   8  19  -4-2625.71 1133.75   9
  -8  19   4 585.645 874.640  10
   8  19  -3 3287.17 1308.78   9
  -8  19   3 2343.79 1423.83  10
   8  19  -2 12145.2 2157.54   9
  -8  19   2 11520.6 2357.97  10
   8  19  -1-2363.60 1131.44   9
  -8  19   1-433.638 1004.55  10
   8  19   0 1922.77 1023.15   9
  -8  19   0 633.783 887.230  10
  -8  19  -1 338.981 879.268  10
  -8  19  -2 2132.68 1078.57  10
  -8  19  -3 502.194 634.496  10
  -8  19  -4 1757.82 813.901  10
   8  20  -9 2459.11 916.988   9
   8  20  -8 6086.55 1356.16   9
   8  20  -7-598.894 675.221   9
   8  20  -6 747.888 714.075   9
   8  20  -5 343.737 662.231   9
  -8  20   5-1017.11 1009.42  11
  -8  20   4-482.250 831.352  11
  -8  20   4 784.775 901.900  10
   8  20  -3 844.688 924.565   9
  -8  20   3 928.179 975.171  10
  -8  20   2-15.1049 701.288  10
  -8  20   1 1207.14 962.028  10
  -8  20   0 259.703 772.587  10
  -8  20  -1-407.699 692.857  10
  -8  20  -2 4474.68 1300.57  10
  -8  20  -3-331.071 616.513  10
  -8  20  -4 1784.61 759.807  10
  -8  21   5 2571.57 1175.92  11
  -8  21   4 1126.58 1068.13  11
  -8  21   3 3835.52 1248.99  10
  -8  21   2-154.256 728.815  10
  -8  21   1 978.515 796.777  10
  -8  21   0 11.9717 791.622  10
  -8  21  -1-1043.91 778.598  10
  -8  21  -2 3284.99 1107.61  10
  -8  21  -3-1078.86 632.171  10
  -8  22   5 1366.40 864.209  11
  -8  22   4 1981.39 860.247  11
  -8  22   3 1513.35 934.564  11
  -8  22   3 1549.55 902.232  10
  -8  22   2 611.785 785.976  10
  -8  22   1 212.217 686.780  10
  -8  22   0 1641.06 813.922  10
  -8  22  -1-1928.34 844.002  10
  -8  22  -2 478.016 581.957  10
  -8  23   6-290.683 826.658   8
  -8  23   5-698.587 719.948  11
  -8  23   4 154.228 567.704  11
  -8  23   3 612.942 716.181  11
  -8  23   2 1596.17 884.978  11
  -8  23   2 3442.19 1039.16  10
  -8  23   1-458.219 572.198  10
  -8  23   0 2572.76 970.825  10
  -8  23  -1 2095.30 779.784  10
  -8  24   4 1139.77 916.344   8
  -8  24   3 66.4053 646.121  11
  -8  24   2 474.272 569.022  11
   9   0 -14-230.964 435.484   5
  -9   0  14-803.853 519.418  14
   9   0 -13 869.536 660.345   5
   9   0 -12 1962.20 925.334   5
   9   0 -11 266.262 627.612   5
   9   0 -10 2078.46 1183.27   5
   9   0  -9 927.517 744.836   5
   9   0  -8 711.032 973.600   3
   9   0  -8 753.631 931.075   5
   9   0  -7 1007.18 974.437   3
   9   0  -7 380.299 993.182   5
   9   0  -6 370.798 965.527   3
   9   0  -6 434.334 793.725   5
   9   0  -5 40554.0 3672.13   5
   9   0  -5 41132.6 3888.82   3
   9   0  -4-134.050 970.226   5
   9   0  -4 876.246 742.388   3
   9   0  -3 28638.5 3084.97   5
   9   0  -3 29689.2 3207.31   3
   9   0  -2-453.440 962.945   3
   9   0  -2-740.575 688.399   5
   9   0  -1 5254.84 1565.90   3
   9   0  -1 7154.87 1709.80   5
   9   0   0 742.578 949.366   3
   9   0   0 1655.45 1176.56   5
   9   0   1 6594.60 1448.13   3
   9   0   1 14947.8 2664.85  14
   9   0   2 469.327 777.508  14
   9   0   3 3535.85 1227.53  14
   9   0   4 1446.72 890.748  14
   9   0   5 6861.05 1438.81  14
   9   0   6-450.772 606.165  14
   9   0   7 82.6551 446.552  14
   9  -1 -14 857.331 522.184   5
   9   1 -14-520.977 511.813   5
  -9   1  14 569.398 472.970  14
  -9  -1  14 908.083 578.578  14
   9  -1 -13 1701.12 757.933   5
   9   1 -13 1281.12 748.947   5
   9  -1 -12 7897.83 1652.99   5
   9   1 -12 8074.28 1592.88   5
   9  -1 -11 2885.28 1248.27   5
   9   1 -11 384.679 774.376   5
   9  -1 -10 24728.1 2921.36   5
   9   1 -10 23778.9 2845.48   5
   9  -1  -9 4130.30 1277.09   5
   9   1  -9 2728.01 1134.25   5
   9  -1  -8 18619.8 2570.34   5
   9   1  -8 20199.6 2658.15   5
   9   1  -7 16071.8 2529.41   3
   9  -1  -7 14680.7 2462.01   3
   9  -1  -7 15579.9 2405.97   5
   9   1  -7 16643.3 2479.07   5
   9   1  -6 1154.31 1136.26   3
   9  -1  -6 1064.15 996.988   5
   9   1  -6 2684.71 1285.80   5
   9  -1  -6 64.6333 881.072   3
   9  -1  -5-64.1440 811.272   5
   9   1  -5 1079.03 802.508   5
   9   1  -5-677.080 993.551   3
   9  -1  -5 1421.85 1113.55   3
   9  -1  -4 2254.05 1027.85   5
   9   1  -4 1365.14 758.585   5
   9   1  -4 1238.94 944.162   3
   9  -1  -4 1277.92 985.793   3
   9  -1  -3 876.909 1024.23   3
   9  -1  -3-1394.17 1151.41   5
   9   1  -3 647.669 793.505   5
   9   1  -3-486.185 779.051   3
   9   1  -2 6416.66 1491.40   3
   9  -1  -2 6160.14 1594.20   3
   9  -1  -2 8028.28 1684.96   5
   9   1  -2 6639.17 1671.78   5
   9   1  -1 113.088 815.931   3
   9  -1  -1 2124.99 1180.29   3
   9  -1  -1 2185.95 1291.37   5
   9   1  -1-502.313 746.508   5
   9  -1   0 14386.2 2235.00   3
   9   1   0 15220.3 2277.33   3
   9  -1   0 16647.8 2478.01   5
   9   1   0 15272.0 2332.09   5
   9   1   1 559.448 789.903  14
   9  -1   1 549.419 666.712  14
   9   1   1 1943.99 1048.67   3
   9  -1   1 3396.40 1233.46   3
   9   1   2 3505.44 1090.41  14
   9  -1   2 5822.78 1447.57  14
   9   1   3 21478.1 2588.99  14
   9  -1   3 23937.3 2788.41  14
   9   1   4 198.056 617.689  14
   9  -1   4-87.7760 504.888  14
   9   1   5 5960.07 1349.72  14
   9  -1   5 5103.43 1253.98  14
   9   1   6-224.168 505.044  14
   9  -1   6 35.5718 446.179  14
   9  -1   7-163.088 428.591  14
   9   1   7 239.147 379.459  14
   9  -1   8 364.088 492.883   5
   9  -2 -14 412.448 474.883   5
  -9   2  14 104.402 385.632  14
  -9  -2  14 1440.07 690.009  14
   9  -2 -13 1100.84 720.923   5
   9   2 -13 1636.70 862.123   5
   9  -2 -12 6909.34 1467.27   5
   9   2 -12 5874.37 1386.59   5
   9  -2 -11 408.760 777.133   5
   9   2 -11 216.800 723.039   5
   9  -2 -10 2325.42 1112.08   5
   9   2 -10 2302.65 1053.63   5
   9  -2  -9 1152.01 988.817   5
   9   2  -9 768.842 1038.43   5
   9  -2  -8 3738.95 1342.30   5
   9   2  -8 1539.38 1104.68   5
   9   2  -7 2220.76 1115.68   3
   9  -2  -7 2197.91 977.314   3
   9  -2  -7 3247.56 1309.68   5
   9   2  -7 2701.31 1259.56   5
   9  -2  -6 35374.5 3396.29   5
   9   2  -6 35164.7 3435.06   5
   9   2  -6 32925.1 3431.97   3
   9  -2  -6 31803.5 3343.41   3
   9   2  -5 1308.47 868.553   3
   9  -2  -5-908.403 786.423   5
   9   2  -5 209.322 1019.16   5
   9  -2  -5 969.473 1179.83   3
   9  -2  -4 11458.8 2018.51   5
   9   2  -4 14636.0 2219.89   5
   9   2  -4 12882.9 2106.41   3
   9  -2  -4 16552.1 2439.70   3
   9  -2  -3 1723.18 1069.39   3
   9  -2  -3 711.244 913.863   5
   9   2  -3 1385.95 848.309   5
   9   2  -3-671.391 1140.30   3
   9   2  -2 32285.7 3415.73   9
   9  -2  -2 29162.2 3061.21   5
   9   2  -2 26027.4 2869.71   5
   9   2  -2 28119.8 3173.22   3
   9  -2  -2 32470.9 3372.16   3
   9   2  -1 588.499 888.897   3
   9  -2  -1 2348.34 1086.28   3
   9  -2  -1 1236.93 1059.79   5
   9   2  -1 245.025 732.082   5
   9   2   0 9458.54 1725.09   3
   9  -2   0 10518.0 1948.68   3
   9  -2   0 12006.3 2092.43   5
   9   2   0 11551.5 2096.21   5
   9  -2   1 154.906 659.057  14
   9  -2   1 1107.10 966.507   3
   9   2   2-103.254 624.218  14
   9  -2   2-1220.07 962.260  14
   9  -2   3 2644.97 1172.65  14
   9   2   3 2001.09 1168.61  14
   9  -2   4 7632.01 1632.25  14
   9   2   4 9383.87 1688.77  14
   9   2   5 1679.29 948.549  14
   9  -2   5 1595.10 841.443  14
   9  -2   6-147.134 597.177  14
   9   2   6 360.266 450.922  14
   9   2   7-474.522 370.275  14
   9  -2   7-496.266 396.332  14
   9  -2   8 2544.72 660.487   5
   9   2   8 3196.04 781.960   5
   9  -2   8 4035.90 796.103  14
   9   3 -14 169.268 595.571   5
  -9   3  14 679.863 370.119  14
  -9  -3  14 742.740 556.147  14
   9  -3 -13-213.084 613.552   5
   9   3 -13 757.393 625.501   5
   9  -3 -12 896.795 832.586   5
   9   3 -12 1309.39 932.444   5
   9   3 -11 1175.51 825.166   5
   9  -3 -11 757.055 854.193   5
   9  -3 -10 8247.22 1723.17   5
   9   3 -10 7470.48 1620.59   5
   9  -3  -9 2086.68 1183.00   5
   9   3  -9 3844.69 1409.13   5
   9  -3  -8 8314.11 1875.51   5
   9   3  -8 10449.6 2037.77   5
   9   3  -7 22711.3 2880.34   3
   9  -3  -7 21012.0 2782.45   3
   9  -3  -7 19439.9 2594.27   5
   9   3  -7 18309.7 2498.74   5
   9   3  -6 1298.99 1067.59   9
   9   3  -6 1912.60 956.374   3
   9  -3  -6 1980.61 1026.73   5
   9   3  -6 1153.12 1013.99   5
   9  -3  -6 2886.13 1029.59   3
   9   3  -5 7019.65 1635.26   9
   9   3  -5 6720.50 1664.66   3
   9  -3  -5 9523.29 1928.75   5
   9   3  -5 7009.29 1689.73   5
   9  -3  -5 9860.56 2005.25   3
   9   3  -4 1489.38 1171.76   9
   9  -3  -4 633.840 989.673   5
   9   3  -4 946.288 1112.75   5
   9   3  -4 832.832 1009.56   3
   9  -3  -4 1204.80 1000.48   3
   9  -3  -3 3758.87 1436.80   3
   9   3  -3 252.122 945.803   9
   9  -3  -3 1554.85 1038.03   5
   9   3  -3 1398.37 753.335   5
   9   3  -3 739.009 921.217   3
   9  -3  -2 77.9746 893.512   3
   9   3  -2-912.918 1188.52   9
   9  -3  -2 346.620 788.065   5
   9   3  -2 703.128 930.311   5
   9   3  -2 559.590 720.323   3
   9   3  -1 1012.78 1026.54   3
   9  -3  -1-311.743 962.080   3
   9  -3  -1 1045.49 1054.97   5
   9   3  -1 1913.56 806.997   5
   9  -3   0 4889.73 1583.88   3
   9  -3   0 7117.52 1709.33   5
   9   3   0 5391.60 1415.77   5
   9  -3   1 1803.68 1087.14   5
   9  -3   1 2753.15 1082.77  14
   9  -3   1 3540.85 1291.38   3
   9   3   2-1361.56 809.930  14
   9  -3   2 985.436 810.201  14
   9  -3   3 9943.15 1832.92  14
   9   3   3 8321.08 1607.53  14
   9   3   4 1551.67 806.756  14
   9  -3   4-433.642 620.739  14
   9   3   5 8501.13 1557.32  14
   9  -3   5 12357.0 1899.84  14
   9   3   6-895.414 637.962  14
   9  -3   6-393.606 577.666  14
   9  -3   7 1357.81 693.990  14
   9   3   8 1443.74 633.985   5
   9  -3   8 874.872 484.911  14
  -9  -4  14-270.888 381.832  14
   9  -4 -13-977.988 754.473   5
   9   4 -13 1758.13 736.258   5
   9  -4 -12 963.211 860.580   5
   9   4 -12 1940.31 969.969   5
   9   4 -11 1289.78 831.488   9
   9   4 -11 848.947 792.756   5
   9  -4 -11 316.248 783.295   5
   9   4 -10 1207.19 948.347   9
   9  -4 -10-207.354 759.086   5
   9   4 -10-250.948 735.989   5
   9   4  -9 1809.30 1215.44   9
   9  -4  -9 2085.39 941.231   5
   9   4  -9 2785.49 1151.55   5
   9   4  -8 3491.24 1494.59   9
   9  -4  -8 3884.80 1323.60   5
   9   4  -8 5706.79 1511.91   5
   9   4  -7 855.447 776.215   9
   9   4  -7 1843.36 1002.49   3
   9  -4  -7 2554.15 1234.80   5
   9   4  -7 2507.82 1180.66   5
   9  -4  -7 703.536 716.072   3
   9   4  -6 989.396 817.756   9
   9   4  -6-227.833 736.122   3
   9  -4  -6 499.109 726.561   5
   9   4  -6 844.262 1046.68   5
   9  -4  -6-17.6221 726.239   3
   9   4  -5 43592.5 4118.08   9
   9  -4  -5 43868.2 3782.55   5
   9   4  -5 47738.7 4012.50   5
   9   4  -5 44967.1 3926.79   3
   9  -4  -5 50014.9 4238.42   3
   9  -4  -4-842.308 884.371   3
   9   4  -4-630.356 904.014   9
   9   4  -4 105.180 770.959   3
   9  -4  -4-118.391 933.477   5
   9   4  -4-257.958 948.678   5
   9  -4  -3 16759.4 2539.31   3
   9   4  -3 16372.7 2571.29   9
   9  -4  -3 15256.8 2253.25   5
   9   4  -3 15567.5 2404.13   3
   9   4  -3 13108.2 2103.49   5
   9  -4  -2 752.778 847.139   3
   9   4  -2 3258.62 1519.28   9
   9  -4  -2 1943.48 1110.15   5
   9   4  -2 2437.36 1215.43   5
   9   4  -2 3700.53 1239.56   3
   9  -4  -1 2311.28 1181.37   3
   9  -4  -1 3263.79 1267.75   5
   9   4  -1 6238.72 1631.77   5
   9  -4   0 521.091 817.776   3
   9  -4   0 1206.53 875.868   5
   9   4   0 1148.79 1025.31   5
   9  -4   1 6522.79 1534.34   5
   9  -4   1 5486.44 1378.38  14
   9  -4   2 1222.89 807.784  14
   9   4   3 571.002 571.669  14
   9  -4   3 430.876 763.573  14
   9   4   4 294.426 531.343  14
   9  -4   4 143.763 554.886  14
   9   4   5 11179.6 1778.50  14
   9  -4   5 12789.5 1909.23  14
   9  -4   6 85.9550 537.949  14
   9   4   6 352.795 450.970  14
   9  -4   7 501.117 432.042  14
  -9  -5  14 791.582 510.278  14
   9   5 -13 510.363 530.835   9
   9  -5 -13 634.717 509.961   5
   9   5 -13 731.199 582.484   5
   9   5 -12 1248.12 825.890   9
   9  -5 -12 1466.83 784.525   5
   9   5 -12 2539.36 994.499   5
   9   5 -11 12437.9 2193.06   9
   9   5 -11 14231.1 2151.80   5
   9  -5 -11 14375.0 2118.98   5
   9   5 -10 10831.4 2126.87   9
   9  -5 -10 11396.6 1978.91   5
   9   5 -10 10582.0 1874.16   5
   9   5  -9 6264.23 1479.88   9
   9  -5  -9 6722.63 1623.85   5
   9   5  -9 8177.67 1698.02   5
   9   5  -8 19158.2 2915.74   9
   9  -5  -8 22302.7 2835.60   5
   9   5  -8 21457.9 2811.92   5
   9   5  -7 1687.41 1174.23   9
   9  -5  -7 3483.46 1179.64   5
   9   5  -7 2755.11 1049.81   5
   9  -5  -7 576.208 840.691   3
   9   5  -7 365.837 698.508   3
   9   5  -6 878.705 1219.16   9
   9   5  -6 94.1236 920.655   3
   9  -5  -6-193.580 688.587   5
   9   5  -6-1597.94 964.495   5
   9  -5  -6-372.609 732.216   3
   9   5  -5 2569.29 1398.94   9
   9   5  -5 1818.17 885.400   3
   9  -5  -5 1063.38 1027.65   5
   9   5  -5 2255.35 1091.21   5
   9  -5  -5 3964.33 1371.94   3
   9  -5  -4-1173.04 1025.75   3
   9   5  -4-545.148 879.846   9
   9   5  -4 2676.07 1425.72   3
   9  -5  -4-1252.92 1172.24   5
   9   5  -4 368.278 820.910   5
   9  -5  -3 4773.59 1536.89   3
   9   5  -3 2399.87 1363.24   9
   9   5  -3 4289.76 1295.48   3
   9  -5  -3 3109.73 912.385   5
   9   5  -3 5181.05 1589.64   5
   9  -5  -2 11438.1 2054.62   3
   9   5  -2 15393.7 2550.12   9
   9  -5  -2 10816.2 1931.78   5
   9   5  -2 11153.0 1833.12   5
   9  -5  -1 3958.21 1428.41   3
   9  -5  -1 4669.03 1304.34   5
   9   5  -1 4291.10 1317.81   5
   9  -5   0 6769.94 1734.31   3
   9  -5   0 4534.80 1387.29   5
   9   5   0 5589.53 1586.64   5
   9   5   1 14738.5 2231.49   5
   9  -5   1 13331.1 2026.94  14
   9  -5   1 18079.4 2474.58   5
   9  -5   2 1460.51 853.648  14
   9  -5   3 10339.0 1834.89  14
   9  -5   4 583.882 612.570  14
   9   5   4 82.3414 490.603  14
   9  -5   5 1678.05 877.323  14
   9  -5   6 2411.14 846.637  14
   9  -5   7 565.344 468.525   5
   9  -5   7 860.503 573.837  14
  -9  -6  14 86.7272 329.088  14
   9   6 -13 297.431 641.958   9
   9  -6 -13 998.427 664.858   5
   9   6 -13 170.776 504.766   5
   9   6 -12 740.310 717.536   9
   9  -6 -12 1690.54 876.105   5
   9   6 -11 194.007 685.952   9
   9  -6 -11 3158.22 1138.03   5
   9   6 -11 1732.84 858.164   5
   9   6 -10 1731.91 1163.21   9
   9  -6 -10 631.793 684.308   5
   9   6 -10 340.521 615.518   5
   9   6  -9 162.699 842.053   9
   9  -6  -9 1567.32 849.659   5
   9   6  -9-261.196 879.230   5
   9   6  -8 1203.29 1042.24   9
   9  -6  -8 984.894 1072.24   5
   9   6  -8 803.737 949.720   5
   9   6  -7 500.189 758.896   3
   9   6  -7-806.436 846.332   9
   9  -6  -7-173.361 723.716   5
   9   6  -7 72.6263 852.267   5
   9   6  -6 10339.1 2179.70   9
   9   6  -6 8892.64 1830.18   3
   9  -6  -6 9560.76 1910.49   5
   9   6  -6 11482.0 2047.31   5
   9  -6  -6 8267.68 1771.68   3
   9   6  -5 328.326 886.941   9
   9   6  -5-210.387 733.528   3
   9  -6  -5 1396.99 764.454   5
   9   6  -5-609.124 767.653   5
   9  -6  -5 1285.84 740.331   3
   9  -6  -4 7367.83 1738.36   3
   9   6  -4 6752.20 1715.54   9
   9   6  -4 7103.15 1619.93   3
   9  -6  -4 8729.83 1770.57   5
   9   6  -4 5964.00 1387.81   5
  -9   6   4 5284.98 1706.19  10
   9  -6  -3 1101.67 875.425   3
   9   6  -3 413.978 790.826   9
   9  -6  -3 1458.29 816.630   5
   9   6  -3 2844.29 1152.80   5
  -9   6   3 1917.87 1278.84  10
   9  -6  -2 14268.5 2368.44   3
   9   6  -2 13525.7 2369.74   9
   9  -6  -2 13314.4 2086.33   5
   9   6  -2 12241.8 1914.91   5
   9  -6  -1 1380.53 933.563   3
   9  -6  -1 1276.69 950.831   5
   9   6  -1 86.4410 875.564   5
   9  -6   0 9637.57 2051.78   3
   9  -6   0 9859.69 1960.29   5
   9   6   0 11363.4 2070.32   5
   9  -6   1 194.899 730.917  14
   9  -6   1 2169.91 1122.68   5
   9   6   1 422.017 928.667   5
   9  -6   2 2611.42 1080.98   5
   9  -6   2 1098.46 780.389  14
   9  -6   3 2614.43 1088.89  14
   9  -6   4 1345.02 861.472  14
   9  -6   5-837.937 727.928  14
   9  -6   6 3716.08 1028.77  14
   9   6   7-597.587 532.443   5
   9   6   7 159.417 357.329  15
   9  -6   7-460.930 357.158  14
   9  -6   7-638.566 499.934   5
  -9  -7  14-307.745 400.713  14
   9   7 -13 1140.24 789.263   9
   9  -7 -13 395.895 483.115   5
   9   7 -13 1402.39 630.441   5
   9  -7 -12 1260.05 798.983   5
   9   7 -12 184.105 555.698   5
   9   7 -11 2966.38 1284.79   9
   9  -7 -11 4548.25 1313.94   5
   9   7 -11 4153.47 1226.87   5
   9   7 -10 5797.21 1718.91   9
   9  -7 -10 4897.87 1319.77   5
   9   7 -10 4612.38 1373.89   5
   9   7  -9 993.067 979.492   9
   9  -7  -9-845.210 842.943   5
   9   7  -9 328.253 817.906   5
   9   7  -8-387.600 796.928   9
   9   7  -8 164.657 858.827   5
   9   7  -7 24408.8 3304.57   9
   9  -7  -7 25372.1 2878.95   5
   9   7  -7 25837.6 3363.64   5
   9   7  -6 797.723 639.910   3
   9   7  -6 2864.89 1365.80   9
   9  -7  -6 1951.86 1113.57   5
   9   7  -6 3421.52 1318.04   5
   9  -7  -6 3354.48 1171.39   3
   9   7  -5 7879.90 2081.22   9
   9   7  -5 6552.31 1520.63   3
   9  -7  -5 6341.68 1541.32   5
   9   7  -5 4487.54 1436.52   5
   9  -7  -5 6010.82 1673.79   3
   9  -7  -4 1764.55 830.540   3
   9   7  -4 2544.52 1353.28   9
   9  -7  -4 540.076 852.709   5
   9   7  -4 1159.57 854.354   5
  -9   7   4 1514.17 1161.79  10
   9  -7  -3 2034.80 1099.46   3
   9   7  -3-243.550 760.448   9
   9  -7  -3 1691.39 1178.48   5
   9   7  -3 1911.60 1004.47   5
  -9   7   3 598.200 1101.06  10
   9   7  -2 1788.42 912.152   9
   9  -7  -2 4085.44 1232.08   5
   9  -7  -2 3482.77 1253.97   3
   9   7  -2 4063.79 1342.91   5
  -9   7   2 3916.41 1452.24  10
   9   7  -1 91.7135 920.587   9
   9  -7  -1 2201.90 1150.86   3
   9  -7  -1 2152.66 976.941   5
   9   7  -1-348.723 731.073   5
   9   7   0 2563.76 969.334  15
   9  -7   0 4182.26 1439.98   5
   9   7   0 3078.06 1255.76   5
   9  -7   1 8096.89 1644.39  14
   9   7   1 7312.51 1349.28  15
   9  -7   1 8156.67 1688.86   5
   9   7   1 6156.02 1551.70   5
   9   7   2 3724.32 1138.92   5
   9   7   2 2990.31 1092.43  15
   9  -7   2 2065.41 805.944  14
   9  -7   2 3718.15 1219.10   5
   9  -7   3 9068.99 1669.93  14
   9  -7   3 9836.35 1720.12   5
   9  -7   4 1926.31 942.845   5
   9  -7   4 816.493 796.922  14
   9  -7   5 7548.53 1524.27   5
   9  -7   5 5458.53 1265.31  14
   9  -7   6 715.081 578.080  14
   9  -7   6 224.631 531.978   5
   9   7   7 1524.72 572.031  15
   9  -7   7 1169.69 550.839  14
   9   7   7 1009.61 545.277   5
   9   8 -13 1936.11 756.583   9
   9   8 -13 1486.82 665.696   5
   9   8 -12 424.339 583.522   9
   9  -8 -12-1072.68 675.982   5
   9   8 -12 91.6569 552.545   5
   9   8 -11-471.322 764.545   9
   9  -8 -11-1382.76 831.324   5
   9   8 -11-510.073 624.177   5
   9   8 -10 3588.96 1291.44   9
   9  -8 -10 1913.88 927.485   5
   9   8 -10 1336.14 836.669   5
   9   8  -9 4263.60 1452.75   9
   9  -8  -9 4408.12 1267.05   5
   9   8  -9 3535.65 1056.68   5
   9   8  -8 1999.43 1141.57   9
   9  -8  -8 5950.43 1395.99   5
   9   8  -8 4938.74 1460.11   5
   9   8  -7 8765.97 2071.81   9
   9  -8  -7 7752.34 1696.95   5
   9   8  -7 9767.84 1896.70   5
   9   8  -6 3162.32 1358.57   9
   9   8  -6 3151.55 1278.69   5
   9   8  -5 57112.7 4988.14   9
   9   8  -5 56685.7 4256.80   5
   9  -8  -5 56466.2 4514.70   3
   9  -8  -4 1041.78 663.462   3
   9   8  -4-394.944 777.545   9
   9   8  -4-2077.62 1030.62   5
  -9   8   4-2014.21 1185.84  10
   9  -8  -3 3243.77 1268.57   3
   9   8  -3 2501.90 1132.53   9
   9   8  -3 1866.05 1220.41   5
  -9   8   3-54.4893 933.183  10
   9  -8  -2 2634.62 1226.85   3
   9   8  -2 720.124 700.799   9
   9   8  -2 3871.76 1258.94   5
  -9   8   2 3126.63 1441.58  10
   9   8  -1-1057.93 702.079  15
   9   8  -1 3280.34 1462.76   9
   9  -8  -1 1703.48 968.626   3
   9   8  -1 485.463 962.407   5
  -9   8   1-332.305 853.136  10
   9   8   0-471.779 708.696  15
   9   8   0 483.376 812.724   5
   9   8   1 72.1840 644.981  15
   9   8   1 36.3661 760.576   5
   9   8   2 1242.08 756.018  15
   9  -8   2 491.655 598.804  14
   9   8   2 816.616 708.150   5
   9   8   3-287.325 829.218   5
   9   8   3 11.9875 598.556  15
   9  -8   3 494.184 581.989  14
   9   8   4 242.796 553.809  15
   9  -8   4-64.0603 495.360  14
   9   8   5 7224.10 1462.21   5
   9   8   5 6939.22 1336.40  15
   9  -8   5 5770.57 1264.89  14
   9  -8   6-516.934 418.009  14
   9   8   6 28.6399 563.056   5
   9   8   7 651.780 530.970  15
   9   9 -13 1065.82 719.513   9
  -9  -9  13 1175.36 519.310  14
   9   9 -12 917.443 828.529   9
   9   9 -11 361.770 918.032   9
   9   9 -10 5777.92 1667.53   9
   9   9  -9 1056.89 900.206   9
   9   9  -8 417.078 690.686   9
   9   9  -7-895.848 1004.63   9
   9   9  -6 598.872 894.489   9
   9   9  -5 1487.32 1207.97   9
   9  -9  -4 2181.79 1024.72   3
   9   9  -4 2317.81 1281.18   9
  -9   9   4 94.3526 717.414  10
   9  -9  -3-814.975 690.671   3
   9   9  -3 25.8436 735.426   9
  -9   9   3 436.667 836.875  10
   9   9  -2-526.589 594.580  15
   9   9  -2 1509.53 1181.85   9
  -9   9   2-616.656 800.743  10
   9   9  -1 480.100 745.583  15
   9   9  -1-725.599 1075.40   9
  -9   9   1-972.724 894.874  10
   9   9   0 11914.0 1890.11  15
   9   9   0 9516.62 1697.84   5
  -9   9   0 11007.5 2419.07  10
   9   9   1-269.780 786.375  15
   9   9   1 694.409 885.258   5
   9   9   2 1286.66 634.277  15
   9   9   2 2206.13 969.141   5
   9  -9   3 10385.7 1724.23  14
   9   9   3 12202.6 1915.37  15
   9   9   3 12294.9 1987.15   5
   9   9   4-580.252 665.682  15
   9  -9   4-838.251 733.123  14
   9   9   4 261.816 562.382   5
   9   9   5 517.221 514.540  15
   9  -9   5 623.717 558.936  14
   9   9   5 1812.12 747.829   5
   9   9   6 1360.50 651.009  15
   9  -9   6 1287.73 630.356  14
   9   9   6 1959.10 679.577   5
   9   9   7 1270.95 565.123  15
   9  10 -13-45.2324 456.426   9
  -9 -10  13-239.176 503.296  14
   9  10 -12 282.485 573.889   9
   9  10 -11 1105.45 767.073   9
   9  10 -10 1695.60 1040.16   9
   9  10  -9 176.935 673.532   9
   9  10  -8 13270.4 2484.64   9
   9  10  -7 2109.40 1189.51   9
   9  10  -6-5.93787 819.761   9
   9  10  -5 5963.44 1738.44   9
   9  10  -4 5233.41 1660.20   9
  -9  10   4 4362.83 1685.33  10
   9  10  -3 612.064 901.518   9
  -9  10   3-491.733 845.635  10
   9  10  -2 30891.4 3759.56   9
   9  10  -2 29305.9 2819.86  15
  -9  10   2 26847.9 3534.48  10
   9  10  -1 939.340 708.576  15
   9  10  -1-176.775 890.454   9
  -9  10   1 1265.58 1164.61  10
   9  10   0 4157.32 1034.82  15
   9  10   0 5229.51 1508.94   9
  -9  10   0 5022.42 1685.43  10
  -9  10  -1 20.8641 724.501  10
   9  10   1 96.3859 601.327  15
   9  10   2 46.0736 754.336  15
   9  10   3-1241.33 780.083  15
   9  10   4 853.302 702.684  15
   9 -10   4 1020.64 597.800  14
   9 -10   5 1819.57 816.001  14
   9  10   5 1724.84 753.519  15
   9  10   6 3839.11 908.989  15
   9  11 -13 1658.38 671.617   9
   9  11 -12 716.787 597.792   9
   9  11 -11 110.191 613.452   9
   9  11 -10 3539.93 1321.57   9
   9  11  -9-815.078 788.423   9
   9  11  -8 2258.93 1200.14   9
   9  11  -7 2539.82 1137.20   9
   9  11  -6 1567.70 872.181   9
   9  11  -5 522.011 818.758   9
  -9  11   5 136.638 895.101  10
   9  11  -4 4508.60 1602.86   9
  -9  11   4 3020.34 1474.27  10
   9  11  -3 74.4076 757.549   9
  -9  11   3 309.705 808.735  10
   9  11  -2-617.162 722.916  15
  -9  11   2-659.248 790.042  10
   9  11  -1 734.517 600.676  15
  -9  11   1 1157.37 917.375  10
   9  11   0 4606.89 1384.56  15
   9  11   0 3612.45 1532.53   9
  -9  11   0 5449.29 1750.39  10
  -9  11  -1-468.934 787.357  10
   9  11   1-647.167 1033.87   9
  -9  11  -2 11110.8 2233.92  10
   9  11   2 10907.4 1796.55  15
   9  11   3 16519.8 2174.66  15
   9  11   4 1455.14 739.926  15
   9  11   5 6963.13 1299.90  15
   9  11   6 8.71294 422.590  15
   9  12 -12-904.585 650.839   9
   9  12 -11 1011.85 847.358   9
   9  12 -10 154.376 690.959   9
   9  12  -9 553.383 945.626   9
   9  12  -8-1229.73 1026.17   9
   9  12  -7 14372.7 2614.68   9
   9  12  -6 822.905 1092.01   9
   9  12  -5 2776.37 1252.85   9
  -9  12   5 1112.82 1024.84  10
   9  12  -4 1583.79 1083.73   9
  -9  12   4 1348.19 1128.29  10
   9  12  -3 11689.9 2348.93   9
  -9  12   3 10944.2 2478.76  10
   9  12  -2 620.099 738.193  15
   9  12  -2 1291.33 1091.68   9
  -9  12   2 3078.39 1622.57  10
   9  12  -1-823.313 789.294   9
   9  12  -1 3.11089 554.383  15
  -9  12   1 1108.68 999.528  10
   9  12   0 20.3168 591.831  15
   9  12   0 406.558 698.842   9
  -9  12   0-1.15628 777.001  10
  -9  12  -1 926.279 808.277  10
   9  12   1 316.299 586.360  15
   9  12   1 974.292 862.701   9
  -9  12  -2 2329.20 1260.26  10
   9  12   2 2251.46 906.584  15
   9  12   2 2405.50 1169.09   9
  -9  12  -3 158.807 626.118  10
   9  12   3-610.419 718.260  15
   9  12   4 361.685 563.985  15
   9  12   5 418.721 526.964  15
   9  12   6 478.284 442.890  15
   9  12   6-941.455 708.195   9
   9  13 -12 736.243 685.118   9
   9  13 -11 299.516 590.054   9
   9  13 -10 6644.41 1709.47   9
   9  13  -9 427.140 690.626   9
   9  13  -8 3827.63 1522.11   9
   9  13  -7 4070.48 1588.11   9
   9  13  -6 817.781 785.739   9
   9  13  -5 1258.90 1057.51   9
  -9  13   5-135.490 913.608  10
   9  13  -4 1398.76 1097.97   9
  -9  13   4 180.432 915.983  10
   9  13  -3 1948.34 1159.90   9
  -9  13   3 2245.48 1242.78  10
   9  13  -2 623.840 989.518   9
  -9  13   2-604.624 1074.25  10
   9  13  -1 1076.29 805.031  15
   9  13  -1 1388.15 1087.39   9
  -9  13   1 318.203 878.254  10
   9  13   0 3100.51 1124.75  15
   9  13   0 3600.85 1325.21   9
  -9  13   0 2270.54 1207.86  10
  -9  13  -1 632.677 1053.59  10
   9  13   1-200.878 648.847  15
   9  13   1 965.946 1014.61   9
  -9  13  -2 2998.82 1179.52  10
   9  13   2 2463.07 902.581  15
   9  13   2 3083.55 1389.67   9
  -9  13  -3 4949.89 1406.09  10
   9  13   3 5351.87 1245.54  15
   9  13   3 7873.94 1735.71   9
   9  13   4 337.046 515.069  15
   9  13   4-815.584 953.405   9
   9  13   5 791.906 489.611  15
   9  13   5 484.601 617.971   9
   9  13   6 132.639 424.744  15
   9  14 -12 1860.29 669.757   9
   9  14 -11 307.559 543.242   9
   9  14 -10 798.045 791.593   9
   9  14  -9-272.192 718.384   9
   9  14  -8 3477.87 1383.79   9
   9  14  -7 1029.91 693.702   9
   9  14  -6-188.609 884.901   9
   9  14  -5 1610.59 1120.66   9
   9  14  -4 1861.93 942.844   9
  -9  14   4 1585.97 1219.20  10
   9  14  -3 1870.93 1190.18   9
  -9  14   3 335.588 1017.98  10
   9  14  -2 10106.4 2190.31   9
  -9  14   2 6799.70 2068.81  10
   9  14  -1 577.372 668.221  15
   9  14  -1 943.199 1025.28   9
  -9  14   1 30.3786 710.227  10
   9  14   0 6995.93 1487.56  15
   9  14   0 9264.24 2034.38   9
  -9  14   0 6975.10 1902.77  10
  -9  14  -1 167.946 773.761  10
   9  14   1-362.137 626.400  15
   9  14   1 390.028 932.318   9
  -9  14  -2-1858.14 1006.92  10
   9  14   2-55.3774 544.811  15
   9  14   2 392.369 766.203   9
  -9  14  -3 474.133 586.270  10
   9  14   3 940.557 706.182  15
   9  14   3 22.2996 805.150   9
   9  14   4-704.637 522.592  15
   9  14   4 42.7763 570.622   9
  -9  14  -4-275.818 504.461  10
   9  14   5 1196.91 574.692  15
   9  14   5-301.890 652.387   9
   9  15 -11-756.159 729.015   9
   9  15 -10 2648.79 1098.42   9
   9  15  -9 46.5828 582.131   9
   9  15  -8 1156.90 890.067   9
   9  15  -7 278.131 709.136   9
   9  15  -6 2333.30 1180.91   9
   9  15  -5 2098.35 1163.80   9
   9  15  -4 405.836 918.439   9
  -9  15   4 1637.02 1234.74  10
   9  15  -3 577.722 846.671   9
  -9  15   3 1854.76 1381.63  10
   9  15  -2-2485.28 1207.97   9
  -9  15   2 565.801 1031.13  10
   9  15  -1 361.163 782.527   9
  -9  15   1 1314.19 1074.96  10
   9  15   0 1288.23 877.493  15
   9  15   0 1305.20 839.783   9
  -9  15   0 2397.61 1243.54  10
   9  15   1 759.706 580.790  15
   9  15   1 2075.52 1045.26   9
  -9  15  -1 45.7682 648.439  10
  -9  15  -2 2713.01 1181.24  10
   9  15   2 4208.51 1192.37  15
   9  15   2 6931.94 1681.71   9
   9  15   3 8567.90 1474.05  15
   9  15   3 10201.9 1873.92   9
  -9  15  -3 8781.51 1686.42  10
   9  15   4 812.196 562.055  15
   9  15   4 1008.57 590.639   9
  -9  15  -4 220.275 457.343  10
   9  15   5 374.382 360.071  15
   9  16 -11 319.360 517.064   9
   9  16 -10 455.573 617.357   9
   9  16  -9 14.7980 713.884   9
   9  16  -8-842.235 817.330   9
   9  16  -7 1819.70 991.092   9
   9  16  -6 53.7704 728.919   9
   9  16  -5 8071.47 1949.59   9
   9  16  -4 572.524 797.105   9
  -9  16   4-1888.00 1098.22  10
   9  16  -3 1185.26 860.734   9
  -9  16   3 2401.68 1393.08  10
   9  16  -2 1701.80 1183.29   9
  -9  16   2-2717.35 1225.88  10
   9  16  -1 807.952 676.673   9
  -9  16   1-823.268 676.628  10
   9  16   0 361.422 649.942  15
   9  16   0 666.914 809.262   9
  -9  16   0 73.8770 708.228  10
   9  16   1 89.8172 504.356  15
   9  16   1 126.108 648.603   9
  -9  16  -1-500.202 843.112  10
   9  16   2 507.662 496.207  15
   9  16   2 959.951 861.604   9
  -9  16  -2 342.977 693.671  10
   9  16   3 136.759 451.548  15
   9  16   3-250.101 504.390   9
  -9  16  -3 360.953 619.687  10
   9  16   4-636.846 556.175  15
   9  16   4-1200.05 740.267   9
  -9  16  -4-611.188 606.121  10
   9  17 -10 3425.66 1072.51   9
   9  17  -9 2489.53 972.596   9
   9  17  -8 327.776 637.487   9
   9  17  -7 943.740 852.951   9
   9  17  -6 4965.62 1450.90   9
   9  17  -5 412.570 826.831   9
   9  17  -4-537.347 689.402   9
  -9  17   4 2171.84 1376.48  10
   9  17  -3-590.867 903.155   9
  -9  17   3 1671.16 1195.57  10
   9  17  -2 2977.13 1019.10   9
  -9  17   2 337.679 725.912  10
   9  17  -1 3899.08 1271.11   9
  -9  17   1 2338.46 1166.85  10
   9  17   0 2539.17 1093.14   9
  -9  17   0 2811.30 1206.78  10
   9  17   1-621.003 632.696   9
  -9  17  -1 141.669 664.090  10
   9  17   2 2145.18 764.662  15
   9  17   2 4112.97 1244.80   9
  -9  17  -2 2247.17 1036.22  10
   9  17   3 1179.57 560.031  15
   9  17   3 1576.82 889.511   9
  -9  17  -3 1110.93 742.332  10
   9  18 -10-171.481 507.127   9
   9  18  -9 502.268 628.402   9
   9  18  -8 318.369 696.169   9
   9  18  -7 3174.81 1169.54   9
   9  18  -6-13.9728 728.494   9
   9  18  -5 1460.41 906.927   9
   9  18  -4 1226.05 858.727   9
  -9  18   4 402.199 743.736  10
   9  18  -3-2220.33 884.599   9
  -9  18   3-663.290 791.870  10
   9  18  -2 2266.95 949.936   9
  -9  18   2 3503.52 1368.05  10
   9  18  -1-139.008 691.663   9
  -9  18   1-101.939 791.047  10
   9  18   0 7.30086 719.535   9
  -9  18   0-94.3206 776.993  10
   9  18   1 1605.57 814.527   9
  -9  18  -1-303.809 680.831  10
   9  18   2 429.534 582.202   9
  -9  18  -2-460.161 718.264  10
  -9  18  -3 1051.66 702.097  10
   9  19  -9 2108.16 841.920   9
   9  19  -8 138.865 595.456   9
   9  19  -7-495.571 664.935   9
   9  19  -6 446.194 711.718   9
   9  19  -5 1281.93 1055.50   9
   9  19  -4-1764.52 913.667   9
   9  19  -3 1066.57 854.431   9
  -9  19   3 172.840 659.072  10
   9  19  -2 1057.90 770.576   9
  -9  19   2 711.389 886.608  10
   9  19  -1-34.1754 595.247   9
  -9  19   1-436.251 724.639  10
   9  19   0-1669.35 1012.04   9
  -9  19   0 468.862 778.875  10
   9  19   1 745.275 620.785   9
  -9  19  -1 1146.11 738.262  10
  -9  19  -2 395.953 515.548  10
   9  20  -8 243.908 543.525   9
   9  20  -7-1260.83 729.281   9
   9  20  -6 1060.11 629.063   9
   9  20  -5 8358.83 1562.61   9
   9  20  -4 236.175 676.096   9
  -9  20   4-334.397 692.158  11
   9  20  -3 1459.80 790.108   9
  -9  20   3 1514.86 1023.97  11
  -9  20   3 1307.17 908.090  10
   9  20  -2 768.028 797.707   9
  -9  20   2 385.674 639.975  10
  -9  20   1 345.889 562.735  10
  -9  20   0 3252.48 1059.43  10
  -9  20  -1-299.258 581.635  10
  -9  21   4 3673.89 1161.35  11
  -9  21   3-272.380 606.300  11
  -9  21   2 956.724 655.314  10
  -9  21   1 1396.16 817.099  10
  -9  21   0 2014.22 981.794  10
  -9  22   1 558.055 480.372  10
  10   0 -14 5056.30 898.495   5
  10   0 -13 454.903 526.523   5
  10   0 -12 5028.66 1209.07   5
  10   0 -11-288.763 628.007   5
  10   0 -10 20500.8 2561.52   5
  10   0  -9 126.314 762.379   5
  10   0  -8 1714.88 1042.55   5
  10   0  -7-629.176 678.648   5
  10   0  -6-404.373 674.696   5
  10   0  -5 150.781 687.743   5
  10   0  -4 6404.94 1732.69   5
  10   0  -3-1074.16 805.883   5
  10   0  -2 16706.5 2504.98   5
  10   0  -1 84.2586 749.525   5
  10   0   0 31854.8 3293.42   5
  10   0   1 741.276 930.664   5
  10   0   2 25.4803 712.372   5
  10   0   3 1210.36 955.295   5
  10   0   4 418.955 601.548   5
  10   0   5 2998.65 1079.82   5
  10   0   6-154.462 472.394   5
  10  -1 -14 2232.13 750.734   5
  10   1 -14 1360.83 525.785   5
  10  -1 -13 67.6313 475.939   5
  10   1 -13 1621.38 642.102   5
  10  -1 -12 876.007 640.885   5
  10   1 -12 3534.63 1092.45   5
  10  -1 -11 2319.86 1027.73   5
  10   1 -11 1177.85 926.783   5
  10  -1 -10 3239.56 1326.20   5
  10   1 -10 2170.75 1070.87   5
  10  -1  -9 5018.64 1363.66   5
  10   1  -9 4580.58 1291.56   5
  10  -1  -8 163.427 774.129   5
  10   1  -8 1099.28 910.330   5
  10  -1  -7 4403.73 1465.16   5
  10   1  -7 7000.23 1728.76   5
  10  -1  -6 142.911 778.741   5
  10   1  -6 296.371 839.238   5
  10  -1  -5 14071.8 2236.05   5
  10   1  -5 14275.1 2272.69   5
  10  -1  -4 6351.08 1470.66   5
  10   1  -4 4854.33 1395.22   5
  10  -1  -3 274.117 770.427   5
  10   1  -3 1016.97 1050.80   5
  10  -1  -2 6795.98 1728.56   5
  10   1  -2 2955.77 1331.50   5
  10  -1  -1 1628.13 1074.98   5
  10   1  -1 90.9361 721.704   5
  10  -1   0 2950.87 1200.76   5
  10   1   0 3781.91 1452.35   5
  10  -1   1 2964.15 1243.33   5
  10   1   1 909.427 836.717   5
  10  -1   2 328.074 688.465   5
  10   1   2 1114.54 901.040   5
  10  -1   3 3955.40 1273.79   5
  10   1   3 3091.37 1174.98   5
  10  -1   4 2545.10 1035.73   5
  10   1   4-902.879 721.104   5
  10  -1   5 8694.21 1476.23   5
  10   1   5 7332.90 1381.96   5
  10  -1   6 320.898 473.221   5
  10   1   6 1527.44 705.712   5
 -10  -2  14 756.998 462.355  14
  10  -2 -13 404.770 567.662   5
  10   2 -13 2020.21 783.891   5
  10  -2 -12 674.032 702.416   5
  10   2 -12 1395.84 696.440   5
  10  -2 -11-836.131 776.041   5
  10   2 -11-349.740 593.346   5
  10  -2 -10 1586.94 954.997   5
  10   2 -10 1203.98 1024.44   5
  10  -2  -9 6742.75 1651.18   5
  10   2  -9 5567.67 1441.91   5
  10  -2  -8 300.970 697.380   5
  10   2  -8 1609.04 922.473   5
  10  -2  -7-332.647 754.034   5
  10   2  -7 1499.60 991.691   5
  10  -2  -6 866.591 692.941   5
  10   2  -6 1626.01 1039.49   5
  10  -2  -5 4959.15 1349.42   5
  10   2  -5 7444.91 1781.28   5
  10  -2  -4-614.610 1055.95   5
  10   2  -4 651.031 894.643   5
  10  -2  -3 2776.68 1033.86   5
  10   2  -3 2908.26 1253.21   5
  10  -2  -2-35.6560 975.810   5
  10   2  -2 395.628 829.558   5
  10   2  -1-270.891 885.451   9
  10  -2  -1 1403.68 919.014   5
  10   2  -1 599.992 837.699   5
  10  -2   0-266.303 790.094   5
  10   2   0 757.723 896.016   5
  10  -2   1 14882.1 2324.00   5
  10   2   1 15604.2 2353.03   5
  10  -2   2 2598.06 1039.55   5
  10   2   2 1280.52 959.732   5
  10  -2   3 10190.4 1767.06   5
  10   2   3 11606.4 1966.76   5
  10  -2   4-917.635 687.643   5
  10   2   4-1306.36 750.844   5
  10  -2   5 177.728 659.257   5
  10   2   5 343.933 568.845   5
  10  -2   6 475.706 508.247   5
  10   2   6 659.767 540.047   5
  10  -3 -13-1258.64 584.517   5
  10   3 -13-24.8801 475.344   5
  10  -3 -12 1474.10 845.074   5
  10   3 -12 375.636 707.332   5
  10  -3 -11 1016.35 562.159   5
  10   3 -11-57.5021 652.534   5
  10  -3 -10 3166.89 1204.14   5
  10   3 -10 2413.67 975.490   5
  10  -3  -9 659.890 810.458   5
  10   3  -9 1587.47 893.281   5
  10  -3  -8-290.842 784.109   5
  10   3  -8-306.887 760.626   5
  10  -3  -7 8490.19 1807.17   5
  10   3  -7 9533.97 1849.88   5
  10  -3  -6-13.6083 667.263   5
  10   3  -6 707.326 660.420   5
  10  -3  -5 6122.95 1539.30   5
  10   3  -5 6168.40 1681.81   5
  10   3  -4 3088.75 1150.86   9
  10  -3  -4 2176.63 1227.11   5
  10   3  -4 897.879 884.740   5
  10   3  -3-1700.15 1075.68   9
  10  -3  -3 616.790 739.300   5
  10   3  -3 587.541 1026.22   5
  10   3  -2 2471.34 1189.39   9
  10  -3  -2 2949.58 1279.34   5
  10   3  -2 1473.85 1062.80   5
  10   3  -1-524.396 970.934   9
  10  -3  -1 1457.01 959.111   5
  10   3  -1 856.087 741.792   5
  10  -3   0 1767.00 922.414   5
  10   3   0 4972.11 1500.97   5
  10  -3   1 644.408 874.503   5
  10   3   1 697.877 899.525   5
  10  -3   2 3034.02 1078.71   5
  10   3   2 2456.99 1126.09   5
  10  -3   3 1680.37 915.923   5
  10   3   3 2708.44 1118.14   5
  10  -3   4 3134.12 1124.64   5
  10   3   4 4465.31 1253.96   5
  10  -3   5 7512.72 1289.05   5
  10   3   5 8607.85 1465.78   5
  10  -3   6 4502.97 1010.41   5
  10   3   6 5244.10 1045.50   5
  10  -4 -13-234.868 454.137   5
  10   4 -13 620.015 514.107   5
  10  -4 -12 10263.2 1580.19   5
  10   4 -12 10850.9 1706.78   5
  10  -4 -11-415.782 720.443   5
  10   4 -11-761.154 658.825   5
  10  -4 -10 19458.5 2462.55   5
  10   4 -10 18293.0 2398.32   5
  10  -4  -9 1694.96 872.352   5
  10   4  -9 1476.13 974.795   5
  10   4  -8 1282.24 1101.99   9
  10  -4  -8 2417.10 1058.46   5
  10   4  -8 2335.78 1099.91   5
  10   4  -7 1942.27 1000.06   9
  10  -4  -7 3234.66 1197.61   5
  10   4  -7 1923.67 1047.46   5
  10   4  -6 939.589 1025.43   9
  10  -4  -6 1508.90 1021.50   5
  10   4  -6 869.997 982.869   5
  10   4  -5-720.995 702.780   9
  10  -4  -5-198.965 766.323   5
  10   4  -5 873.039 828.406   5
  10   4  -4 6103.82 1580.69   9
  10  -4  -4 5228.75 1568.91   5
  10   4  -4 4239.74 1473.82   5
  10   4  -3-434.237 860.733   9
  10  -4  -3-232.572 747.827   5
  10   4  -3-370.446 779.706   5
  10   4  -2 23546.1 3047.19   9
  10  -4  -2 24054.0 2803.66   5
  10   4  -2 29463.8 3178.76   5
  10   4  -1-461.274 897.747   9
  10  -4  -1 1931.88 941.513   5
  10   4  -1 359.413 719.613   5
  10  -4   0 19062.3 2551.40   5
  10   4   0 19008.4 2535.88   5
  10  -4   1-759.143 823.435   5
  10   4   1 188.373 843.933   5
  10  -4   2 3316.73 1172.72   5
  10   4   2 2121.06 969.762   5
  10  -4   3-719.568 773.406   5
  10   4   3-320.988 769.228   5
  10   4   4 1304.48 796.134  15
  10  -4   4 2016.23 831.530   5
  10   4   4 1633.69 842.452   5
  10   4   5 1058.48 593.276  15
  10  -4   5 276.568 496.168   5
  10   4   5 1402.57 755.112   5
  10  -4   6 355.502 444.130   5
  10   4   6 1203.21 733.316   5
  10  -5 -13 652.071 481.980   5
  10   5 -13 885.142 557.306   5
  10  -5 -12 247.665 577.542   5
  10   5 -12 743.647 619.599   5
  10  -5 -11 2197.77 893.082   5
  10   5 -11 1369.91 726.193   5
  10   5 -10 1797.04 1024.91   9
  10  -5 -10 1967.70 1031.72   5
  10   5 -10 1919.01 977.701   5
  10   5  -9 727.151 951.956   9
  10  -5  -9 504.778 709.611   5
  10   5  -9-586.286 672.161   5
  10   5  -8 7498.66 1748.63   9
  10  -5  -8 6968.27 1616.38   5
  10   5  -8 5215.60 1531.48   5
  10   5  -7 4964.56 1378.30   9
  10  -5  -7 4519.56 1363.40   5
  10   5  -7 1913.57 1170.11   5
  10   5  -6 59.8428 730.094   9
  10  -5  -6-230.219 675.600   5
  10   5  -6 1830.95 1092.24   5
  10   5  -5 5507.93 1653.07   9
  10  -5  -5 8894.15 1906.72   5
  10   5  -5 7058.02 1787.05   5
  10   5  -4 6968.54 1711.13   9
  10  -5  -4 9228.09 1937.64   5
  10   5  -4 8721.54 1745.91   5
  10   5  -3 5761.41 1697.25   9
  10  -5  -3 5299.33 1549.53   5
  10   5  -3 5708.34 1423.12   5
  10   5  -2 10272.7 2224.72   9
  10  -5  -2 5130.33 1284.31   5
  10   5  -2 6391.21 1651.88   5
  10   5  -1-954.132 966.933   9
  10  -5  -1 28.8065 799.003   5
  10   5  -1-48.9458 692.567   5
  10  -5   0-392.373 680.530   5
  10   5   0 1098.30 835.584   5
  10  -5   1-749.255 732.070   5
  10   5   1-217.705 734.861   5
  10  -5   2 149.711 608.055   5
  10   5   2-11.7634 723.613   5
  10   5   3 3150.05 932.899  15
  10  -5   3 3133.05 1037.32   5
  10   5   3 4232.15 1215.90   5
  10   5   4 426.885 539.844  15
  10   5   4 532.576 622.693   5
  10   5   5 519.275 437.835  15
  10  -5   5 1308.49 605.223   5
  10   5   5 1498.73 789.671   5
  10   5   6 591.711 510.087   5
  10  -6 -13 523.473 374.764   5
  10   6 -13 406.615 412.394   5
  10   6 -12-160.003 496.232   9
  10  -6 -12-700.182 737.933   5
  10   6 -12 1406.83 663.063   5
  10   6 -11-1211.87 901.835   9
  10  -6 -11 43.3334 569.463   5
  10   6 -11-168.585 680.375   5
  10   6 -10 1857.19 893.714   9
  10  -6 -10 1508.96 847.441   5
  10   6 -10-20.6347 640.805   5
  10   6  -9 3006.67 1325.99   9
  10  -6  -9 3991.77 1315.81   5
  10   6  -9 3250.52 1222.09   5
  10   6  -8 812.372 712.285   9
  10  -6  -8 331.125 633.557   5
  10   6  -8 139.868 642.333   5
  10   6  -7 3007.55 1292.99   9
  10  -6  -7 2738.67 953.547   5
  10   6  -7 1258.72 1031.65   5
  10   6  -6 2872.51 1343.70   9
  10  -6  -6 1370.54 868.870   5
  10   6  -6 631.931 747.779   5
  10   6  -5 1864.87 1002.68   9
  10  -6  -5 3397.06 1143.55   5
  10   6  -5 2413.57 1203.87   5
  10   6  -4-766.326 868.023   9
  10  -6  -4-882.833 894.511   5
  10   6  -4-329.816 973.570   5
  10   6  -3 532.063 656.700   9
  10  -6  -3-974.349 639.601   5
  10   6  -3 324.056 878.027   5
  10   6  -2-269.043 858.672   9
  10  -6  -2 1406.90 919.857   5
  10   6  -2 1839.62 1174.87   5
  10   6  -1 2727.44 1322.63   9
  10  -6  -1 2508.15 1106.41   5
  10   6  -1 3447.61 1207.24   5
  10   6   0 1377.22 915.153   9
  10  -6   0 395.027 1010.35   5
  10   6   0-374.250 795.925   5
  10  -6   1 6001.69 1495.01   5
  10   6   1 5144.08 1511.72   5
  10   6   2 1304.52 681.731  15
  10  -6   2-805.222 775.490   5
  10   6   2 248.985 758.817   5
  10   6   3 7138.30 1295.43  15
  10  -6   3 7888.52 1566.08   5
  10   6   3 8727.25 1649.32   5
  10   6   4-13.3060 507.713  15
  10  -6   4 760.167 656.215   5
  10   6   4 250.760 575.296   5
  10   6   5 2091.16 701.456  15
  10  -6   5 1399.15 684.247   5
  10   6   5 2739.59 862.899   5
  10   6   6-646.911 612.651   5
  10   7 -12-923.068 692.508   9
  10  -7 -12 763.022 547.311   5
  10   7 -12 165.192 494.814   5
  10   7 -11 2850.94 978.890   9
  10  -7 -11 3162.84 962.115   5
  10   7 -11 3238.85 990.080   5
  10   7 -10 4798.87 1378.38   9
  10  -7 -10 5009.50 1254.53   5
  10   7 -10 6760.17 1509.15   5
  10   7  -9 923.216 862.558   9
  10  -7  -9 789.686 833.535   5
  10   7  -9 485.074 707.503   5
  10   7  -8 2146.43 1301.69   9
  10  -7  -8 2171.78 1114.80   5
  10   7  -8-506.157 736.442   5
  10   7  -7 1886.94 975.521   9
  10  -7  -7 1886.48 1026.88   5
  10   7  -7 2520.13 933.219   5
  10   7  -6 396.278 915.362   9
  10  -7  -6-265.632 631.157   5
  10   7  -6 1284.93 1013.74   5
  10   7  -5 5488.70 1663.09   9
  10  -7  -5 4434.34 1320.11   5
  10   7  -5 5788.76 1424.54   5
  10   7  -4 121.581 1088.83   9
  10  -7  -4-1034.44 899.042   5
  10   7  -4 1209.00 998.311   5
  10   7  -3-1063.10 901.859   9
  10   7  -3 7.01633 645.160   5
 -10   7   3-211.165 772.143  10
  10   7  -2 7950.21 1948.90   9
  10  -7  -2 8412.84 1752.75   5
  10   7  -2 6921.81 1562.15   5
  10   7  -1-659.694 1176.99   9
  10  -7  -1 1659.28 896.151   5
  10   7  -1-222.770 645.949   5
  10   7   0-370.076 976.794   9
  10  -7   0-840.802 938.752   5
  10   7   0 1207.15 1419.16   5
  10  -7   1 2736.31 1005.55   5
  10   7   1 390.295 693.214   5
  10   7   2 3155.86 1003.16  15
  10  -7   2 1472.14 626.184   5
  10   7   2 2346.50 980.177   5
  10   7   3 2287.69 846.328  15
  10  -7   3 721.897 727.018   5
  10   7   3 1439.81 806.169   5
  10   7   4 1913.55 679.763  15
  10  -7   4 188.077 470.026   5
  10   7   4 862.159 716.607   5
  10   7   5 3209.50 851.847  15
  10  -7   5 2376.52 770.674   5
  10   7   5 3273.82 893.018   5
  10   8 -12 2538.28 828.812   9
  10   8 -12 1869.82 707.939   5
  10   8 -11 47.6185 725.806   9
  10  -8 -11 587.337 600.664   5
  10   8 -11-440.764 492.359   5
  10   8 -10 4255.93 1358.91   9
  10  -8 -10 3152.56 954.760   5
  10   8 -10 3092.79 1115.98   5
  10   8  -9 1163.72 951.434   9
  10  -8  -9 1311.05 695.976   5
  10   8  -9 1360.55 1028.36   5
  10   8  -8 5155.46 1627.84   9
  10  -8  -8 1904.97 969.909   5
  10   8  -8 4530.79 1332.91   5
  10   8  -7 1624.98 1263.29   9
  10  -8  -7 490.501 817.707   5
  10   8  -7 1357.11 937.671   5
  10  -8  -6 270.419 616.579   5
  10   8  -6 417.050 738.625   5
  10   8  -5 2076.30 1554.92   9
  10  -8  -5 1585.89 939.791   5
  10   8  -5 835.090 621.257   5
  10   8  -4 1098.57 916.090   9
  10  -8  -4 1157.76 939.644   5
  10   8  -4 171.815 695.101   5
  10   8  -3 356.566 807.749   9
  10   8  -3-1294.16 902.565   5
 -10   8   3-2439.60 1197.06  10
  10   8  -2 13548.0 2421.01   9
  10   8  -2 13829.2 2100.51   5
 -10   8   2 10143.9 2065.34  10
  10   8  -1 2151.38 1143.83   9
  10   8  -1 1793.13 939.371   5
  10   8   0 15145.3 2616.72   9
  10   8   0 15243.5 2208.75   5
  10   8   1 60.6675 616.744  15
  10   8   1-733.758 863.198   9
  10   8   1 643.680 716.573   5
  10   8   2 3353.03 925.877  15
  10   8   2 4523.68 1099.74   5
  10   8   3 1563.81 730.303  15
  10   8   3-587.652 786.813   5
  10   8   4 807.547 599.565  15
  10   8   4-52.1394 579.427   5
  10   8   5 1664.37 589.488  15
  10   8   5 847.346 581.732   5
  10   9 -12 1028.78 671.200   9
  10   9 -11-617.998 821.402   9
  10   9 -10 2742.41 1118.38   9
  10   9  -9-487.770 733.826   9
  10   9  -9-306.420 655.444   5
  10   9  -8 2095.37 1137.71   9
  10   9  -8 2316.96 1188.28   5
  10   9  -7 5741.60 1683.81   9
  10   9  -7 6778.18 1486.63   5
  10   9  -6 1573.32 1189.87   9
  10   9  -6 596.995 609.181   5
  10   9  -5 5554.78 1654.96   9
  10   9  -5 6285.57 1491.60   5
  10   9  -4 12223.9 2338.36   9
  10   9  -4 12215.7 1974.24   5
  10   9  -3 762.464 801.759   9
  10   9  -3 2783.92 1024.52   5
 -10   9   3 2524.04 1268.01  10
  10   9  -2 389.470 810.741   9
  10   9  -2 76.8127 632.858   5
 -10   9   2-331.198 654.876  10
  10   9  -1 1619.12 1218.24   9
  10   9  -1 1700.52 1059.85   5
 -10   9   1 1775.00 1019.42  10
  10   9   0 491.799 522.210  15
  10   9   0-55.4570 930.783   9
  10   9   0 48.7901 706.060   5
  10   9   1 1939.55 846.556  15
  10   9   1 2177.17 1035.47   9
  10   9   1 1309.94 875.719   5
  10   9   2 400.087 538.823  15
  10   9   2-147.266 729.013   9
  10   9   2 1299.57 904.221   5
  10   9   3 2928.32 946.434  15
  10   9   3 1192.69 630.448   5
  10   9   4-152.178 441.057  15
  10   9   4 2260.97 858.093   5
  10   9   5 1669.44 624.001  15
  10   9   5 2580.81 815.778   9
  10  10 -12-677.291 576.498   9
  10  10 -11 385.034 696.785   9
  10  10 -10 1851.70 890.981   9
  10  10  -9 5299.92 1626.04   9
  10  10  -8 1932.02 1082.55   9
  10  10  -7 5507.89 1560.75   9
  10  10  -6 1501.53 898.767   9
  10  10  -5 1580.09 1032.92   9
  10  10  -4 1578.11 1095.83   9
  10  10  -3 2000.08 1079.71   9
 -10  10   3 694.616 924.535  10
  10  10  -2 1213.38 1071.68   9
 -10  10   2-367.069 863.809  10
  10  10  -1 1458.19 763.379  15
  10  10  -1 383.314 720.515   9
 -10  10   1-286.647 739.150  10
  10  10   0 347.394 593.439  15
  10  10   0-1207.89 950.077   9
  10  10   1 6385.53 1413.85  15
  10  10   1 5462.46 1515.74   9
  10  10   2 598.426 527.126  15
  10  10   2 1372.36 999.254   9
  10  10   3 12257.3 1642.08  15
  10  10   3 14118.4 2259.48   9
  10  10   4 925.884 574.166  15
  10  10   4 2479.73 909.450   9
  10  10   5 2207.34 655.617  15
  10  10   5 2172.39 858.037   9
  10  11 -12-1217.09 625.485   9
  10  11 -11 1307.58 672.798   9
  10  11 -10 1884.73 1023.38   9
  10  11  -9 365.904 718.084   9
  10  11  -8 156.987 677.633   9
  10  11  -7 2110.53 1220.04   9
  10  11  -6-91.2990 976.402   9
  10  11  -5 12635.9 2414.41   9
  10  11  -4 5978.66 1771.71   9
  10  11  -3 328.829 859.237   9
 -10  11   3 1274.99 975.806  10
  10  11  -2 2437.77 1056.36   9
 -10  11   2 1773.08 1085.78  10
  10  11  -1 666.671 490.304  15
  10  11  -1-730.065 953.360   9
 -10  11   1-1535.34 972.623  10
  10  11   0 103.902 558.147  15
  10  11   0 721.203 806.956   9
 -10  11   0-296.264 608.461  10
  10  11   1 388.429 509.398  15
  10  11   1 93.2921 792.578   9
  10  11   2-254.395 432.795  15
  10  11   2 59.8043 695.780   9
  10  11   3 1508.91 760.126  15
  10  11   3 2226.42 1029.28   9
  10  11   4 339.972 449.734  15
  10  11   4 749.248 636.427   9
  10  11   5 3587.53 921.474   9
  10  12 -11 99.7711 644.838   9
  10  12 -10 2473.28 982.934   9
  10  12  -9 1187.12 911.019   9
  10  12  -8 353.133 742.717   9
  10  12  -7 468.430 625.771   9
  10  12  -6-681.766 886.935   9
  10  12  -5 8589.13 2016.64   9
  10  12  -4 3077.21 1294.03   9
  10  12  -3 527.053 848.409   9
 -10  12   3-825.270 1149.52  10
  10  12  -2 3543.56 1418.33   9
 -10  12   2 2394.17 1418.01  10
  10  12  -1 1141.58 692.258  15
  10  12  -1 2495.91 1204.29   9
 -10  12   1 1325.78 1094.44  10
  10  12   0 13266.6 1858.61  15
  10  12   0 14575.1 2489.32   9
 -10  12   0 12988.2 2247.93  10
  10  12   1 1058.10 676.575  15
  10  12   1 738.468 707.782   9
 -10  12  -1-664.064 612.971  10
  10  12   2 1445.47 740.544  15
  10  12   2 1140.85 996.735   9
  10  12   3 1474.93 763.311  15
  10  12   3 152.682 688.964   9
  10  12   4 366.521 361.351  15
  10  12   4-124.927 520.511   9
  10  13 -11-276.179 507.111   9
  10  13 -10 1602.92 781.732   9
  10  13  -9 1457.82 869.064   9
  10  13  -8 164.452 665.374   9
  10  13  -7 3464.48 1453.46   9
  10  13  -6 1068.69 916.175   9
  10  13  -5 4727.93 1588.09   9
  10  13  -4 10983.9 2191.98   9
  10  13  -3 472.737 691.364   9
 -10  13   3 132.705 688.382  10
  10  13  -2-316.294 713.182   9
 -10  13   2 1131.89 1177.08  10
  10  13  -1-858.884 1097.03   9
 -10  13   1 668.906 955.862  10
  10  13   0 224.093 464.650  15
  10  13   0 122.673 635.592   9
 -10  13   0 12.0918 649.042  10
  10  13   1 1021.84 573.891  15
  10  13   1 265.334 736.642   9
 -10  13  -1-716.312 884.177  10
  10  13   2 485.661 581.804  15
  10  13   2 963.837 773.977   9
  10  13   3 1485.44 600.809  15
  10  13   3 1822.25 900.536   9
  10  13   4-30.3092 342.561  15
  10  13   4 502.074 547.499   9
  10  14 -11 51.4823 601.005   9
  10  14 -10 498.873 584.067   9
  10  14  -9 1439.90 793.142   9
  10  14  -8 709.604 777.011   9
  10  14  -7 1195.23 938.918   9
  10  14  -6 7406.86 1803.85   9
  10  14  -5 4938.80 1522.51   9
  10  14  -4-1812.03 1021.27   9
  10  14  -3 1032.45 939.093   9
 -10  14   3 120.499 667.564  10
  10  14  -2-977.006 725.863   9
 -10  14   2-3039.73 1216.02  10
  10  14  -1-500.582 716.065   9
 -10  14   1 419.925 889.065  10
  10  14   0 950.062 817.118   9
 -10  14   0 566.279 707.456  10
  10  14   1 4139.37 1105.50  15
  10  14   1 3360.94 1184.72   9
 -10  14  -1 4882.34 1412.36  10
  10  14   2-29.3238 447.799  15
  10  14   2 620.108 667.086   9
 -10  14  -2 869.424 640.480  10
  10  14   3 3015.91 783.436  15
  10  14   3 3016.64 944.939   9
  10  15 -10 494.962 631.492   9
  10  15  -9 771.638 674.574   9
  10  15  -8 110.232 614.336   9
  10  15  -7 3774.65 1222.19   9
  10  15  -6 1755.41 1060.77   9
  10  15  -5 650.154 830.229   9
  10  15  -4 2098.91 1018.30   9
  10  15  -3 1390.52 849.781   9
 -10  15   3 2504.79 1155.73  10
  10  15  -2 2541.34 1227.45   9
 -10  15   2 2074.21 1076.86  10
  10  15  -1 238.852 634.496   9
 -10  15   1 832.178 733.979  10
  10  15   0 809.259 797.605   9
 -10  15   0 314.201 842.267  10
  10  15   1 1094.83 749.142   9
 -10  15  -1 268.635 608.506  10
  10  15   2-159.375 508.380   9
 -10  15  -2-250.824 526.130  10
  10  15   3 1891.75 829.180   9
  10  16 -10 1411.59 743.175   9
  10  16  -9-283.662 589.168   9
  10  16  -8-147.171 597.877   9
  10  16  -7-50.9737 606.517   9
  10  16  -6 859.487 907.694   9
  10  16  -5 1864.51 1018.12   9
  10  16  -4 1901.04 964.937   9
  10  16  -3 2090.11 951.676   9
 -10  16   3 727.142 868.625  10
  10  16  -2 1726.44 983.214   9
 -10  16   2 1470.67 1067.61  10
  10  16  -1 710.890 741.949   9
 -10  16   1 668.663 800.891  10
  10  16   0 9233.20 1794.10   9
 -10  16   0 9188.23 1745.16  10
  10  16   1 197.939 696.277   9
 -10  16  -1 305.579 581.992  10
  10  16   2 1223.98 652.181   9
 -10  16  -2 584.150 543.354  10
  10  17  -9 2727.58 939.068   9
  10  17  -8 4324.16 1160.08   9
  10  17  -7 4519.61 1290.41   9
  10  17  -6 415.985 618.978   9
  10  17  -5 4694.98 1347.98   9
  10  17  -4 3680.19 1212.40   9
  10  17  -3-884.977 857.260   9
  10  17  -2-759.408 629.831   9
 -10  17   2 106.030 602.669  10
  10  17  -1 674.717 644.361   9
 -10  17   1 275.389 554.715  10
  10  17   0 1211.74 807.713   9
 -10  17   0-299.468 543.487  10
  10  17   1 2447.79 879.427   9
 -10  17  -1 2925.69 940.164  10
  10  18  -8 299.448 515.979   9
  10  18  -7 6.29794 519.411   9
  10  18  -6 1724.72 876.879   9
  10  18  -5 3793.99 1131.33   9
  10  18  -4-899.778 645.531   9
  10  18  -3 854.835 812.858   9
  10  18  -2 904.112 683.627   9
 -10  18   2-274.396 580.558  10
  10  18  -1-976.007 750.028   9
 -10  18   1-95.8200 502.994  10
  10  18   0 264.764 523.814   9
 -10  18   0-57.3438 596.687  10
  10  19  -7 611.520 572.487   9
  10  19  -6 190.195 593.630   9
  10  19  -5 1354.93 616.294   9
  10  19  -4 1872.34 820.048   9
  10  19  -3 253.037 509.774   9
  10  19  -2 913.348 661.034   9
  10  19  -1 66.3614 484.971   9
 -10  19   1 62.1349 480.431  10
  11   0 -13-343.377 439.740   5
  11   0 -12 443.557 517.522   5
  11   0 -11 1798.70 729.144   5
  11   0 -10 1655.13 926.080   5
  11   0  -9 4995.98 1352.23   5
  11   0  -8 36.9577 727.155   5
  11   0  -7 15673.7 2297.09   5
  11   0  -6-920.717 892.322   5
  11   0  -5 2448.69 1138.53   5
  11   0  -4 709.798 977.782   5
  11   0  -3 762.177 857.624   5
  11   0  -2 991.306 867.027   5
  11   0  -1 819.110 642.867   5
  11   0   0 1044.45 863.404   5
  11   0   1 4527.48 1314.39   5
  11   0   2 1529.48 873.409   5
  11   0   3 3895.10 1038.52   5
  11   0   4-496.333 443.443   5
  11  -1 -13-788.575 530.299   5
  11   1 -13 188.532 376.681   5
  11  -1 -12 125.150 475.685   5
  11   1 -12 1431.08 775.087   5
  11  -1 -11-700.070 617.711   5
  11   1 -11-154.840 537.443   5
  11  -1 -10 2003.24 928.298   5
  11   1 -10 1964.59 907.692   5
  11  -1  -9 209.346 630.581   5
  11   1  -9 760.394 770.840   5
  11  -1  -8-1694.77 891.680   5
  11   1  -8 258.544 727.996   5
  11  -1  -7 4990.99 1368.92   5
  11   1  -7 3383.86 1223.25   5
  11  -1  -6 24.4467 839.573   5
  11   1  -6-538.217 771.307   5
  11  -1  -5 5073.32 1337.60   5
  11   1  -5 6925.20 1619.39   5
  11  -1  -4 1885.06 968.157   5
  11   1  -4 2359.43 848.922   5
  11  -1  -3 1226.94 1100.36   5
  11   1  -3 1445.98 842.722   5
  11  -1  -2 8092.32 1674.05   5
  11   1  -2 6804.84 1475.75   5
  11  -1  -1 724.425 662.560   5
  11   1  -1 1954.37 1087.07   5
  11  -1   0 2552.03 1038.10   5
  11   1   0 3318.15 1130.07   5
  11  -1   1 3672.18 1172.35   5
  11   1   1 4045.61 1298.56   5
  11  -1   2 831.073 660.218   5
  11   1   2 2550.37 952.395   5
  11  -1   3 1291.38 616.895   5
  11   1   3 2531.84 960.444   5
  11  -1   4 1261.22 612.380   5
  11   1   4 1883.39 852.049   5
  11   2 -13 656.010 419.758   5
  11  -2 -12 6372.32 1277.27   5
  11   2 -12 3249.47 865.414   5
  11  -2 -11-1289.76 708.324   5
  11   2 -11 369.804 528.354   5
  11  -2 -10 3931.41 1172.16   5
  11   2 -10 3248.74 906.014   5
  11  -2  -9-138.498 695.274   5
  11   2  -9 1162.03 808.409   5
  11  -2  -8 5768.53 1426.95   5
  11   2  -8 5561.97 1414.37   5
  11  -2  -7 215.624 704.138   5
  11   2  -7 757.597 819.962   5
  11  -2  -6 3362.11 1282.32   5
  11   2  -6 561.930 772.651   5
  11  -2  -5 370.975 708.234   5
  11   2  -5 790.904 856.765   5
  11  -2  -4 909.676 883.977   5
  11   2  -4-702.636 870.925   5
  11  -2  -3 1573.17 921.775   5
  11   2  -3 2668.88 1195.80   5
  11  -2  -2 826.924 631.718   5
  11   2  -2 394.787 705.004   5
  11  -2  -1 1397.84 1050.79   5
  11   2  -1-1231.24 896.330   5
  11  -2   0 2018.26 1022.51   5
  11   2   0 1737.88 976.460   5
  11   2   1 1313.34 843.728   9
  11  -2   1 276.524 646.168   5
  11   2   2 333.667 542.545   9
  11  -2   2 208.347 593.530   5
  11   2   2 75.3544 745.555   5
  11   2   3 1979.78 861.468   9
  11  -2   3-480.493 640.952   5
  11   2   3 1631.21 797.955   5
  11   2   4 5561.17 1161.30   9
  11  -2   4 4531.90 998.368   5
  11   2   4 4744.96 1011.68   5
  11  -3 -12 1572.37 664.148   5
  11   3 -12 1200.10 482.500   5
  11  -3 -11 786.277 645.751   5
  11   3 -11-1073.73 678.362   5
  11  -3 -10 989.752 744.431   5
  11   3 -10 1173.37 731.849   5
  11  -3  -9-73.3461 674.695   5
  11   3  -9 25.5657 739.411   5
  11  -3  -8 3319.92 1189.09   5
  11   3  -8 1712.40 909.164   5
  11  -3  -7 426.886 671.712   5
  11   3  -7 382.059 781.150   5
  11  -3  -6 696.434 731.909   5
  11   3  -6 649.795 919.012   5
  11  -3  -5 6334.42 1352.43   5
  11   3  -5 6208.36 1486.66   5
  11  -3  -4 7557.46 1636.60   5
  11   3  -4 7098.03 1590.37   5
  11  -3  -3 898.359 855.616   5
  11   3  -3 2533.90 1147.19   5
  11   3  -2 7680.53 1771.33   9
  11  -3  -2 7730.10 1681.94   5
  11   3  -2 9354.18 1829.83   5
  11   3  -1 2463.03 1071.86   9
  11  -3  -1 3137.36 1175.84   5
  11   3  -1 585.755 694.344   5
  11   3   0 6409.47 1584.26   9
  11  -3   0 6246.95 1385.93   5
  11   3   0 6561.53 1473.76   5
  11   3   1 3404.42 1197.17   9
  11  -3   1 3503.52 1127.78   5
  11   3   1 2501.89 991.895   5
  11   3   2 664.373 718.761   9
  11  -3   2-665.618 626.808   5
  11   3   2 548.241 671.279   5
  11   3   3 886.280 589.826   9
  11  -3   3 566.997 579.988   5
  11   3   3 607.184 607.358   5
  11   3   4 296.614 560.860   9
  11  -3   4-72.2547 562.804   5
  11   3   4 1548.04 743.695   5
  11  -4 -12 701.700 517.952   5
  11   4 -12-698.167 555.459   5
  11  -4 -11 968.133 563.289   5
  11   4 -11 671.326 610.399   5
  11  -4 -10-213.834 533.621   5
  11   4 -10 71.3634 573.558   5
  11  -4  -9 876.708 709.501   5
  11   4  -9 2490.27 1081.10   5
  11  -4  -8 3531.42 1182.07   5
  11   4  -8 3491.20 1140.77   5
  11  -4  -7 15667.6 2192.84   5
  11   4  -7 12288.8 2039.84   5
  11  -4  -6 239.514 778.298   5
  11   4  -6 215.442 739.349   5
  11   4  -5 339.542 699.125   9
  11  -4  -5 252.158 631.227   5
  11   4  -5-237.034 675.593   5
  11   4  -4 2485.81 1319.16   9
  11  -4  -4 695.605 714.389   5
  11   4  -4 1690.99 975.886   5
  11   4  -3 25.2986 886.039   9
  11  -4  -3 102.078 862.514   5
  11   4  -3-890.667 908.182   5
  11   4  -2 307.198 650.866   9
  11  -4  -2 1956.97 878.822   5
  11   4  -2 1283.36 886.776   5
  11   4  -1-473.858 630.408   9
  11  -4  -1 1160.91 898.491   5
  11   4  -1-520.336 776.645   5
  11   4   0 429.633 700.273   9
  11   4   0 918.136 872.532   5
  11   4   1 3555.77 1309.26   9
  11  -4   1 2806.54 937.566   5
  11   4   1 3411.66 1211.54   5
  11   4   2 760.215 757.828   9
  11  -4   2 1034.59 746.207   5
  11   4   2-247.510 588.941   5
  11   4   3 5588.85 1305.93   9
  11  -4   3 3553.33 940.838   5
  11   4   3 4556.03 1157.63   5
  11   4   4 763.279 576.355   9
  11  -4   4-254.687 437.774   5
  11   4   4 322.964 534.258   5
  11  -5 -12-651.795 525.421   5
  11   5 -12 1332.65 567.043   5
  11  -5 -11-665.729 482.541   5
  11   5 -11 685.395 659.997   5
  11  -5 -10 1906.19 814.363   5
  11   5 -10 639.407 686.208   5
  11  -5  -9 2306.93 835.425   5
  11   5  -9 1739.72 818.201   5
  11   5  -8-67.5485 774.037   9
  11  -5  -8-702.065 802.687   5
  11   5  -7 1160.28 902.634   9
  11  -5  -7 1206.48 907.492   5
  11   5  -7 895.450 788.575   5
  11   5  -6 2507.25 1015.03   9
  11  -5  -6 3738.55 1223.22   5
  11   5  -6 4154.90 1217.20   5
  11   5  -5 1927.72 1144.42   9
  11  -5  -5 1270.60 813.051   5
  11   5  -5 1777.20 1007.23   5
  11   5  -4 11599.9 2171.96   9
  11  -5  -4 8967.12 1839.15   5
  11   5  -4 9930.19 1893.69   5
  11   5  -3 786.484 735.218   9
  11  -5  -3 1309.79 945.637   5
  11   5  -3-177.969 859.485   5
  11   5  -2 1055.09 976.637   9
  11  -5  -2 1305.01 747.731   5
  11   5  -2 3089.31 1240.58   5
  11   5  -1 310.925 663.910   9
  11  -5  -1 1520.59 863.872   5
  11   5  -1 1426.39 732.844   5
  11   5   0 1770.62 896.367   9
  11  -5   0 2478.17 1039.05   5
  11   5   0 1966.85 874.611   5
  11   5   1 3062.94 1101.97   9
  11  -5   1 1478.61 662.969   5
  11   5   1 2119.04 929.876   5
  11   5   2-88.4115 633.948   9
  11  -5   2-2143.23 896.954   5
  11   5   3 41.4182 539.437   9
  11  -5   3-828.603 591.327   5
  11   5   3 726.232 666.841   5
  11   5   4 342.853 464.207   9
  11  -5   4 359.098 450.704   5
  11   5   4 381.921 607.734   5
  11  -6 -12 3180.03 780.443   5
  11   6 -12 3050.42 744.835   5
  11  -6 -11-16.6770 483.722   5
  11   6 -11 1498.03 762.762   5
  11   6 -10 5145.30 1304.73   9
  11  -6 -10 5837.64 1228.71   5
  11   6 -10 5693.10 1255.27   5
  11   6  -9 1078.90 730.992   9
  11  -6  -9 296.237 523.800   5
  11   6  -9 1532.30 879.601   5
  11   6  -8 860.586 689.909   9
  11  -6  -8 981.331 679.678   5
  11   6  -8 2459.54 931.159   5
  11   6  -7 1134.58 1029.59   9
  11  -6  -7 988.623 776.448   5
  11   6  -7 1721.38 867.243   5
  11   6  -6 1281.54 958.490   9
  11  -6  -6 929.167 811.172   5
  11   6  -6 1128.62 909.906   5
  11   6  -5-57.4871 735.636   9
  11  -6  -5-805.739 616.876   5
  11   6  -5-182.759 602.488   5
  11   6  -4 2167.75 1023.92   9
  11  -6  -4 637.432 864.476   5
  11   6  -4 1920.56 1135.45   5
  11   6  -3 3034.58 1090.31   9
  11  -6  -3 4709.91 1268.91   5
  11   6  -3 3449.79 1194.09   5
  11   6  -2 1437.35 971.306   9
  11  -6  -2 1326.71 804.108   5
  11   6  -2 530.270 675.619   5
  11   6  -1-1538.11 972.513   9
  11  -6  -1 304.999 765.190   5
  11   6  -1-344.989 690.480   5
  11   6   0 1159.40 893.578   9
  11  -6   0 1083.98 786.616   5
  11   6   0 1136.19 880.803   5
  11   6   1-438.600 589.148   9
  11  -6   1 1339.09 788.748   5
  11   6   1 199.930 538.673   5
  11   6   2-224.580 679.661   9
  11  -6   2-1420.07 749.733   5
  11   6   2 829.212 698.079   5
  11   6   3 504.563 713.846   9
  11  -6   3-1255.56 721.057   5
  11   6   3 1062.31 672.304   5
  11   6   4 574.881 590.584   9
  11   6   4-1074.40 633.696   5
  11   7 -11-534.155 564.510   9
  11  -7 -11 500.194 454.834   5
  11   7 -11 929.022 715.583   5
  11  -7 -10-1418.28 747.327   5
  11   7 -10-978.377 611.509   5
  11   7  -9 1148.46 835.907   9
  11  -7  -9 842.353 721.014   5
  11   7  -9 69.7018 562.955   5
  11   7  -8-434.782 689.143   9
  11  -7  -8 16.7475 548.049   5
  11   7  -8 156.115 728.231   5
  11   7  -7-118.396 683.123   9
  11  -7  -7 234.453 655.414   5
  11   7  -7 616.013 696.923   5
  11   7  -6 642.119 806.852   9
  11  -7  -6 2739.50 989.860   5
  11   7  -6 596.079 847.428   5
  11   7  -5 5204.65 1513.43   9
  11  -7  -5 4629.11 1239.18   5
  11   7  -5 5433.22 1402.36   5
  11   7  -4 6983.68 1711.05   9
  11  -7  -4 4986.79 1322.26   5
  11   7  -4 5811.05 1556.93   5
  11   7  -3 569.773 709.104   9
  11  -7  -3 71.4701 757.996   5
  11   7  -3 229.100 714.360   5
  11   7  -2 10911.8 2064.05   9
  11  -7  -2 9248.03 1706.67   5
  11   7  -2 9303.97 1654.69   5
  11   7  -1-990.670 755.861   9
  11  -7  -1 433.593 660.959   5
  11   7  -1-1008.14 875.746   5
  11   7   0 5997.82 1589.78   9
  11  -7   0 5571.50 1318.15   5
  11   7   0 7395.07 1478.61   5
  11   7   1 1320.56 771.806   9
  11  -7   1 299.836 517.840   5
  11   7   1-950.280 824.832   5
  11   7   2-41.4770 675.633   9
  11  -7   2 981.239 729.917   5
  11   7   2-380.445 498.345   5
  11   7   3-490.112 627.532   9
  11  -7   3 636.620 489.893   5
  11   7   3-1218.16 692.047   5
  11   7   4-1072.96 722.479   9
  11   8 -11-1442.17 775.415   9
  11   8 -11 2582.22 727.269   5
  11   8 -10-277.036 612.952   9
  11   8 -10-437.650 638.067   5
  11   8  -9 4165.17 1224.08   9
  11  -8  -9 4756.37 1113.88   5
  11   8  -9 6236.75 1308.60   5
  11   8  -8 19.1182 729.766   9
  11  -8  -8-2053.31 932.001   5
  11   8  -8-744.129 596.308   5
  11   8  -7 10450.6 2043.74   9
  11  -8  -7 7096.41 1450.64   5
  11   8  -7 7036.82 1486.36   5
  11   8  -6 8.75051 736.980   9
  11  -8  -6-673.493 572.501   5
  11  -8  -5 1119.94 761.600   5
  11   8  -5 2219.01 962.846   5
  11   8  -4-157.758 766.274   9
  11  -8  -4 214.406 638.512   5
  11   8  -4 595.390 593.196   5
  11   8  -3 27.2741 904.995   9
  11  -8  -3-1156.15 742.513   5
  11   8  -3-241.831 778.523   5
  11   8  -2-217.447 876.725   9
  11  -8  -2 180.860 767.923   5
  11   8  -2 924.855 660.876   5
  11   8  -1 1760.98 1056.54   9
  11   8  -1 1173.12 640.539   5
  11   8   0 297.403 709.926   9
  11   8   0 661.990 685.953   5
  11   8   1 3941.50 1201.04   9
  11   8   1 4088.73 1152.20   5
  11   8   2-1057.08 787.610   9
  11   8   2 750.470 631.732   5
  11   8   3 7141.83 1360.76   9
  11   8   3 5527.74 1024.92   5
  11   9 -11 859.329 545.923   9
  11   9 -10 132.699 509.897   9
  11   9  -9 529.160 617.286   9
  11   9  -8 193.493 732.182   9
  11   9  -8 329.912 548.585   5
  11   9  -7-45.9595 792.200   9
  11   9  -7 327.315 537.598   5
  11   9  -6 2992.46 1201.62   9
  11   9  -6 1222.15 804.804   5
  11   9  -5 2042.09 1063.84   9
  11   9  -5 1536.77 653.052   5
  11   9  -4 17614.9 2191.02   5
  11   9  -4 17150.1 2603.29   9
  11   9  -3 361.080 815.848   9
  11   9  -3-528.909 709.265   5
  11   9  -2 4413.23 1401.10   9
  11   9  -2 4407.85 1026.95   5
  11   9  -1 2232.70 1103.17   9
  11   9  -1 822.492 701.785   5
  11   9   0 6273.87 1614.93   9
  11   9   0 5342.81 1261.09   5
  11   9   1-150.508 593.171   9
  11   9   1-1524.03 763.218   5
  11   9   2 274.924 648.996   9
  11   9   2 9.82647 576.439   5
  11   9   3 878.126 570.704   9
  11  10 -11-575.463 610.321   9
  11  10 -10 641.124 578.747   9
  11  10  -9 278.265 728.515   9
  11  10  -8-745.960 840.894   9
  11  10  -7-1076.41 835.979   9
  11  10  -6 3076.03 1227.00   9
  11  10  -5 428.921 942.627   9
  11  10  -4-761.493 965.921   9
  11  10  -3 1120.48 962.399   9
  11  10  -2 1757.10 851.941   9
  11  10  -1 491.533 673.468   9
  11  10   0-309.005 814.237   9
  11  10   1-0.80004 631.983   9
  11  10   2 1326.92 581.990  15
  11  10   2-60.3666 594.926   9
  11  10   3 694.663 602.940   9
  11  11 -10 468.648 500.040   9
  11  11  -9-49.3964 600.091   9
  11  11  -8 450.030 745.183   9
  11  11  -7 2019.68 1016.18   9
  11  11  -6 1138.00 982.998   9
  11  11  -5 4575.20 1458.82   9
  11  11  -4 761.580 697.184   9
  11  11  -3 1643.08 972.381   9
  11  11  -2 5508.56 1566.30   9
  11  11  -1-88.6433 614.311   9
  11  11   0 1075.92 800.775   9
  11  11   1 1224.23 766.314   9
  11  11   2 1129.50 518.098  15
  11  11   2 741.625 644.493   9
  11  11   3 107.937 494.386   9
  11  12 -10-194.831 450.263   9
  11  12  -9 2603.73 1004.01   9
  11  12  -8 439.987 603.931   9
  11  12  -7 7247.64 1588.08   9
  11  12  -6 21.9997 750.641   9
  11  12  -5 699.273 706.433   9
  11  12  -4 162.178 752.048   9
  11  12  -3 535.118 739.536   9
  11  12  -2 318.720 601.042   9
  11  12  -1-388.563 750.105   9
  11  12   0 751.720 604.719   9
  11  12   1 2552.10 979.820   9
  11  12   2 16.3070 513.925   9
  11  13 -10 254.641 488.303   9
  11  13  -9 204.553 527.132   9
  11  13  -8 843.827 834.549   9
  11  13  -7 818.767 681.434   9
  11  13  -6-35.8209 780.928   9
  11  13  -5 623.982 706.288   9
  11  13  -4 2615.62 1109.38   9
  11  13  -3 1363.47 924.847   9
  11  13  -2 5484.24 1419.99   9
  11  13  -1 899.864 771.379   9
  11  13   0 5746.38 1380.91   9
  11  13   1-163.687 512.285   9
  11  13   2 6.48843 472.066   9
  11  14  -9 105.498 514.647   9
  11  14  -8 1669.07 793.096   9
  11  14  -7-424.615 638.522   9
  11  14  -6-979.311 714.096   9
  11  14  -5 197.649 580.733   9
  11  14  -4 44.9883 738.582   9
  11  14  -3 857.455 721.194   9
  11  14  -2 496.025 603.751   9
  11  14  -1 1093.58 762.177   9
  11  14   0 352.129 562.683   9
  11  14   1-311.102 430.241   9
  11  15  -8 1811.00 937.040   9
  11  15  -7 1190.30 754.636   9
  11  15  -6-191.864 533.581   9
  11  15  -5 111.063 558.393   9
  11  15  -4 173.479 608.257   9
  11  15  -3 115.770 565.012   9
  11  15  -2 2692.94 844.429   9
  11  15  -1-1358.24 790.897   9
  11  15   0-476.081 574.316   9
  11  16  -8-479.261 501.449   9
  11  16  -7 3261.67 988.548   9
  11  16  -6-830.969 732.910   9
  11  16  -5 2040.47 824.037   9
  11  16  -4 621.130 649.424   9
  11  16  -3 963.185 632.055   9
  11  16  -2 395.509 483.263   9
  11  16  -1-98.7769 509.173   9
  11  17  -6 2411.36 793.264   9
  11  17  -5 422.863 670.555   9
  11  17  -4-116.524 450.267   9
  11  17  -3-513.226 457.005   9
  11  17  -2 1643.70 696.917   9
  12   0 -11 1089.57 488.326   5
  12   0 -10 553.088 579.463   5
  12   0  -9-207.667 523.707   5
  12   0  -8 139.461 535.281   5
  12   0  -7 527.669 720.757   5
  12   0  -6 8587.53 1590.32   5
  12   0  -5 313.533 655.441   5
  12   0  -4 8809.37 1636.75   5
  12   0  -3-637.078 603.695   5
  12   0  -2 7676.71 1542.47   5
  12   0  -1-174.347 700.886   5
  12   0   0 3.20295 608.546   5
  12   0   1-184.987 494.409   5
  12   0   2 1486.89 656.565   5
  12  -1 -11 1249.31 642.141   5
  12   1 -11 2567.80 765.286   5
  12  -1 -10-345.206 476.147   5
  12   1 -10-887.056 565.832   5
  12  -1  -9 1220.55 797.868   5
  12   1  -9 688.223 657.364   5
  12  -1  -8 1223.84 863.309   5
  12   1  -8 1319.10 765.393   5
  12  -1  -7 807.048 675.711   5
  12   1  -7 454.243 622.188   5
  12  -1  -6 3058.85 945.591   5
  12   1  -6 619.191 719.603   5
  12  -1  -5-385.412 635.923   5
  12   1  -5-1010.25 852.848   5
  12  -1  -4 127.927 648.843   5
  12   1  -4 1836.54 937.435   5
  12  -1  -3 2000.53 939.628   5
  12   1  -3 1892.20 891.505   5
  12  -1  -2 5655.73 1408.56   5
  12   1  -2 4702.67 1246.28   5
  12  -1  -1 1829.04 941.522   5
  12   1  -1 2707.68 990.196   5
  12  -1   0 542.531 604.037   5
  12   1   0-504.678 688.467   5
  12  -1   1 3341.56 983.526   5
  12   1   1 2582.06 850.883   5
  12  -1   2 234.253 477.927   5
  12   1   2 105.421 432.304   5
  12  -2 -11 622.394 542.368   5
  12   2 -11-58.3314 404.068   5
  12  -2 -10-316.124 530.795   5
  12   2 -10 460.897 627.780   5
  12  -2  -9 1347.39 686.761   5
  12   2  -9 1688.35 822.438   5
  12  -2  -8 1642.38 741.500   5
  12   2  -8 3593.90 1086.52   5
  12  -2  -7 8253.94 1563.86   5
  12   2  -7 7806.91 1524.32   5
  12  -2  -6 243.720 684.238   5
  12   2  -6-353.759 780.233   5
  12  -2  -5 1731.09 873.022   5
  12   2  -5 909.132 805.829   5
  12  -2  -4 62.2460 662.439   5
  12   2  -4-430.958 658.759   5
  12  -2  -3 1977.62 976.971   5
  12   2  -3 1989.37 751.963   5
  12  -2  -2 883.733 862.712   5
  12   2  -2-484.486 758.147   5
  12  -2  -1 12137.6 1785.96   5
  12   2  -1 10200.2 1662.44   5
  12  -2   0 815.134 725.345   5
  12   2   0-241.608 582.025   5
  12  -2   1 164.019 494.684   5
  12   2   1 464.995 737.317   5
  12  -2   2 670.037 596.160   5
  12   2   2-1170.71 655.894   5
  12  -3 -11 3469.04 783.767   5
  12   3 -11 2892.12 746.735   5
  12  -3 -10-1513.61 758.067   5
  12   3 -10-127.390 568.153   5
  12  -3  -9 826.284 676.733   5
  12   3  -9 2226.33 913.569   5
  12  -3  -8 1473.84 793.412   5
  12   3  -8-255.526 531.030   5
  12  -3  -7 3964.19 1093.79   5
  12   3  -7 1946.11 806.092   5
  12  -3  -6-799.371 828.475   5
  12   3  -6-109.064 583.304   5
  12  -3  -5 1366.31 835.324   5
  12   3  -5 844.509 732.790   5
  12  -3  -4 685.370 809.230   5
  12   3  -4 560.517 594.345   5
  12  -3  -3 520.504 566.188   5
  12   3  -3 79.9872 631.297   5
  12  -3  -2 4290.17 1115.00   5
  12   3  -2 5402.70 1328.41   5
  12  -3  -1 8000.05 1504.99   5
  12   3  -1 7090.86 1411.72   5
  12  -3   0-582.808 607.177   5
  12   3   0-1020.40 745.373   5
  12  -3   1 1088.68 532.217   5
  12   3   1-799.020 661.135   5
  12  -3   2-422.945 536.736   5
  12   3   2 958.778 412.716   5
  12  -4 -11-525.522 470.837   5
  12   4 -11-44.6796 419.001   5
  12  -4 -10-357.929 479.086   5
  12   4 -10 341.766 539.287   5
  12  -4  -9 480.569 584.677   5
  12   4  -9 80.0116 621.397   5
  12  -4  -8-71.9007 709.390   5
  12   4  -8-677.426 719.541   5
  12  -4  -7 609.495 666.490   5
  12   4  -7-63.2601 603.829   5
  12  -4  -6 4638.64 1224.16   5
  12   4  -6 4803.24 1206.63   5
  12  -4  -5-799.309 640.989   5
  12   4  -5 138.544 567.604   5
  12  -4  -4 4185.46 1183.59   5
  12   4  -4 4726.63 1222.02   5
  12  -4  -3-2021.67 907.507   5
  12   4  -3-463.052 575.391   5
  12  -4  -2 5353.11 1217.63   5
  12   4  -2 5389.35 1408.41   5
  12   4  -1 225.836 652.034   9
  12  -4  -1 1942.91 867.273   5
  12   4  -1 254.707 695.061   5
  12  -4   0-354.967 530.673   5
  12   4   0-1073.04 608.855   5
  12   4   1-931.390 653.643   9
  12  -4   1-861.893 618.170   5
  12   4   1-1153.55 759.598   5
  12  -4   2 106.437 511.276   5
  12   4   2 321.593 431.403   5
  12  -5 -10-339.665 483.883   5
  12   5 -10 840.099 560.158   5
  12  -5  -9 626.842 510.365   5
  12   5  -9 83.2277 520.135   5
  12  -5  -8-154.517 483.664   5
  12   5  -8-467.641 569.069   5
  12  -5  -7-90.8436 578.743   5
  12   5  -7 550.519 600.042   5
  12  -5  -6-922.232 788.474   5
  12   5  -6 1477.94 656.494   5
  12  -5  -5 981.615 913.342   5
  12   5  -5 182.149 682.148   5
  12   5  -4 2396.99 928.014   9
  12  -5  -4 2565.80 911.124   5
  12   5  -4 2629.51 1012.63   5
  12   5  -3-95.7063 601.476   9
  12  -5  -3 324.402 577.385   5
  12   5  -3 948.949 596.665   5
  12   5  -2 4178.35 1160.91   9
  12  -5  -2 5476.40 1241.11   5
  12   5  -2 3817.44 1062.74   5
  12   5  -1 2324.09 855.744   9
  12  -5  -1 3371.69 1073.63   5
  12   5  -1 3475.00 1092.02   5
  12   5   0-51.3218 753.827   9
  12  -5   0 2230.43 772.197   5
  12   5   0 1867.90 823.627   5
  12   5   1 1130.24 686.062   9
  12  -5   1 1276.67 622.389   5
  12   5   1 508.305 558.732   5
  12   5   2 1132.92 682.079   5
  12  -6 -10-147.720 447.835   5
  12   6 -10 110.400 384.977   5
  12  -6  -9 792.026 488.241   5
  12   6  -9 1842.69 714.342   5
  12  -6  -8-504.742 522.320   5
  12   6  -8 1274.64 640.994   5
  12   6  -7-387.329 516.848   9
  12  -6  -7 2164.05 880.616   5
  12   6  -7 2106.77 768.608   5
  12   6  -6 704.334 712.788   9
  12  -6  -6 614.225 525.726   5
  12   6  -6 917.817 757.758   5
  12   6  -5-352.520 622.671   9
  12  -6  -5-737.353 702.791   5
  12   6  -5 852.914 703.011   5
  12   6  -4-73.1132 648.004   9
  12  -6  -4-910.271 617.972   5
  12   6  -4-306.299 531.884   5
  12   6  -3-20.8907 572.811   9
  12  -6  -3 826.729 747.245   5
  12   6  -3-392.392 533.618   5
  12   6  -2 1864.25 967.919   9
  12  -6  -2 1606.94 753.127   5
  12   6  -2 2015.38 950.118   5
  12   6  -1 3231.37 1057.20   9
  12  -6  -1 2397.56 878.888   5
  12   6  -1 2055.07 888.755   5
  12   6   0 1558.75 691.480   9
  12  -6   0 577.830 548.726   5
  12   6   0 593.336 513.211   5
  12   6   1 674.730 581.748   9
  12  -6   1-49.8127 423.120   5
  12   6   1-969.035 590.084   5
  12   7 -10 366.424 494.231   5
  12  -7  -9 882.891 560.688   5
  12   7  -9 1388.71 697.222   5
  12   7  -8 109.153 589.384   9
  12  -7  -8 565.657 472.791   5
  12   7  -8 849.325 806.559   5
  12   7  -7 3173.95 975.998   9
  12  -7  -7 6546.77 1208.98   5
  12   7  -7 3561.94 1034.13   5
  12   7  -6 171.074 696.233   9
  12  -7  -6-375.845 629.308   5
  12   7  -6 687.154 808.731   5
  12   7  -5 709.479 837.585   9
  12  -7  -5 854.923 701.531   5
  12   7  -5-504.369 611.998   5
  12   7  -4 700.051 737.602   9
  12  -7  -4 730.391 566.238   5
  12   7  -4 1267.80 812.071   5
  12   7  -3-309.995 607.414   9
  12  -7  -3-444.884 646.553   5
  12   7  -3-164.934 573.331   5
  12  -7  -2 631.540 576.095   5
  12   7  -2 248.381 509.314   5
  12   7  -1 1041.16 785.838   9
  12  -7  -1 1834.80 750.314   5
  12   7  -1 2840.56 867.962   5
  12   7   0-348.624 491.801   9
  12  -7   0 789.107 507.456   5
  12   7   0-457.002 533.042   5
  12   7   1 1051.71 621.933   9
  12   7   1 555.725 505.521   5
  12   8  -9 1155.50 712.705   9
  12   8  -9 809.113 525.008   5
  12   8  -8 610.836 722.217   9
  12   8  -8 79.8840 575.265   5
  12   8  -7 465.519 597.740   9
  12   8  -7 553.226 550.316   5
  12   8  -6 4867.87 1243.56   9
  12   8  -6 4463.08 1114.58   5
  12   8  -5-893.216 777.644   9
  12   8  -5 513.904 512.289   5
  12   8  -4 12261.7 1931.45   9
  12   8  -4 11529.0 1674.05   5
  12   8  -3-673.915 840.209   9
  12   8  -3 656.967 479.132   5
  12   8  -2-22.1491 541.660   9
  12   8  -2 740.381 536.922   5
  12   8  -1 199.785 768.409   9
  12   8  -1 153.853 513.536   5
  12   8   0-271.123 494.098   9
  12   8   0 991.389 554.873   5
  12   8   1-1016.24 666.175   9
  12   9  -9 905.331 680.922   9
  12   9  -8 1470.79 862.039   9
  12   9  -7-1097.60 684.012   9
  12   9  -6 759.347 566.124   9
  12   9  -5 370.782 702.772   9
  12   9  -5 591.999 688.076   5
  12   9  -4 1247.92 871.145   9
  12   9  -4 2352.96 913.424   5
  12   9  -3-1164.63 912.142   9
  12   9  -3 932.715 631.450   5
  12   9  -2 2098.10 935.551   9
  12   9  -2 543.533 490.348   5
  12   9  -1 1052.15 782.636   9
  12   9   0-1074.54 672.341   9
  12   9   1 56.2434 427.707   9
  12  10  -8 762.843 707.455   9
  12  10  -7 2925.52 930.182   9
  12  10  -6 601.067 596.357   9
  12  10  -5 834.854 698.921   9
  12  10  -4-760.515 546.787   9
  12  10  -3 990.384 700.928   9
  12  10  -2-324.007 643.534   9
  12  10  -1 202.268 506.028   9
  12  10   0-296.029 529.405   9
  12  11  -8 468.955 604.049   9
  12  11  -7 1604.56 818.104   9
  12  11  -6 819.229 669.211   9
  12  11  -5 1898.57 806.606   9
  12  11  -4 340.705 559.893   9
  12  11  -3-496.178 692.243   9
  12  11  -2-807.839 696.705   9
  12  11  -1 1015.43 669.526   9
  12  11   0 25.5205 524.478   9
  12  12  -8-610.069 468.052   9
  12  12  -7-278.455 468.314   9
  12  12  -6 3269.40 1025.40   9
  12  12  -5 540.175 607.267   9
  12  12  -4 3387.37 1039.77   9
  12  12  -3-343.918 625.891   9
  12  12  -2 1169.08 672.532   9
  12  12  -1-408.114 623.871   9
  12  13  -7 1131.10 676.821   9
  12  13  -6 1363.14 646.359   9
  12  13  -5 777.280 489.625   9
  12  13  -4 2641.67 930.037   9
  12  13  -3-1154.45 713.521   9
  12  13  -2 1418.26 777.140   9
  12  14  -6 55.4653 437.504   9
  12  14  -5 2571.07 878.725   9
  12  14  -4-190.656 430.922   9
  12  14  -3 428.416 528.378   9
  13   0  -9 1539.08 586.840   5
  13   0  -8-41.8144 458.747   5
  13   0  -7-454.882 499.439   5
  13   0  -6 414.790 538.263   5
  13   0  -5 1511.95 611.043   5
  13   0  -4-419.140 484.399   5
  13   0  -3 2079.06 853.350   5
  13   0  -2-190.576 488.208   5
  13   0  -1 10017.0 1308.03   5
  13  -1  -9 4623.78 863.693   5
  13   1  -9 4239.75 887.100   5
  13  -1  -8 3830.32 841.071   5
  13   1  -8 3343.84 869.356   5
  13  -1  -7 925.388 643.851   5
  13   1  -7-1039.35 644.329   5
  13  -1  -6 2439.81 827.671   5
  13   1  -6 1980.38 731.091   5
  13  -1  -5 1762.13 644.302   5
  13   1  -5 503.132 499.661   5
  13  -1  -4 1992.55 753.240   5
  13   1  -4 3011.14 961.594   5
  13  -1  -3 1933.60 723.704   5
  13   1  -3 2662.07 879.038   5
  13  -1  -2-327.357 556.657   5
  13   1  -2 915.639 608.888   5
  13  -1  -1 1599.58 632.467   5
  13   1  -1-537.584 491.440   5
  13  -2  -9 901.205 513.324   5
  13   2  -9 126.007 456.680   5
  13  -2  -8 714.337 472.003   5
  13   2  -8 1209.62 599.325   5
  13  -2  -7 200.723 514.733   5
  13   2  -7 251.553 481.315   5
  13  -2  -6 906.794 632.377   5
  13   2  -6-426.234 457.154   5
  13  -2  -5 76.6078 545.516   5
  13   2  -5 292.380 482.518   5
  13  -2  -4 3626.92 942.663   5
  13   2  -4 4055.95 950.337   5
  13  -2  -3-282.270 580.878   5
  13   2  -3 609.458 556.952   5
  13  -2  -2 1327.59 655.364   5
  13   2  -2 1836.56 698.356   5
  13  -2  -1-395.154 436.659   5
  13   2  -1 494.551 482.266   5
  13   3  -9 3979.35 833.389   5
  13  -3  -8 368.140 432.422   5
  13   3  -8 2226.46 767.117   5
  13  -3  -7 2461.44 752.041   5
  13   3  -7 623.973 426.558   5
  13  -3  -6 4654.02 1051.08   5
  13   3  -6 4691.34 971.538   5
  13  -3  -5 246.226 462.043   5
  13   3  -5 269.062 455.044   5
  13  -3  -4 889.521 609.269   5
  13   3  -4 2051.15 721.947   5
  13  -3  -3 2084.29 709.738   5
  13   3  -3 1964.45 766.897   5
  13  -3  -2-73.5802 418.020   5
  13   3  -2-896.983 663.250   5
  13  -3  -1-515.970 535.681   5
  13   3  -1 1145.15 622.138   5
  13  -4  -8 423.758 394.061   5
  13   4  -8 648.882 486.382   5
  13  -4  -7 495.562 493.952   5
  13   4  -7-681.370 537.507   5
  13  -4  -6 284.037 427.704   5
  13   4  -6-19.2529 422.354   5
  13  -4  -5-117.760 511.027   5
  13   4  -5 1581.97 682.286   5
  13  -4  -4-1291.79 638.573   5
  13   4  -4 435.938 489.388   5
  13  -4  -3 2432.05 755.472   5
  13   4  -3 1827.02 707.510   5
  13  -4  -2-136.912 443.464   5
  13   4  -2 414.123 473.102   5
  13   4  -1 5955.12 975.719   5
  13   5  -8-27.1362 433.456   5
  13  -5  -7 599.083 458.510   5
  13   5  -7 1441.65 602.113   5
  13  -5  -6 1766.80 550.298   5
  13   5  -6 1076.35 605.956   5
  13  -5  -5 1708.87 659.849   5
  13   5  -5-357.323 579.313   5
  13  -5  -4 3401.56 868.837   5
  13   5  -4 2610.52 725.967   5
  13  -5  -3-403.046 485.485   5
  13   5  -3 913.774 527.701   5
  13  -5  -2 801.119 488.360   5
  13   5  -2 291.526 496.266   5
  13   6  -7-146.765 405.008   5
  13  -6  -6 232.675 405.254   5
  13   6  -6-88.0974 396.644   5
  13  -6  -5 453.014 446.760   5
  13   6  -5 810.256 595.863   5
  13  -6  -4 5166.27 964.127   5
  13   6  -4 6295.15 1093.87   5
  13   6  -3 488.959 530.770   5
  13   6  -2 1748.09 606.473   5
  13   7  -6 697.517 560.168   5
  13   7  -5-39.8403 421.117   5
  13   7  -4 871.475 572.833   5
   0   0   0    0.00    0.00   0

TITL 474-25Zn2 in P2(1)/n
REM P2(1)/n (#14 in standard setting)
CELL 1.54184  11.222010  24.683441  13.194444  90.0000 108.1407  90.0000
ZERR   15.00   0.000589   0.001545   0.000941   0.0000   0.0065   0.0000
LATT  1
SYMM -x+1/2, y+1/2,-z+1/2
SFAC C H N O
UNIT 165.00 150.00 15.00 15.00
TREF
HKLF 4
END
;
_shelx_hkl_checksum              86883
loop_
_space_group_symop_operation_xyz
'x, y, z'
'-x+1/2, y+1/2, -z+1/2'
'-x, -y, -z'
'x-1/2, -y-1/2, z-1/2'
loop_
_atom_site_label
_atom_site_type_symbol
_atom_site_fract_x
_atom_site_fract_y
_atom_site_fract_z
_atom_site_U_iso_or_equiv
_atom_site_adp_type
_atom_site_occupancy
_atom_site_site_symmetry_order
_atom_site_calc_flag
_atom_site_refinement_flags_posn
_atom_site_refinement_flags_adp
_atom_site_refinement_flags_occupancy
_atom_site_disorder_assembly
_atom_site_disorder_group
Zn1 Zn -0.04135(9) 0.87965(5) 0.51433(8) 0.0454(3) Uani 1 1 d . . . . .
Zn2 Zn 0.84271(9) 0.87211(5) 0.90955(8) 0.0509(3) Uani 1 1 d . . . . .
N1 N -0.0229(6) 0.8127(3) 0.4284(6) 0.0558(19) Uani 1 1 d . . . . .
N2 N 0.0211(6) 0.9143(3) 0.3888(5) 0.0508(17) Uani 1 1 d . . . . .
N3 N 0.8472(6) 0.7896(3) 0.9335(5) 0.0524(18) Uani 1 1 d . . . . .
N4 N 0.7792(6) 0.8658(3) 1.0434(5) 0.0536(19) Uani 1 1 d . . . . .
O1 O 0.1529(5) 0.8253(3) 0.6922(4) 0.0558(15) Uani 1 1 d . . . . .
O2 O 0.0894(4) 0.9093(2) 0.6382(4) 0.0457(13) Uani 1 1 d . . . . .
O3 O 0.0251(5) 0.8964(3) 0.9781(4) 0.0665(19) Uani 1 1 d . . . . .
O4 O -0.0205(4) 0.8714(2) 0.8137(4) 0.0554(16) Uani 1 1 d . . . . .
O5 O 0.3965(4) 0.9038(2) 0.7336(4) 0.0420(13) Uani 1 1 d . . . . .
O6 O 0.6669(6) 0.8743(3) 0.7683(6) 0.084(2) Uani 1 1 d . . . . .
O7 O 0.7532(6) 0.9459(3) 0.8543(5) 0.076(2) Uani 1 1 d . . . . .
O8 O 0.1820(4) 1.0680(2) 0.5296(4) 0.0554(15) Uani 1 1 d . . . . .
O9 O 0.3369(6) 1.1180(3) 0.5124(7) 0.112(3) Uani 1 1 d . . . . .
O10 O -0.1321(5) 0.8328(2) 0.6066(4) 0.0615(17) Uani 1 1 d . . . . .
H1W H -0.0975 0.8440 0.6699 0.074 Uiso 1 1 d R U . . .
H2W H -0.1984 0.8480 0.5675 0.074 Uiso 1 1 d R U . . .
C1 C 0.1517(6) 0.8739(4) 0.7051(6) 0.0386(18) Uani 1 1 d . . . . .
C2 C 0.2308(6) 0.8982(3) 0.8113(5) 0.0353(17) Uani 1 1 d . . . . .
C3 C 0.1872(6) 0.9049(3) 0.8981(6) 0.0413(19) Uani 1 1 d . . . . .
C4 C 0.0570(7) 0.8895(3) 0.8954(6) 0.046(2) Uani 1 1 d . . . . .
C5 C 0.2680(7) 0.9260(3) 0.9917(6) 0.051(2) Uani 1 1 d . . . . .
H5 H 0.2393 0.9299 1.0503 0.062 Uiso 1 1 calc R U . . .
C6 C 0.3897(7) 0.9416(4) 1.0015(6) 0.055(2) Uani 1 1 d . . . . .
H6 H 0.4414 0.9562 1.0650 0.066 Uiso 1 1 calc R U . . .
C7 C 0.4323(7) 0.9350(3) 0.9142(6) 0.049(2) Uani 1 1 d . . . . .
H7 H 0.5134 0.9452 0.9181 0.059 Uiso 1 1 calc R U . . .
C8 C 0.3530(6) 0.9133(3) 0.8221(6) 0.0402(18) Uani 1 1 d . . . . .
C9 C 0.4393(7) 0.9503(3) 0.6933(6) 0.0414(18) Uani 1 1 d . . . . .
C10 C 0.5663(7) 0.9587(4) 0.7105(7) 0.053(2) Uani 1 1 d . . . . .
C11 C 0.6664(8) 0.9235(4) 0.7819(8) 0.062(3) Uani 1 1 d . . . . .
C12 C 0.6015(8) 1.0046(4) 0.6681(8) 0.069(3) Uani 1 1 d . . . . .
H12 H 0.6862 1.0108 0.6783 0.082 Uiso 1 1 calc R U . . .
C13 C 0.5161(7) 1.0409(4) 0.6119(7) 0.062(3) Uani 1 1 d . . . . .
H13 H 0.5428 1.0712 0.5830 0.075 Uiso 1 1 calc R U . . .
C14 C 0.3876(7) 1.0335(3) 0.5965(6) 0.045(2) Uani 1 1 d . . . . .
C15 C 0.2973(7) 1.0769(4) 0.5419(6) 0.054(2) Uani 1 1 d . . . . .
C16 C 0.3498(6) 0.9884(3) 0.6376(6) 0.044(2) Uani 1 1 d . . . . .
H16 H 0.2652 0.9829 0.6288 0.053 Uiso 1 1 calc R U . . .
C17 C -0.0432(9) 0.7622(4) 0.4566(9) 0.089(2) Uani 1 1 d . U . . .
H17 H -0.0690 0.7567 0.5163 0.107 Uiso 1 1 calc R U . . .
C18 C -0.0259(10) 0.7172(5) 0.3965(9) 0.091(2) Uani 1 1 d . U . . .
H18 H -0.0431 0.6824 0.4146 0.109 Uiso 1 1 calc R U . . .
C19 C 0.0165(10) 0.7258(5) 0.3110(9) 0.090(2) Uani 1 1 d . U . . .
H19 H 0.0296 0.6965 0.2713 0.108 Uiso 1 1 calc R U . . .
C20 C 0.0393(10) 0.7768(4) 0.2847(9) 0.089(2) Uani 1 1 d . U . . .
H20 H 0.0687 0.7822 0.2269 0.106 Uiso 1 1 calc R U . . .
C21 C 0.0200(8) 0.8214(4) 0.3422(7) 0.059(3) Uani 1 1 d . . . . .
C22 C 0.0375(6) 0.8783(4) 0.3181(6) 0.050(2) Uani 1 1 d . . . . .
C23 C 0.0639(8) 0.8945(4) 0.2260(6) 0.057(2) Uani 1 1 d . . . . .
H23 H 0.0774 0.8692 0.1784 0.069 Uiso 1 1 calc R U . . .
C24 C 0.0693(7) 0.9495(5) 0.2083(7) 0.067(3) Uani 1 1 d . . . . .
H24 H 0.0853 0.9618 0.1472 0.080 Uiso 1 1 calc R U . . .
C25 C 0.0509(8) 0.9863(4) 0.2807(6) 0.066(3) Uani 1 1 d . . . . .
H25 H 0.0538 1.0234 0.2696 0.079 Uiso 1 1 calc R U . . .
C26 C 0.0280(8) 0.9660(4) 0.3697(6) 0.061(3) Uani 1 1 d . . . . .
H26 H 0.0167 0.9905 0.4195 0.074 Uiso 1 1 calc R U . . .
C27 C 0.8916(10) 0.7514(5) 0.8824(8) 0.080(3) Uani 1 1 d . . . . .
H27 H 0.9187 0.7627 0.8260 0.096 Uiso 1 1 calc R U . . .
C28 C 0.9003(12) 0.6977(5) 0.9063(9) 0.099(4) Uani 1 1 d . . . . .
H28 H 0.9322 0.6734 0.8674 0.118 Uiso 1 1 calc R U . . .
C29 C 0.8610(12) 0.6804(5) 0.9886(9) 0.096(4) Uani 1 1 d . . . . .
H29 H 0.8664 0.6440 1.0079 0.115 Uiso 1 1 calc R U . . .
C30 C 0.8133(9) 0.7177(4) 1.0424(7) 0.072(3) Uani 1 1 d . . . . .
H30 H 0.7833 0.7066 1.0972 0.087 Uiso 1 1 calc R U . . .
C31 C 0.8098(7) 0.7723(4) 1.0150(6) 0.048(2) Uani 1 1 d . . . . .
C32 C 0.7685(7) 0.8153(4) 1.0734(6) 0.047(2) Uani 1 1 d . . . . .
C33 C 0.7221(7) 0.8049(4) 1.1591(6) 0.061(3) Uani 1 1 d . . . . .
H33 H 0.7133 0.7696 1.1804 0.074 Uiso 1 1 calc R U . . .
C34 C 0.6902(9) 0.8484(5) 1.2103(8) 0.075(3) Uani 1 1 d . . . . .
H34 H 0.6589 0.8423 1.2668 0.090 Uiso 1 1 calc R U . . .
C35 C 0.7033(8) 0.9004(5) 1.1802(8) 0.074(3) Uani 1 1 d . . . . .
H35 H 0.6825 0.9298 1.2154 0.089 Uiso 1 1 calc R U . . .
C36 C 0.7493(8) 0.9076(5) 1.0941(7) 0.068(3) Uani 1 1 d . . . . .
H36 H 0.7592 0.9426 1.0717 0.082 Uiso 1 1 calc R U . . .
loop_
_atom_site_aniso_label
_atom_site_aniso_U_11
_atom_site_aniso_U_22
_atom_site_aniso_U_33
_atom_site_aniso_U_23
_atom_site_aniso_U_13
_atom_site_aniso_U_12
Zn1 0.0434(5) 0.0450(7) 0.0436(6) 0.0000(5) 0.0074(4) 0.0006(5)
Zn2 0.0377(5) 0.0641(9) 0.0543(6) 0.0112(6) 0.0190(5) 0.0046(5)
N1 0.062(4) 0.035(4) 0.058(4) -0.013(4) 0.000(3) 0.006(3)
N2 0.062(4) 0.053(5) 0.039(4) -0.007(4) 0.019(3) 0.003(4)
N3 0.056(4) 0.063(5) 0.048(4) 0.003(4) 0.029(3) 0.007(4)
N4 0.038(3) 0.066(6) 0.054(4) 0.000(4) 0.011(3) 0.006(3)
O1 0.056(3) 0.049(4) 0.061(4) -0.007(3) 0.016(3) 0.006(3)
O2 0.040(3) 0.056(4) 0.038(3) 0.004(3) 0.007(2) -0.007(3)
O3 0.049(3) 0.110(6) 0.051(3) -0.008(4) 0.032(3) -0.008(3)
O4 0.039(3) 0.084(5) 0.047(3) 0.003(3) 0.019(2) -0.007(3)
O5 0.038(3) 0.046(3) 0.050(3) 0.004(3) 0.025(2) 0.001(2)
O6 0.049(4) 0.076(6) 0.125(6) 0.032(5) 0.023(4) 0.009(4)
O7 0.058(4) 0.092(6) 0.072(4) 0.022(4) 0.010(3) 0.008(4)
O8 0.040(3) 0.050(4) 0.075(4) 0.014(3) 0.015(3) 0.003(3)
O9 0.051(4) 0.080(6) 0.195(9) 0.080(6) 0.021(5) -0.001(4)
O10 0.052(3) 0.062(4) 0.059(4) 0.015(3) 0.001(3) -0.010(3)
C1 0.027(3) 0.051(6) 0.041(4) -0.003(4) 0.015(3) -0.002(4)
C2 0.029(3) 0.045(5) 0.034(4) 0.010(3) 0.014(3) 0.010(3)
C3 0.037(4) 0.048(5) 0.039(4) 0.004(4) 0.012(3) 0.005(3)
C4 0.036(4) 0.060(6) 0.046(4) 0.008(4) 0.017(3) 0.001(4)
C5 0.047(4) 0.064(6) 0.049(5) -0.001(4) 0.022(4) 0.000(4)
C6 0.046(4) 0.066(7) 0.048(5) 0.000(5) 0.007(4) -0.009(4)
C7 0.033(4) 0.063(6) 0.053(5) 0.007(4) 0.015(3) -0.006(4)
C8 0.037(4) 0.038(5) 0.048(4) 0.012(4) 0.015(3) 0.002(3)
C9 0.045(4) 0.038(5) 0.047(4) 0.005(4) 0.023(3) -0.001(4)
C10 0.031(4) 0.054(6) 0.076(6) 0.010(5) 0.020(4) 0.004(4)
C11 0.039(5) 0.067(7) 0.089(7) 0.031(6) 0.036(5) 0.002(5)
C12 0.046(5) 0.076(8) 0.087(7) 0.035(6) 0.025(5) 0.001(5)
C13 0.045(5) 0.065(7) 0.080(6) 0.027(5) 0.024(4) -0.011(4)
C14 0.042(4) 0.049(5) 0.046(4) 0.010(4) 0.018(3) -0.001(4)
C15 0.048(5) 0.060(7) 0.052(5) 0.014(5) 0.012(4) 0.000(4)
C16 0.031(4) 0.059(6) 0.047(4) 0.006(4) 0.017(3) 0.002(4)
C17 0.089(4) 0.062(4) 0.091(4) -0.023(4) -0.006(3) 0.013(4)
C18 0.091(4) 0.063(4) 0.093(4) -0.023(4) -0.007(3) 0.014(3)
C19 0.091(4) 0.064(4) 0.092(4) -0.026(4) -0.006(3) 0.016(3)
C20 0.090(4) 0.064(4) 0.089(4) -0.026(4) -0.004(3) 0.017(4)
C21 0.055(5) 0.061(7) 0.046(5) -0.016(5) -0.006(4) 0.014(4)
C22 0.033(4) 0.066(6) 0.049(4) -0.003(5) 0.007(3) 0.013(4)
C23 0.059(5) 0.071(7) 0.046(5) -0.011(5) 0.023(4) 0.012(5)
C24 0.047(5) 0.112(10) 0.050(5) -0.006(6) 0.026(4) -0.005(5)
C25 0.058(5) 0.093(8) 0.053(5) 0.003(6) 0.026(4) -0.011(5)
C26 0.083(6) 0.066(7) 0.042(5) -0.003(5) 0.029(4) -0.004(5)
C27 0.105(8) 0.075(8) 0.082(7) 0.007(7) 0.060(6) 0.011(6)
C28 0.153(12) 0.056(8) 0.111(10) 0.016(7) 0.075(9) 0.027(8)
C29 0.145(11) 0.069(9) 0.089(8) 0.023(7) 0.059(8) 0.014(8)
C30 0.090(7) 0.075(8) 0.056(6) 0.006(6) 0.029(5) -0.006(6)
C31 0.045(4) 0.052(6) 0.050(5) 0.006(4) 0.017(4) 0.000(4)
C32 0.040(4) 0.059(6) 0.040(4) 0.005(4) 0.009(3) 0.002(4)
C33 0.055(5) 0.083(8) 0.051(5) 0.001(5) 0.023(4) 0.004(5)
C34 0.070(6) 0.099(9) 0.064(6) 0.003(7) 0.031(5) 0.003(6)
C35 0.063(6) 0.088(9) 0.072(7) -0.019(7) 0.021(5) 0.016(6)
C36 0.063(6) 0.078(8) 0.064(6) 0.002(6) 0.021(5) 0.010(5)
loop_
_atom_type_symbol
_atom_type_description
_atom_type_scat_dispersion_real
_atom_type_scat_dispersion_imag
_atom_type_scat_source
C C 0.0181 0.0091 'International Tables Vol C Tables 4.2.6.8 and 6.1.1.4'
H H 0.0000 0.0000 'International Tables Vol C Tables 4.2.6.8 and 6.1.1.4'
N N 0.0311 0.0180 'International Tables Vol C Tables 4.2.6.8 and 6.1.1.4'
O O 0.0492 0.0322 'International Tables Vol C Tables 4.2.6.8 and 6.1.1.4'
Zn Zn -1.5491 0.6778 'International Tables Vol C Tables 4.2.6.8 and 6.1.1.4'
loop_
_geom_angle_atom_site_label_1
_geom_angle_atom_site_label_2
_geom_angle_atom_site_label_3
_geom_angle
_geom_angle_site_symmetry_1
_geom_angle_site_symmetry_3
_geom_angle_publ_flag
O2 Zn1 O8 108.7(2) . 3_576 ?
O2 Zn1 N1 125.6(2) . . ?
O8 Zn1 N1 124.9(2) 3_576 . ?
O2 Zn1 O10 95.3(2) . . ?
O8 Zn1 O10 92.4(2) 3_576 . ?
N1 Zn1 O10 91.5(3) . . ?
O2 Zn1 N2 98.8(2) . . ?
O8 Zn1 N2 86.4(2) 3_576 . ?
N1 Zn1 N2 77.4(3) . . ?
O10 Zn1 N2 165.5(2) . . ?
O3 Zn2 N3 104.3(3) 1_655 . ?
O3 Zn2 O7 101.7(3) 1_655 . ?
N3 Zn2 O7 153.9(3) . . ?
O3 Zn2 N4 101.7(2) 1_655 . ?
N3 Zn2 N4 78.3(3) . . ?
O7 Zn2 N4 96.0(3) . . ?
O3 Zn2 O6 148.6(2) 1_655 . ?
N3 Zn2 O6 97.1(3) . . ?
O7 Zn2 O6 59.4(2) . . ?
N4 Zn2 O6 104.9(3) . . ?
O3 Zn2 O4 59.60(19) 1_655 1_655 ?
N3 Zn2 O4 95.1(2) . 1_655 ?
O7 Zn2 O4 98.4(2) . 1_655 ?
N4 Zn2 O4 158.4(2) . 1_655 ?
O6 Zn2 O4 96.3(2) . 1_655 ?
O3 Zn2 C11 128.2(3) 1_655 . ?
N3 Zn2 C11 125.5(3) . . ?
O7 Zn2 C11 30.1(3) . . ?
N4 Zn2 C11 101.4(3) . . ?
O6 Zn2 C11 29.3(3) . . ?
O4 Zn2 C11 99.1(2) 1_655 . ?
O3 Zn2 C4 30.1(2) 1_655 1_655 ?
N3 Zn2 C4 101.7(3) . 1_655 ?
O7 Zn2 C4 101.1(3) . 1_655 ?
N4 Zn2 C4 131.2(2) . 1_655 ?
O6 Zn2 C4 123.2(3) . 1_655 ?
O4 Zn2 C4 29.5(2) 1_655 1_655 ?
C11 Zn2 C4 116.0(3) . 1_655 ?
C17 N1 C21 120.4(9) . . ?
C17 N1 Zn1 122.7(7) . . ?
C21 N1 Zn1 116.8(6) . . ?
C26 N2 C22 118.9(8) . . ?
C26 N2 Zn1 125.8(6) . . ?
C22 N2 Zn1 114.7(6) . . ?
C27 N3 C31 116.0(8) . . ?
C27 N3 Zn2 127.8(6) . . ?
C31 N3 Zn2 116.0(6) . . ?
C32 N4 C36 121.3(8) . . ?
C32 N4 Zn2 114.0(6) . . ?
C36 N4 Zn2 124.7(7) . . ?
C1 O2 Zn1 115.1(5) . . ?
C4 O3 Zn2 95.3(5) . 1_455 ?
C4 O4 Zn2 85.8(4) . 1_455 ?
C9 O5 C8 114.9(6) . . ?
C11 O6 Zn2 86.9(6) . . ?
C11 O7 Zn2 93.3(6) . . ?
C15 O8 Zn1 127.6(6) . 3_576 ?
Zn1 O10 H1W 103.2 . . ?
Zn1 O10 H2W 84.1 . . ?
H1W O10 H2W 119.8 . . ?
O1 C1 O2 127.2(7) . . ?
O1 C1 C2 119.3(7) . . ?
O2 C1 C2 113.5(7) . . ?
C8 C2 C3 118.4(7) . . ?
C8 C2 C1 118.3(6) . . ?
C3 C2 C1 123.3(6) . . ?
C5 C3 C2 118.6(7) . . ?
C5 C3 C4 118.6(7) . . ?
C2 C3 C4 122.8(7) . . ?
O4 C4 O3 119.3(7) . . ?
O4 C4 C3 121.9(7) . . ?
O3 C4 C3 118.8(7) . . ?
O4 C4 Zn2 64.7(4) . 1_455 ?
O3 C4 Zn2 54.6(4) . 1_455 ?
C3 C4 Zn2 172.7(6) . 1_455 ?
C6 C5 C3 122.7(7) . . ?
C6 C5 H5 118.7 . . ?
C3 C5 H5 118.7 . . ?
C5 C6 C7 118.3(7) . . ?
C5 C6 H6 120.8 . . ?
C7 C6 H6 120.8 . . ?
C8 C7 C6 119.0(7) . . ?
C8 C7 H7 120.5 . . ?
C6 C7 H7 120.5 . . ?
C7 C8 C2 123.0(7) . . ?
C7 C8 O5 119.9(6) . . ?
C2 C8 O5 117.1(6) . . ?
C10 C9 C16 121.1(7) . . ?
C10 C9 O5 120.9(7) . . ?
C16 C9 O5 118.0(6) . . ?
C12 C10 C9 117.9(8) . . ?
C12 C10 C11 118.6(7) . . ?
C9 C10 C11 123.2(8) . . ?
O6 C11 O7 120.4(9) . . ?
O6 C11 C10 121.2(9) . . ?
O7 C11 C10 118.4(9) . . ?
O6 C11 Zn2 63.8(5) . . ?
O7 C11 Zn2 56.6(5) . . ?
C10 C11 Zn2 175.0(8) . . ?
C13 C12 C10 121.6(8) . . ?
C13 C12 H12 119.2 . . ?
C10 C12 H12 119.2 . . ?
C12 C13 C14 121.0(8) . . ?
C12 C13 H13 119.5 . . ?
C14 C13 H13 119.5 . . ?
C16 C14 C13 118.8(7) . . ?
C16 C14 C15 121.9(7) . . ?
C13 C14 C15 119.2(8) . . ?
O9 C15 O8 124.1(8) . . ?
O9 C15 C14 119.3(8) . . ?
O8 C15 C14 116.6(8) . . ?
C14 C16 C9 119.6(7) . . ?
C14 C16 H16 120.2 . . ?
C9 C16 H16 120.2 . . ?
N1 C17 C18 120.6(12) . . ?
N1 C17 H17 119.7 . . ?
C18 C17 H17 119.7 . . ?
C19 C18 C17 119.1(12) . . ?
C19 C18 H18 120.5 . . ?
C17 C18 H18 120.5 . . ?
C20 C19 C18 119.8(12) . . ?
C20 C19 H19 120.1 . . ?
C18 C19 H19 120.1 . . ?
C19 C20 C21 121.5(13) . . ?
C19 C20 H20 119.2 . . ?
C21 C20 H20 119.2 . . ?
N1 C21 C20 118.6(10) . . ?
N1 C21 C22 115.6(8) . . ?
C20 C21 C22 125.8(10) . . ?
N2 C22 C23 121.9(9) . . ?
N2 C22 C21 115.2(8) . . ?
C23 C22 C21 122.8(9) . . ?
C24 C23 C22 117.4(9) . . ?
C24 C23 H23 121.3 . . ?
C22 C23 H23 121.3 . . ?
C25 C24 C23 120.4(9) . . ?
C25 C24 H24 119.8 . . ?
C23 C24 H24 119.8 . . ?
C26 C25 C24 117.4(10) . . ?
C26 C25 H25 121.3 . . ?
C24 C25 H25 121.3 . . ?
N2 C26 C25 124.0(9) . . ?
N2 C26 H26 118.0 . . ?
C25 C26 H26 118.0 . . ?
N3 C27 C28 125.4(10) . . ?
N3 C27 H27 117.3 . . ?
C28 C27 H27 117.3 . . ?
C27 C28 C29 118.2(11) . . ?
C27 C28 H28 120.9 . . ?
C29 C28 H28 120.9 . . ?
C28 C29 C30 118.5(11) . . ?
C28 C29 H29 120.7 . . ?
C30 C29 H29 120.7 . . ?
C29 C30 C31 120.1(9) . . ?
C29 C30 H30 120.0 . . ?
C31 C30 H30 120.0 . . ?
N3 C31 C30 121.7(8) . . ?
N3 C31 C32 114.8(8) . . ?
C30 C31 C32 123.4(8) . . ?
N4 C32 C33 120.2(9) . . ?
N4 C32 C31 116.7(7) . . ?
C33 C32 C31 123.0(9) . . ?
C34 C33 C32 117.9(10) . . ?
C34 C33 H33 121.0 . . ?
C32 C33 H33 121.0 . . ?
C35 C34 C33 121.6(9) . . ?
C35 C34 H34 119.2 . . ?
C33 C34 H34 119.2 . . ?
C34 C35 C36 117.2(10) . . ?
C34 C35 H35 121.4 . . ?
C36 C35 H35 121.4 . . ?
N4 C36 C35 121.7(10) . . ?
N4 C36 H36 119.2 . . ?
C35 C36 H36 119.2 . . ?
loop_
_geom_bond_atom_site_label_1
_geom_bond_atom_site_label_2
_geom_bond_distance
_geom_bond_site_symmetry_2
_geom_bond_publ_flag
Zn1 O2 1.966(5) . ?
Zn1 O8 1.982(5) 3_576 ?
Zn1 N1 2.051(7) . ?
Zn1 O10 2.152(5) . ?
Zn1 N2 2.165(7) . ?
Zn2 O3 2.052(5) 1_655 ?
Zn2 N3 2.059(7) . ?
Zn2 O7 2.098(7) . ?
Zn2 N4 2.106(7) . ?
Zn2 O6 2.254(7) . ?
Zn2 O4 2.272(5) 1_655 ?
Zn2 C11 2.507(9) . ?
Zn2 C4 2.506(7) 1_655 ?
N1 C17 1.342(12) . ?
N1 C21 1.382(11) . ?
N2 C26 1.309(11) . ?
N2 C22 1.342(10) . ?
N3 C27 1.341(11) . ?
N3 C31 1.340(9) . ?
N4 C32 1.324(10) . ?
N4 C36 1.329(11) . ?
O1 C1 1.212(9) . ?
O2 C1 1.284(9) . ?
O3 C4 1.262(9) . ?
O3 Zn2 2.052(5) 1_455 ?
O4 C4 1.238(9) . ?
O4 Zn2 2.272(5) 1_455 ?
O5 C9 1.410(8) . ?
O5 C8 1.419(8) . ?
O6 C11 1.228(11) . ?
O7 C11 1.259(11) . ?
O8 C15 1.272(9) . ?
O8 Zn1 1.981(5) 3_576 ?
O9 C15 1.219(10) . ?
O10 H1W 0.8500 . ?
O10 H2W 0.8500 . ?
C1 C2 1.529(9) . ?
C2 C8 1.384(9) . ?
C2 C3 1.388(9) . ?
C3 C5 1.386(10) . ?
C3 C4 1.499(9) . ?
C4 Zn2 2.506(7) 1_455 ?
C5 C6 1.386(10) . ?
C5 H5 0.9300 . ?
C6 C7 1.387(10) . ?
C6 H6 0.9300 . ?
C7 C8 1.373(10) . ?
C7 H7 0.9300 . ?
C9 C10 1.387(9) . ?
C9 C16 1.405(10) . ?
C10 C12 1.374(11) . ?
C10 C11 1.498(11) . ?
C12 C13 1.353(11) . ?
C12 H12 0.9300 . ?
C13 C14 1.404(10) . ?
C13 H13 0.9300 . ?
C14 C16 1.363(10) . ?
C14 C15 1.496(11) . ?
C16 H16 0.9300 . ?
C17 C18 1.412(13) . ?
C17 H17 0.9300 . ?
C18 C19 1.370(15) . ?
C18 H18 0.9300 . ?
C19 C20 1.351(14) . ?
C19 H19 0.9300 . ?
C20 C21 1.392(12) . ?
C20 H20 0.9300 . ?
C21 C22 1.466(12) . ?
C22 C23 1.396(11) . ?
C23 C24 1.384(12) . ?
C23 H23 0.9300 . ?
C24 C25 1.379(12) . ?
C24 H24 0.9300 . ?
C25 C26 1.372(11) . ?
C25 H25 0.9300 . ?
C26 H26 0.9300 . ?
C27 C28 1.360(13) . ?
C27 H27 0.9300 . ?
C28 C29 1.362(14) . ?
C28 H28 0.9300 . ?
C29 C30 1.370(13) . ?
C29 H29 0.9300 . ?
C30 C31 1.392(12) . ?
C30 H30 0.9300 . ?
C31 C32 1.469(11) . ?
C32 C33 1.408(10) . ?
C33 C34 1.375(13) . ?
C33 H33 0.9300 . ?
C34 C35 1.365(14) . ?
C34 H34 0.9300 . ?
C35 C36 1.397(13) . ?
C35 H35 0.9300 . ?
C36 H36 0.9300 . ?
loop_
_geom_hbond_atom_site_label_D
_geom_hbond_atom_site_label_H
_geom_hbond_atom_site_label_A
_geom_hbond_distance_DH
_geom_hbond_distance_HA
_geom_hbond_distance_DA
_geom_hbond_angle_DHA
_geom_hbond_site_symmetry_A
C33 H33 O1 0.93 2.46 3.366(12) 165.8 4_676
C30 H30 O1 0.93 2.34 3.240(11) 162.7 4_676
C23 H23 O3 0.93 2.61 3.163(10) 118.6 1_554
C17 H17 O10 0.93 2.44 3.029(13) 121.0 .
O10 H2W O9 0.85 1.79 2.642(8) 178.1 3_576
O10 H2W O8 0.85 2.47 2.986(8) 119.5 3_576
O10 H1W O4 0.85 1.95 2.795(8) 178.6 .
C33 H33 O1 0.93 2.46 3.366(12) 165.8 4_676
C30 H30 O1 0.93 2.34 3.240(11) 162.7 4_676
C23 H23 O3 0.93 2.61 3.163(10) 118.6 1_554
C17 H17 O10 0.93 2.44 3.029(13) 121.0 .
O10 H2W O9 0.85 1.79 2.642(8) 178.1 3_576
O10 H2W O8 0.85 2.47 2.986(8) 119.5 3_576
O10 H1W O4 0.85 1.95 2.795(8) 178.6 .
O10 H1W O4 0.85 1.95 2.795(8) 178.6 .
O10 H2W O8 0.85 2.47 2.986(8) 119.5 3_576
O10 H2W O9 0.85 1.79 2.642(8) 178.1 3_576
C17 H17 O10 0.93 2.44 3.029(13) 121.0 .
C23 H23 O3 0.93 2.61 3.163(10) 118.6 1_554
C30 H30 O1 0.93 2.34 3.240(11) 162.7 4_676
C33 H33 O1 0.93 2.46 3.366(12) 165.8 4_676
O10 H1W O4 0.85 1.95 2.795(8) 178.6 .
O10 H2W O8 0.85 2.47 2.986(8) 119.5 3_576
O10 H2W O9 0.85 1.79 2.642(8) 178.1 3_576
C17 H17 O10 0.93 2.44 3.029(13) 121.0 .
C23 H23 O3 0.93 2.61 3.163(10) 118.6 1_554
C30 H30 O1 0.93 2.34 3.240(11) 162.7 4_676
C33 H33 O1 0.93 2.46 3.366(12) 165.8 4_676
O10 H1W O4 0.85 1.95 2.795(8) 178.6 .
O10 H2W O8 0.85 2.47 2.986(8) 119.5 3_576
O10 H2W O9 0.85 1.79 2.642(8) 178.1 3_576
C17 H17 O10 0.93 2.44 3.029(13) 121.0 .
C23 H23 O3 0.93 2.61 3.163(10) 118.6 1_554
C30 H30 O1 0.93 2.34 3.240(11) 162.7 4_676
C33 H33 O1 0.93 2.46 3.366(12) 165.8 4_676
loop_
_geom_torsion_atom_site_label_1
_geom_torsion_atom_site_label_2
_geom_torsion_atom_site_label_3
_geom_torsion_atom_site_label_4
_geom_torsion
_geom_torsion_site_symmetry_1
_geom_torsion_site_symmetry_2
_geom_torsion_site_symmetry_3
_geom_torsion_site_symmetry_4
_geom_torsion_publ_flag
Zn1 O2 C1 O1 12.9(9) . . . . ?
Zn1 O2 C1 C2 -166.9(4) . . . . ?
O1 C1 C2 C8 89.6(9) . . . . ?
O2 C1 C2 C8 -90.6(8) . . . . ?
O1 C1 C2 C3 -88.9(9) . . . . ?
O2 C1 C2 C3 90.9(9) . . . . ?
C8 C2 C3 C5 -0.3(12) . . . . ?
C1 C2 C3 C5 178.2(7) . . . . ?
C8 C2 C3 C4 -179.4(7) . . . . ?
C1 C2 C3 C4 -0.9(12) . . . . ?
Zn2 O4 C4 O3 1.7(8) 1_455 . . . ?
Zn2 O4 C4 C3 -176.5(7) 1_455 . . . ?
Zn2 O3 C4 O4 -1.9(9) 1_455 . . . ?
Zn2 O3 C4 C3 176.4(6) 1_455 . . . ?
C5 C3 C4 O4 178.5(8) . . . . ?
C2 C3 C4 O4 -2.4(13) . . . . ?
C5 C3 C4 O3 0.3(12) . . . . ?
C2 C3 C4 O3 179.4(8) . . . . ?
C2 C3 C5 C6 1.2(13) . . . . ?
C4 C3 C5 C6 -179.7(8) . . . . ?
C3 C5 C6 C7 -0.9(14) . . . . ?
C5 C6 C7 C8 -0.2(13) . . . . ?
C6 C7 C8 C2 1.0(13) . . . . ?
C6 C7 C8 O5 -177.1(7) . . . . ?
C3 C2 C8 C7 -0.8(12) . . . . ?
C1 C2 C8 C7 -179.4(7) . . . . ?
C3 C2 C8 O5 177.3(7) . . . . ?
C1 C2 C8 O5 -1.2(10) . . . . ?
C9 O5 C8 C7 -59.6(9) . . . . ?
C9 O5 C8 C2 122.2(7) . . . . ?
C8 O5 C9 C10 106.8(8) . . . . ?
C8 O5 C9 C16 -71.8(8) . . . . ?
C16 C9 C10 C12 -2.2(13) . . . . ?
O5 C9 C10 C12 179.3(8) . . . . ?
C16 C9 C10 C11 171.2(8) . . . . ?
O5 C9 C10 C11 -7.3(13) . . . . ?
Zn2 O6 C11 O7 2.3(9) . . . . ?
Zn2 O6 C11 C10 179.7(7) . . . . ?
Zn2 O7 C11 O6 -2.4(9) . . . . ?
Zn2 O7 C11 C10 -179.9(6) . . . . ?
C12 C10 C11 O6 -131.0(10) . . . . ?
C9 C10 C11 O6 55.7(13) . . . . ?
C12 C10 C11 O7 46.5(13) . . . . ?
C9 C10 C11 O7 -126.8(9) . . . . ?
C9 C10 C12 C13 0.4(15) . . . . ?
C11 C10 C12 C13 -173.2(9) . . . . ?
C10 C12 C13 C14 1.3(16) . . . . ?
C12 C13 C14 C16 -1.2(14) . . . . ?
C12 C13 C14 C15 174.8(9) . . . . ?
Zn1 O8 C15 O9 -12.0(14) 3_576 . . . ?
Zn1 O8 C15 C14 168.0(5) 3_576 . . . ?
C16 C14 C15 O9 175.5(9) . . . . ?
C13 C14 C15 O9 -0.4(14) . . . . ?
C16 C14 C15 O8 -4.4(12) . . . . ?
C13 C14 C15 O8 179.6(8) . . . . ?
C13 C14 C16 C9 -0.5(12) . . . . ?
C15 C14 C16 C9 -176.5(7) . . . . ?
C10 C9 C16 C14 2.2(12) . . . . ?
O5 C9 C16 C14 -179.2(7) . . . . ?
C21 N1 C17 C18 -2.4(13) . . . . ?
Zn1 N1 C17 C18 -178.2(7) . . . . ?
N1 C17 C18 C19 2.4(15) . . . . ?
C17 C18 C19 C20 -1.0(16) . . . . ?
C18 C19 C20 C21 -0.4(16) . . . . ?
C17 N1 C21 C20 1.0(12) . . . . ?
Zn1 N1 C21 C20 177.1(6) . . . . ?
C17 N1 C21 C22 179.3(7) . . . . ?
Zn1 N1 C21 C22 -4.6(9) . . . . ?
C19 C20 C21 N1 0.4(14) . . . . ?
C19 C20 C21 C22 -177.7(8) . . . . ?
C26 N2 C22 C23 1.3(11) . . . . ?
Zn1 N2 C22 C23 172.8(6) . . . . ?
C26 N2 C22 C21 -176.1(7) . . . . ?
Zn1 N2 C22 C21 -4.6(8) . . . . ?
N1 C21 C22 N2 6.1(10) . . . . ?
C20 C21 C22 N2 -175.8(8) . . . . ?
N1 C21 C22 C23 -171.3(7) . . . . ?
C20 C21 C22 C23 6.9(13) . . . . ?
N2 C22 C23 C24 -1.8(12) . . . . ?
C21 C22 C23 C24 175.3(7) . . . . ?
C22 C23 C24 C25 1.0(12) . . . . ?
C23 C24 C25 C26 0.3(13) . . . . ?
C22 N2 C26 C25 0.2(13) . . . . ?
Zn1 N2 C26 C25 -170.3(6) . . . . ?
C24 C25 C26 N2 -0.9(14) . . . . ?
C31 N3 C27 C28 0.6(16) . . . . ?
Zn2 N3 C27 C28 175.2(9) . . . . ?
N3 C27 C28 C29 0(2) . . . . ?
C27 C28 C29 C30 0.8(19) . . . . ?
C28 C29 C30 C31 -2.2(18) . . . . ?
C27 N3 C31 C30 -2.0(12) . . . . ?
Zn2 N3 C31 C30 -177.3(7) . . . . ?
C27 N3 C31 C32 176.6(8) . . . . ?
Zn2 N3 C31 C32 1.3(9) . . . . ?
C29 C30 C31 N3 2.9(15) . . . . ?
C29 C30 C31 C32 -175.6(9) . . . . ?
C36 N4 C32 C33 1.4(11) . . . . ?
Zn2 N4 C32 C33 -177.4(6) . . . . ?
C36 N4 C32 C31 -177.2(7) . . . . ?
Zn2 N4 C32 C31 4.0(8) . . . . ?
N3 C31 C32 N4 -3.6(10) . . . . ?
C30 C31 C32 N4 175.0(8) . . . . ?
N3 C31 C32 C33 177.8(7) . . . . ?
C30 C31 C32 C33 -3.6(13) . . . . ?
N4 C32 C33 C34 -0.7(12) . . . . ?
C31 C32 C33 C34 177.8(8) . . . . ?
C32 C33 C34 C35 -0.4(14) . . . . ?
C33 C34 C35 C36 0.7(15) . . . . ?
C32 N4 C36 C35 -1.0(13) . . . . ?
Zn2 N4 C36 C35 177.6(6) . . . . ?
C34 C35 C36 N4 0.0(14) . . . . ?
