#------------------------------------------------------------------------------
#$Date: 2022-11-26 01:34:03 +0200 (Sat, 26 Nov 2022) $
#$Revision: 279573 $
#$URL: file:///home/coder/svn-repositories/cod/cif/7/24/59/7245918.cif $
#------------------------------------------------------------------------------
#
# This file is available in the Crystallography Open Database (COD),
# http://www.crystallography.net/
#
# All data on this site have been placed in the public domain by the
# contributors.
#
data_7245918
loop_
_publ_author_name
'Cao, Shouying'
'Fan, Chenpeng'
'Lu, Mengwen'
'Li, Meng'
'Zhou, Yuhang'
'Wang, Hongxia'
'Lin, Qingfang'
'Liang, Li-Li'
_publ_section_title
;
 Two heptanuclear-based 3D metal-organic frameworks with good
 magnetocaloric effect
;
_journal_name_full               CrystEngComm
_journal_paper_doi               10.1039/D2CE01350A
_journal_year                    2022
_chemical_formula_moiety         '0.5(C30 H76 Dy14 N6 O64), 4(Cl)'
_chemical_formula_sum            'C15 H38 Cl4 Dy7 N3 O32'
_chemical_formula_weight         2051.74
_space_group_crystal_system      hexagonal
_space_group_IT_number           176
_space_group_name_Hall           '-P 6c'
_space_group_name_H-M_alt        'P 63/m'
_atom_sites_solution_hydrogens   mixed
_audit_creation_date             2022-10-21
_audit_creation_method
;
Olex2 1.5
(compiled 2022.04.07 svn.rca3783a0 for OlexSys, GUI svn.r6498)
;
_audit_update_record
;
2022-11-03 deposited with the CCDC.	2022-11-25 downloaded from the CCDC.
;
_cell_angle_alpha                90
_cell_angle_beta                 90
_cell_angle_gamma                120
_cell_formula_units_Z            2
_cell_length_a                   12.0761(3)
_cell_length_b                   12.0761(3)
_cell_length_c                   17.8609(5)
_cell_measurement_reflns_used    12573
_cell_measurement_temperature    100
_cell_measurement_theta_max      29.5050
_cell_measurement_theta_min      1.9510
_cell_volume                     2255.73(10)
_computing_cell_refinement       'CrysAlisPro 1.171.41.64a (Rigaku OD, 2020)'
_computing_data_collection       'CrysAlisPro 1.171.41.64a (Rigaku OD, 2020)'
_computing_data_reduction        'CrysAlisPro 1.171.41.64a (Rigaku OD, 2020)'
_computing_molecular_graphics    'Olex2 1.5 (Dolomanov et al., 2009)'
_computing_publication_material  'Olex2 1.5 (Dolomanov et al., 2009)'
_computing_structure_refinement  'XL (Sheldrick, 2008)'
_computing_structure_solution    'SHELXT 2014/5 (Sheldrick, 2014)'
_diffrn_ambient_environment      N~2~
_diffrn_ambient_temperature      100
_diffrn_detector                 'Hybrid Pixel Array Detector'
_diffrn_detector_area_resol_mean 10.0000
_diffrn_detector_type            HyPix
_diffrn_measured_fraction_theta_full 0.985
_diffrn_measured_fraction_theta_max 0.984
_diffrn_measurement_details
;
List of Runs (angles in degrees, time in seconds):

  # Type    Start    End  Width  t~exp~   \w     \q     \k     \f   Frames
#--------------------------------------------------------------------------
  1  \w    -62.00 -37.00   0.50    1.37    --  -11.30 119.00  82.00   50
  2  \w    -10.00  16.00   0.50    1.37    --   10.52  60.00 -37.00   52
  3  \w     27.00  85.00   0.50    1.37    --   10.52  60.00 -37.00  116
  4  \w    -43.00  70.00   0.50    1.37    --  -11.30  35.00  37.00  226
  5  \w      0.00  33.00   0.50    1.37    --  -11.30 -99.00 120.00   66
  6  \w     -6.00  22.00   0.50    1.37    --  -11.30 -99.00  60.00   56
  7  \w     24.00  50.00   0.50    1.37    --   10.52 -99.00 -90.00   52
  8  \w    -10.00  33.00   0.50    1.37    --  -11.30 -99.00-180.00   86
;
_diffrn_measurement_device       'four-circle diffractometer'
_diffrn_measurement_device_type  'ROD, Synergy Custom DW system, HyPix'
_diffrn_measurement_method       '\w scans'
_diffrn_orient_matrix_type
'CrysAlisPro convention (1999,Acta A55,543-557)'
_diffrn_orient_matrix_UB_11      0.0517458000
_diffrn_orient_matrix_UB_12      0.0141415000
_diffrn_orient_matrix_UB_13      0.0244268000
_diffrn_orient_matrix_UB_21      0.0429744000
_diffrn_orient_matrix_UB_22      0.0460905000
_diffrn_orient_matrix_UB_23      -0.0258140000
_diffrn_orient_matrix_UB_31      -0.0086556000
_diffrn_orient_matrix_UB_32      0.0476922000
_diffrn_orient_matrix_UB_33      0.0177369000
_diffrn_radiation_monochromator  mirror
_diffrn_radiation_probe          x-ray
_diffrn_radiation_type           MoK\a
_diffrn_radiation_wavelength     0.71073
_diffrn_reflns_av_R_equivalents  0.0421
_diffrn_reflns_av_unetI/netI     0.0196
_diffrn_reflns_Laue_measured_fraction_full 0.985
_diffrn_reflns_Laue_measured_fraction_max 0.984
_diffrn_reflns_limit_h_max       15
_diffrn_reflns_limit_h_min       -14
_diffrn_reflns_limit_k_max       14
_diffrn_reflns_limit_k_min       -14
_diffrn_reflns_limit_l_max       21
_diffrn_reflns_limit_l_min       -21
_diffrn_reflns_number            18339
_diffrn_reflns_point_group_measured_fraction_full 0.985
_diffrn_reflns_point_group_measured_fraction_max 0.984
_diffrn_reflns_theta_full        25.242
_diffrn_reflns_theta_max         26.495
_diffrn_reflns_theta_min         1.947
_diffrn_source                   'Rotating-anode X-ray tube'
_diffrn_source_type              'Rigaku (Mo) X-ray Source'
_exptl_absorpt_coefficient_mu    11.775
_exptl_absorpt_correction_T_max  1.00000
_exptl_absorpt_correction_T_min  0.70836
_exptl_absorpt_correction_type   multi-scan
_exptl_absorpt_process_details
;
CrysAlisPro 1.171.41.64a (Rigaku Oxford Diffraction, 2020)
Empirical absorption correction using spherical harmonics,
 implemented in SCALE3 ABSPACK scaling algorithm.
;
_exptl_crystal_colour            colourless
_exptl_crystal_colour_primary    colourless
_exptl_crystal_density_diffrn    3.021
_exptl_crystal_description       block
_exptl_crystal_F_000             1870
_exptl_crystal_size_max          0.1
_exptl_crystal_size_mid          0.1
_exptl_crystal_size_min          0.1
_refine_diff_density_max         1.927
_refine_diff_density_min         -1.617
_refine_diff_density_rms         0.270
_refine_ls_extinction_method     none
_refine_ls_goodness_of_fit_ref   1.134
_refine_ls_hydrogen_treatment    constr
_refine_ls_matrix_type           full
_refine_ls_number_parameters     125
_refine_ls_number_reflns         1592
_refine_ls_number_restraints     31
_refine_ls_restrained_S_all      1.142
_refine_ls_R_factor_all          0.0427
_refine_ls_R_factor_gt           0.0373
_refine_ls_shift/su_max          0.001
_refine_ls_shift/su_mean         0.000
_refine_ls_structure_factor_coef Fsqd
_refine_ls_weighting_details
'w=1/[\s^2^(Fo^2^)+(0.0308P)^2^+61.7569P] where P=(Fo^2^+2Fc^2^)/3'
_refine_ls_weighting_scheme      calc
_refine_ls_wR_factor_gt          0.0889
_refine_ls_wR_factor_ref         0.0920
_reflns_Friedel_coverage         0.000
_reflns_number_gt                1441
_reflns_number_total             1592
_reflns_threshold_expression     'I > 2\s(I)'
_cod_data_source_file            d2ce01350a2.cif
_cod_data_source_block           dy7
_cod_original_cell_volume        2255.73(13)
_cod_database_code               7245918
_shelx_shelxl_version_number     2018/3
_shelx_space_group_comment
;
The symmetry employed for this shelxl refinement is uniquely defined
by the following loop, which should always be used as a source of
symmetry information in preference to the above space-group names.
They are only intended as comments.
;
_shelx_estimated_absorpt_t_max   0.386
_shelx_estimated_absorpt_t_min   0.386
_diffrn_oxdiff_digest_frames
;
015e1e20f3e32e6737faa49c487116d287007049e70
;
_diffrn_oxdiff_digest_hkl
;
01bf9311f117225989357a328ca7a3c90cef4d
;
_reflns_odcompleteness_completeness 99.93
_reflns_odcompleteness_iscentric 1
_reflns_odcompleteness_theta     25.30
_olex2_refinement_description
;
1. Shared sites
{C1, C1A}
{O3, O3A}
{O4, O4A}
2. Restrained distances
 O6-C4
 1.25 with sigma of 0.01
3. Uiso/Uaniso restraints and constraints
Cl2 \\sim Cl3: within 2A with sigma of 0.01 and sigma for terminal atoms of
0.01 within 2A
Uanis(Cl3) \\sim Ueq: with sigma of 0.001 and sigma for terminal atoms of 0.002
Uanis(C3) \\sim Ueq: with sigma of 0.01 and sigma for terminal atoms of 0.02
Uanis(C2) \\sim Ueq, Uanis(C4) \\sim Ueq, Uanis(O5) \\sim Ueq: with sigma of
0.01 and sigma for terminal atoms of 0.02
Uanis(C2) \\sim Ueq: with sigma of 0.001 and sigma for terminal atoms of 0.002
Uanis(Cl3) = Uanis(Cl2)
Uanis(C1) = Uanis(C1A)
Uanis(O3) = Uanis(O3A)
Uanis(O4) = Uanis(O4A)
4. Others
 Sof(Cl3)=0.5*(1-FVAR(2))
 Sof(Cl2)=0.5*FVAR(2)
 Fixed Sof: O3(0.5) O4(0.5) O5(0.5) O6(0.5) N1(0.5) H1A(0.5) C1(0.5) C2(0.5)
 H2A(0.5) H2B(0.5) C3(0.5) H3A(0.5) H3B(0.5) Cl1(0.166667) O3A(0.5) O4A(0.5)
 C1A(0.5) H1AA(0.5)
5.a Riding coordinates:
 N1(H1A)
5.b Rotating group:
 O1W(H1WA,H1WB)
5.c Ternary CH refined with riding coordinates:
 O1(H1), O2(H2)
5.d Secondary CH2 refined with riding coordinates:
 C2(H2A,H2B), C3(H3A,H3B)
5.e Aromatic/amide H refined with riding coordinates:
 C1A(H1AA)
;
_shelx_res_file
;
TITL lqf-a4-100k_a.res in P6(3)/m
    dy7.res
    created by SHELXL-2018/3 at 11:32:40 on 15-Oct-2022
REM Old TITL lqf-a4-100k_a.res in P6(3)/m
REM SHELXT solution in P6(3)/m
REM R1 0.091, Rweak 0.003, Alpha 0.056, Orientation as input
REM Formula found by SHELXT: C15 Cl3 Dy7 N6 O31
CELL 0.71073 12.0761 12.0761 17.8609 90 90 120
ZERR 2.00004 0.0003 0.0003 0.0005 0 0 0
LATT 1
SYMM -Y,+X-Y,+Z
SYMM +Y-X,-X,+Z
SYMM -X,-Y,0.5+Z
SYMM +Y,-X+Y,0.5+Z
SYMM -Y+X,+X,0.5+Z
SFAC C H Cl Dy N O
UNIT 30 76 8 14 6 64
DFIX 1.25 0.01 O6 C4
SIMU 0.01 0.01 2 Cl2 Cl3
ISOR 0.001 0.002 Cl3
ISOR 0.01 0.02 C3
ISOR 0.01 0.02 C2 C4 O5
ISOR 0.001 0.002 C2
EADP Cl3 Cl2
EADP C1 C1A
EADP O3 O3A
EADP O4 O4A
EXYZ C1 C1A
EXYZ O3 O3A
EXYZ O4 O4A

L.S. 15
PLAN  5
SIZE 0.1 0.1 0.1
TEMP -173.15
FREE Cl3 H1Wb
BOND $H
list 4
ABIN
fmap 2
acta
OMIT -2 53
OMIT -3 4 6
OMIT -1 2 0
OMIT 0 0 4
OMIT 0 0 2
OMIT -3 4 12
OMIT -3 4 0
OMIT -8 10 0
OMIT -2 6 5
OMIT -4 10 9
OMIT -2 6 7
OMIT -5 6 8
OMIT -1 3 2
OMIT 0 0 12
OMIT -8 10 6
OMIT -9 12 1
OMIT -5 6 2
OMIT 0 3 0
OMIT -8 10 12
OMIT -2 3 0
OMIT 0 0 6
OMIT -2 6 1
REM <olex2.extras>
REM <HklSrc "%.\\Dy7.hkl">
REM </olex2.extras>

WGHT    0.030800   61.756901
FVAR       0.14117   0.75881
DY1   4    0.476249    0.603695    0.583786    11.00000    0.01225    0.01193 =
         0.01654    0.00303    0.00280    0.00784
DY2   4    0.333333    0.666667    0.750000    10.16667    0.00895    0.00895 =
         0.00977    0.00000    0.00000    0.00447
O1    6    0.333333    0.666667    0.531120    10.33333    0.00945    0.00945 =
         0.01434    0.00000    0.00000    0.00472
AFIX  13
H1    2    0.333334    0.666666    0.475131    10.33333   -1.20000
AFIX   0
O1W   6    0.450488    0.402096    0.630713    11.00000    0.03606    0.01943 =
         0.02247    0.00200    0.00316    0.02021
AFIX   7
H1WA  2    0.475046    0.365039    0.596960    11.00000   -1.50000
H1WB  2    0.368639    0.345270    0.637020    11.00000   -1.50000
AFIX   0
O2    6    0.291377    0.517030    0.652171    11.00000    0.01553    0.01192 =
         0.00788   -0.00084   -0.00129    0.00799
AFIX  13
H2    2    0.265244    0.429518    0.671328    11.00000   -1.20000
AFIX   0
PART 1
O3    6    0.625874    0.550525    0.517596    10.50000    0.01569    0.01585 =
         0.01956    0.00067    0.00198    0.00857
O4    6    0.828807    0.609231    0.490201    10.50000    0.01190    0.02447 =
         0.03502   -0.01067   -0.00157    0.00817
PART 0
PART -1
O5    6    0.503878    0.609279    0.730298    10.50000    0.00775    0.01957 =
         0.00992   -0.00068   -0.00180    0.00684
O6    6    0.630267    0.643507    0.822972    10.50000    0.01789    0.01456 =
         0.03429    0.00742    0.00004    0.00684
PART 0
N1    5    0.707624    0.719222    0.637418    10.50000    0.02222    0.02057 =
         0.00982   -0.00374    0.00392    0.01514
PART 1
AFIX   3
H1A   2    0.724624    0.795232    0.649078    10.50000   -1.20000
AFIX   0
C1    1    0.745540    0.621176    0.525426    10.50000    0.01956    0.02113 =
         0.01730   -0.00515    0.00036    0.01304
C2    1    0.799329    0.734133    0.580993    10.50000    0.01081    0.01034 =
         0.01047   -0.00006    0.00000    0.00513
AFIX  23
H2A   2    0.876180    0.741556    0.605651    10.50000   -1.20000
H2B   2    0.825790    0.814322    0.553017    10.50000   -1.20000
AFIX   0
PART 0
PART -1
C3    1    0.718954    0.661579    0.709424    10.50000    0.01338    0.02290 =
         0.02434   -0.00058   -0.00683    0.01312
AFIX  23
H3A   2    0.719858    0.581265    0.699935    10.50000   -1.20000
H3B   2    0.798054    0.721787    0.736481    10.50000   -1.20000
AFIX   0
PART 0
C4    1    0.611587    0.637995    0.750000    10.50000    0.02489    0.00973 =
         0.03827    0.00000    0.00000    0.01159

CL1   3    0.333333    0.666667    0.346567    10.16667    0.03329    0.03329 =
         0.06852    0.00000    0.00000    0.01664
PART 1
CL2   3    0.730170    0.954393    0.750000    20.50000    0.04346    0.04065 =
         0.04500    0.00000    0.00000    0.01997

PART 0
PART 2
CL3   3    0.208566    0.258856    0.687393   -20.50000    0.04346    0.04065 =
         0.04500    0.00000    0.00000    0.01997
O3A   6    0.625874    0.550525    0.517596    10.50000    0.01569    0.01585 =
         0.01956    0.00067    0.00198    0.00857
O4A   6    0.828807    0.609231    0.490201    10.50000    0.01190    0.02447 =
         0.03502   -0.01067   -0.00157    0.00817
C1A   1    0.745540    0.621176    0.525426    10.50000    0.01956    0.02113 =
         0.01730   -0.00515    0.00036    0.01304
AFIX  43
H1AA  2    0.774615    0.688712    0.560855    10.50000   -1.20000
AFIX   0
HKLF 4




REM  lqf-a4-100k_a.res in P6(3)/m
REM wR2 = 0.0920, GooF = S = 1.134, Restrained GooF = 1.142 for all data
REM R1 = 0.0373 for 1441 Fo > 4sig(Fo) and 0.0427 for all 1592 data
REM 125 parameters refined using 31 restraints

END

WGHT      0.0314     61.6635

REM Highest difference peak  1.927,  deepest hole -1.617,  1-sigma level  0.270
Q1    1   0.2949  0.6994  0.3701  11.00000  0.05    1.93
Q2    1   0.2711  0.2741  0.6594  11.00000  0.05    1.70
Q3    1   0.5070  0.3856  0.7500  10.50000  0.05    1.55
Q4    1   0.3899  0.4477  0.7500  10.50000  0.05    1.32
Q5    1   0.5603  0.6492  0.5842  11.00000  0.05    1.16
;
_shelx_res_checksum              87000
_shelx_hkl_file
;
   0   0  -2 2517.52   77.91
   0   0   2 2609.40   77.92
   0   0  -2 2441.93   78.09
   0   0   3    1.24    2.02
   0   0  -3    1.46    2.28
   0   0   3   -0.52    1.70
   0   0  -3    3.57    2.26
   0   0  -4  922.75   33.01
   0   0   4  973.04   33.22
   0   0  -4  949.73   33.39
   0   0  -5    2.02    3.57
   0   0   5    1.25    3.26
   0   0   5    1.40    2.44
   0   0  -5    1.36    3.15
   0   0  -6 8628.18  274.57
   0   0   6 8906.25  274.94
   0   0  -6 8713.75  275.54
   0   0   6 8196.37  271.97
   0   0  -7   -0.56    3.83
   0   0   7   -0.59    3.41
   0   0  -7   -0.64    3.76
   0   0   7   -0.38    2.72
   0   0   7    0.77    1.21
   0   0   8   31.92    6.22
   0   0  -8   49.39    6.90
   0   0  -8   42.38    7.05
   0   0   8   31.79    2.53
   0   0   8   29.90    4.56
   0   0  -9   -2.16    4.47
   0   0   9   -3.08    4.45
   0   0  -9    2.45    4.41
   0   0   9    0.94    2.89
   0   0   9    0.13    1.21
   0   0 -10  250.86   16.18
   0   0  10  231.60   16.12
   0   0 -10  247.19   17.05
   0   0  10  227.05    9.20
   0   0  10  243.23   13.21
   0   0  11    2.87    5.31
   0   0 -11   -2.60    6.16
   0   0 -11   -2.03    5.07
   0   0  11    1.10    3.15
   0   0  11   -0.58    1.45
   0   0  12 9999.00  288.01
   0   0 -12 9290.18  286.26
   0   0  12 8953.06  279.60
   0   0 -12 9492.18  288.27
   0   0  13   -1.14    6.51
   0   0  13   -1.26    3.64
   0   0 -13   -3.64    6.56
   0   0  14  542.64   29.61
   0   0  14  474.46   23.08
   0   0 -14  474.29   29.29
   0   0  15   -6.72    8.62
   0   0  15   -2.07    4.56
   0   0 -15   -1.43    7.72
   0   0  16  488.51   30.34
   0   0 -16  512.38   31.79
   0   0  17   -4.63    8.46
   0   0 -17   -1.63    8.82
   0   0 -18 4317.09  162.62
   0   0  18 4629.57  162.67
   0   0  19   -3.45   10.83
   0   0 -19   -1.84    8.84
   0   0  20  181.56   20.38
   0   0 -20  126.42   18.71
   0   0  21   -7.61   10.87
   0   0 -21   -4.13   12.10
  -1   1   0 3485.02  118.05
   1  -1   0 3541.02  118.13
   0  -1   0 3736.70  117.30
   1  -1   1 2494.12   78.52
   0   1   1 2529.61   78.14
   1  -1  -1 2402.09   78.14
   0  -1  -1 2347.56   77.46
   0   1  -1 2387.30   77.11
   0   1   1 2411.72   77.47
   0  -1  -1 2380.34   77.88
   1   0   1 2521.97   78.52
   0  -1  -1 2371.83   77.31
  -1   1  -1 2521.82   77.53
  -1   0  -1 2620.41   78.54
   1  -1  -2  208.71    9.38
   0  -1  -2  190.03    8.47
   0  -1  -2  199.77    8.56
   1  -1  -2  202.31    8.45
  -1   0  -2  194.88    8.94
   1  -1   2  200.53    8.38
   1  -1   2  190.41    8.89
   0  -1  -2  179.89    7.25
   1   0   2  207.93    8.98
  -1   0  -2  186.39    8.75
  -1   0  -3 1179.03   41.07
   0  -1  -3 1153.35   40.41
   1  -1   3 1171.97   40.34
  -1   0  -3 1204.56   40.82
   1   0   3 1219.52   40.91
   1   0  -3 1207.28   40.71
   1  -1  -3 1150.36   40.18
   0  -1   3 1194.65   40.47
   1  -1   3 1141.11   40.75
   0  -1  -3 1150.13   40.62
   1  -1  -3 1179.72   41.36
  -1   0   3 1188.86   41.22
   0  -1  -4  149.97    8.60
  -1   0  -4  152.99    9.02
   1  -1   4  154.73    8.53
   1  -1  -4  146.06    8.45
   1   0   4  139.99    8.42
   1   0  -4  137.13    8.53
   0  -1   4  127.38    8.07
  -1   0  -4  138.79    8.72
  -1   1   4  156.92    8.45
   1  -1  -4  126.52    5.55
  -1   0  -4  133.64    6.39
   0   1   4  135.72    7.13
   0   1   4  126.43    6.03
   1  -1   4  124.94    5.73
   1  -1  -4  143.45    8.75
   0  -1  -4  141.22    8.57
   1  -1   4  131.16    8.50
  -1   0   4  129.86    8.78
  -1   0   5 1405.93   51.86
   0  -1   5 1535.96   52.19
   1   0  -5 1449.02   51.82
   1   0   5 1561.17   52.50
  -1   0  -5 1543.73   52.90
   1  -1  -5 1508.00   52.01
   1  -1   5 1564.97   52.11
   0  -1  -5 1575.30   52.20
  -1   0  -5 1520.36   52.29
   0  -1  -5 1544.12   50.73
  -1   1   5 1573.83   51.75
   1  -1   5 1437.49   48.44
   1  -1  -5 1338.70   47.50
   0   1   5 1463.65   48.32
  -1   0  -5 1516.79   49.30
   0   1   5 1511.96   50.27
  -1   0   5 1433.33   52.67
   0  -1  -5 1533.96   52.58
   1  -1   5 1456.69   52.51
  -1   0  -6 1176.19   42.42
   0  -1  -6 1147.68   42.17
   1  -1  -6 1057.06   41.62
   1   0   6 1184.63   42.61
   1   0  -6 1032.64   41.50
  -1   0  -6 1225.06   43.54
  -1   0   6 1137.82   42.31
   0  -1   6 1196.75   42.53
   1  -1   6 1112.21   41.91
   1  -1  -6 1077.76   37.05
  -1   0  -6 1150.34   39.45
   0  -1  -6 1162.02   40.66
   1  -1   6 1187.22   38.49
  -1   1   6 1164.31   41.40
   0   1   6 1105.00   37.75
   0   1   6 1152.65   40.08
   0  -1  -6 1106.01   42.60
   1  -1   6 1152.57   42.92
  -1   0   6 1104.47   42.80
   1   0   7 1188.74   43.72
   1   0  -7 1076.97   42.70
   0  -1  -7 1129.72   42.96
  -1   0  -7 1114.69   44.00
   1  -1  -7 1102.80   42.87
  -1   0  -7 1118.25   43.03
  -1   0   7 1075.22   43.02
   1  -1   7 1109.62   42.98
   0  -1   7 1083.72   42.96
   0  -1  -7 1136.21   43.83
   1  -1   7 1145.93   43.86
  -1   0   7 1166.39   44.17
   0  -1  -7 1115.60   41.35
  -1   0  -7 1146.19   40.20
   1  -1   7 1136.55   39.00
   0   1   7 1182.19   40.82
  -1   1   7 1172.16   41.99
   0   1   7 1119.89   37.94
   1  -1   8   -2.04    3.84
   1  -1  -8   16.00    5.03
  -1   0   8    6.99    4.49
   0  -1  -8    1.29    4.24
   0  -1   8    9.66    4.48
   1   0   8    0.70    4.10
   1   0  -8   10.73    4.42
  -1   0  -8    9.84    5.23
   0  -1  -8    4.41    3.91
  -1   0   8    3.71    4.96
   1  -1   8    6.50    4.78
  -1   0  -8   13.85    4.94
   1  -1  -8    5.99    4.34
   0   1   8   10.20    3.51
   1  -1   8    5.26    2.32
  -1   1   8   11.28    3.95
  -1   0  -8    6.60    3.49
   0   1   8    5.55    1.88
  -1   0  -9  600.11   27.92
   0  -1   9  575.93   27.89
   1   0  -9  539.06   26.74
   1  -1  -9  627.16   28.06
  -1   0  -9  577.94   28.83
   1   0   9  601.85   27.93
  -1   0   9  589.57   28.12
   1  -1   9  600.01   28.23
   0  -1  -9  616.95   28.23
   1  -1  -9  586.88   28.81
   1  -1   9  630.34   28.88
  -1   0   9  592.98   28.89
   0  -1  -9  619.94   29.06
   0  -1   9  631.53   24.91
   0   1   9  565.36   21.50
   1  -1   9  620.83   23.57
  -1   1   9  649.21   26.54
   0   1   9  592.50   24.95
  -1   0  10   19.35    5.98
   0  -1 -10   11.98    5.39
  -1   0 -10   29.11    6.78
   1   0 -10   16.53    5.84
   1  -1 -10   19.12    6.26
   1   0  10   17.28    5.87
   0  -1  10   22.68    6.09
   1  -1  10   17.97    5.82
   1  -1 -10   29.24    6.87
  -1   0  10   35.46    7.11
   0  -1 -10   25.03    6.69
  -1   0 -10   32.51    7.23
  -1   0  10   33.63    5.43
   0   1  10   28.90    5.21
  -1   1  10   24.92    5.15
   1  -1  10   28.10    4.15
   0  -1  10   22.37    4.53
   0   1  10   25.92    2.94
   1  -1  11  990.32   43.04
   0  -1 -11  969.32   42.28
   0  -1  11 1036.13   43.80
   1  -1 -11 1048.55   43.07
  -1   0 -11 1000.34   44.26
  -1   0 -11  980.14   42.24
   1   0 -11 1022.41   42.77
  -1   0  11 1043.52   43.74
   1   0  11 1004.94   43.32
   0   1  11 1050.50   39.35
   0  -1  11 1006.00   38.60
  -1   1  11 1010.47   40.23
  -1   0  11  982.40   39.69
   1  -1  11 1030.76   37.37
   0   1  11  974.88   34.62
   1  -1 -11 1054.61   44.57
  -1   0  11  988.45   43.84
   0  -1 -11  976.92   43.76
   1  -1  12  813.07   37.73
   1   0  12  749.81   37.09
   0  -1 -12  772.62   36.44
  -1   0  12  814.49   37.94
  -1   0 -12  806.73   38.69
   0  -1  12  809.24   37.92
   1   0 -12  782.50   36.68
   1  -1 -12  782.17   37.00
   0   1  12  807.75   33.17
   0  -1  12  834.38   32.79
  -1   1  12  828.78   34.20
   1  -1  12  845.52   31.58
  -1   0  12  789.52   33.68
   1   0  12  791.22   28.59
   0   1  12  790.06   28.43
   0  -1  12  823.27   38.29
   1  -1 -12  865.16   39.15
  -1   0  12  781.51   38.20
   0  -1 -12  787.48   38.21
   1  -1  13  742.48   35.57
  -1   0 -13  714.75   36.03
   0  -1  13  657.05   34.40
  -1   0  13  688.82   34.71
   1   0  13  679.92   34.54
   0  -1 -13  767.74   36.62
   1  -1 -13  730.46   36.14
  -1   0  13  695.09   30.45
   1  -1  13  705.52   23.99
   1   0  13  649.57   24.91
  -1   1  13  744.20   31.18
   0  -1  13  697.84   29.25
   0   1  13  646.17   24.83
   1  -1  14   33.33    8.45
   1   0  14   35.98    8.72
  -1   0  14   22.40    7.78
   0  -1  14   17.48    7.09
   0  -1 -14   29.22    8.92
  -1   0 -14   34.67    8.69
   1  -1 -14   17.08    7.56
  -1   0  14   35.48    6.62
   1  -1  14   31.70    2.94
  -1   1  14   30.13    6.38
   0  -1  14   31.19    5.78
   1   0  14   24.71    3.36
  -1   0 -15  347.33   25.05
   0  -1 -15  346.21   25.10
   1  -1  15  360.12   24.53
   1   0  15  308.41   23.38
  -1   0  15  368.83   24.75
   0  -1  15  384.91   25.37
  -1   1  15  367.35   20.30
   0  -1  15  394.25   19.39
   1  -1  15  366.20   13.43
  -1   0  15  321.87   19.05
   1   0  15  350.56   14.54
   1  -1 -15  367.79   25.47
  -1   0  16   41.43   10.43
   1  -1  16   60.48   11.79
   0  -1  16   64.25   11.84
   1   0  16   31.69    9.63
   1   0  16   45.16    4.11
  -1   0  16   42.81    7.27
  -1   1  16   34.95    7.29
   1  -1  16   46.19    3.17
   0  -1  16   48.14    7.01
   1  -1 -16   27.65    9.96
  -1   0 -16   64.47   11.89
   0  -1 -16   47.62   11.73
   1  -1  17  285.95   22.87
  -1   0 -17  258.46   22.70
   1   0  17  272.75   22.31
   0  -1 -17  276.99   22.61
   0  -1  17  232.93   21.13
  -1   1  17  247.05   16.72
  -1   0  17  259.83   16.89
   1   0  17  269.92   11.27
   0  -1  17  276.51   16.27
   1  -1 -17  266.07   22.81
   0  -1  18  398.69   28.71
   1  -1  18  464.40   30.26
   1   0  18  431.06   29.27
   0  -1 -18  429.83   30.26
  -1   0 -18  409.05   29.96
  -1   0  18  401.84   22.22
   0  -1  18  403.89   21.47
   1  -1 -18  379.47   28.90
   1   0  19  411.64   29.50
  -1   0 -19  391.82   29.79
   1  -1 -19  398.24   30.14
   0  -1 -19  412.73   29.92
   1  -1  19  398.10   29.72
  -1   0  19  357.51   21.48
   0  -1 -20   17.58   10.86
   1  -1 -20   15.76   11.40
  -1   0 -20   11.86   10.83
   1  -1  20   16.46    9.44
   1   0  20    1.85    9.52
   1  -1 -21  139.00   19.89
  -1   0 -21  111.68   18.21
   0  -1 -21  111.76   18.60
   1  -1  21   99.41   17.23
   1   0  21   95.15   17.31
   1  -2   0  261.09   11.33
   1  -2   0  277.41   10.28
  -2   1   0  263.09   11.28
   1  -2   0  271.99   10.93
  -1   2   0  289.16   11.01
   1  -2   1  297.04   11.52
  -1   2   1  295.13   12.29
   2  -1  -1  286.32   11.12
   1  -2  -1  307.94   12.46
   1  -2  -1  296.57   11.67
  -1  -1  -1  302.16   12.43
   1  -2  -1  297.27   11.78
   2  -1   1  302.06   11.89
  -1   2  -1  306.74   11.85
  -1  -1  -2  185.28    9.08
   2  -1   2  211.97   10.63
  -1   2  -2  197.33    8.46
  -1   2   2  206.84    8.72
   1  -2   2  212.41    8.60
   1  -2   2  196.53    9.16
   1  -2  -2  187.20    8.53
  -1   2   2  213.27    9.87
   1  -2  -2  200.23    9.39
   1  -2  -2  197.61    9.78
  -1   2   2  206.27    9.21
   1  -2  -2  207.59    9.42
   2  -1   2  194.48    9.48
  -1  -1  -2  197.41    9.87
   1  -2  -2  201.99    8.86
   2  -1   2  210.51    7.92
  -2   1  -3  605.33   23.27
   1  -2   3  566.19   21.86
   1  -2   3  578.52   21.42
   2  -1   3  600.06   23.17
   1  -2  -3  578.51   21.43
  -1   2  -3  569.16   21.41
  -1   2   3  578.91   21.63
   2  -1   3  543.42   21.93
  -1  -1  -3  582.95   22.22
   1  -2  -3  557.01   22.12
  -1  -1   3  590.53   22.58
   1  -2  -3  584.86   20.40
  -1   2   3  631.12   22.07
   1  -2  -3  604.94   22.05
  -1  -1  -3  592.80   22.71
   2  -1   3  562.47   19.36
  -2   1  -3  544.59   19.37
   1  -2  -4   19.20    3.86
   2  -1   4   14.91    3.77
   2  -1  -4   18.01    4.09
  -1  -1  -4   18.05    4.41
  -1   2  -4   10.25    3.47
  -1   2   4   20.90    3.72
   1  -2   4   16.93    3.45
  -2   1  -4   13.30    4.28
  -1  -1  -4   11.25    3.99
  -1  -1   4   15.61    4.29
   2  -1   4   15.54    4.67
   1  -2   4   14.12    3.87
   2  -1  -4   11.67    4.16
   1  -2  -4   22.13    2.62
  -1   2   4   15.04    3.27
   1   1  -4   16.91    1.43
  -2   1  -4   14.51    1.86
  -1   2  -5  400.42   17.41
   2  -1  -5  403.21   18.03
  -2   1  -5  419.15   19.02
   2  -1   5  379.88   18.36
   2  -1   5  400.19   18.04
   1  -2   5  386.37   17.42
  -1   2   5  415.46   17.81
  -1  -1  -5  414.04   18.49
   1  -2  -5  384.86   17.39
  -1  -1   5  400.48   18.45
  -2   1   5  391.39   19.24
   2  -1  -5  400.51   19.06
   1  -2   5  360.75   17.79
  -1   2   5  434.70   17.66
   1  -2  -5  371.36   14.68
  -1  -1  -5  374.40   13.37
  -1  -1  -5  425.21   18.50
  -2   1  -5  381.68   13.85
   2  -1  -6  306.73   16.21
  -1  -1  -6  348.25   17.29
   2  -1   6  372.11   17.40
   1  -2  -6  301.66   16.20
  -1   2  -6  317.27   16.38
   1  -2   6  339.17   16.59
   2  -1   6  334.96   17.27
  -1   2   6  331.52   16.54
  -2   1  -6  348.29   17.92
  -1  -1  -6  384.33   18.27
  -1  -1  -6  322.57   14.53
  -2   1  -6  330.62   13.23
   1  -2  -6  340.50   13.30
  -1   2   6  357.50   16.24
   1  -2   6  344.31   17.33
  -2   1   6  325.52   17.95
  -1  -1   6  347.79   17.56
   2  -1  -6  336.66   17.78
   2  -1  -7    1.15    4.01
  -1  -1  -7    3.63    3.88
   1  -2  -7    1.70    4.17
  -1   2  -7   -0.56    3.83
  -1   2   7    1.21    3.66
   2  -1   7    1.89    3.78
   1  -2   7    0.59    3.37
   2  -1  -7    2.09    1.22
  -1   2   7    0.50    3.29
  -1  -1  -7    1.13    2.63
  -2   1  -7    1.58    2.24
   2  -1  -7    4.25    4.40
  -1  -1   7    6.62    4.87
   2  -1   7    2.58    4.47
  -1  -1  -7    4.77    4.32
   1  -2   7    3.19    4.26
  -2   1  -7    4.39    4.79
   1   1   7    1.28    4.01
  -2   1   7   -2.14    4.58
  -1   2   7    1.98    4.23
  -1   2  -8   51.83    6.91
  -1  -1  -8   49.85    6.85
   2  -1   8   47.18    7.09
  -1   2   8   47.52    6.84
   1  -2  -8   37.45    6.52
   2  -1  -8   42.74    6.78
   1  -2   8   48.20    6.84
  -1   2   8   39.80    5.65
   1  -2   8   45.87    4.45
   2  -1  -8   42.64    2.79
  -2   1  -8   49.97    4.72
  -1  -1  -8   44.61    5.41
  -1  -1  -8   57.44    8.13
   1  -2   8   43.49    7.34
   1  -2  -8   51.50    7.50
  -2   1   8   39.88    7.23
   2  -1   8   68.15    7.96
  -1   2   8   47.89    7.41
   1   1   8   55.03    7.66
  -1  -1   8   43.61    7.51
  -2   1  -8   47.13    7.60
  -1  -1  -9  269.68   17.33
   2  -1   9  273.75   16.84
   2  -1  -9  241.88   15.70
  -1   2   9  245.01   16.09
   1  -2  -9  224.72   15.39
  -1  -1  -9  259.39   16.25
   1  -2   9  264.00   16.36
  -2   1  -9  272.92   17.70
  -1   2  -9  277.18   16.37
   1  -2   9  255.42   12.30
  -1  -1  -9  251.28   13.73
  -1   2   9  257.96   14.92
   2  -1   9  265.12   16.91
   1  -2  -9  223.51   16.17
  -2   1   9  281.93   17.77
  -1   2   9  265.12   17.04
  -1  -1   9  282.55   17.44
  -2   1 -10  217.89   16.45
   1  -2 -10  217.23   15.10
   2  -1 -10  231.49   15.23
  -1   2 -10  208.71   14.90
   2  -1  10  244.55   16.03
  -1   2 -10  201.89   15.93
  -1  -1 -10  200.64   15.89
   1  -2  10  189.36   14.94
  -1  -1 -10  220.02   15.16
  -1   2  10  208.83   15.40
  -1   2  10  258.09   16.97
   1   1 -10  214.21   16.29
  -2   1  10  207.30   16.06
   1  -2 -10  208.95   16.05
   2  -1  10  197.36   15.05
  -1  -1  10  228.55   16.42
  -1  -1 -10  208.72   12.84
  -1   2  10  217.54   13.79
  -2   1  10  210.13   14.10
   1  -2  10  232.81   11.51
  -1   2  11   11.57    5.92
   2  -1  11   13.52    6.07
  -1   2 -11    4.36    5.43
   1  -2  11    7.66    5.68
  -1  -1 -11    3.63    4.97
   1  -2 -11    4.39    5.20
   2  -1 -11    6.97    5.29
  -1  -1  11    5.20    5.19
  -2   1  11    3.25    6.34
   1   1 -11    2.06    4.95
   1  -2 -11   -1.04    5.85
   2  -1 -11    7.50    5.53
  -2   1 -11    7.80    5.36
   2  -1  11    7.85    5.53
  -1  -1 -11    5.30    5.64
  -1   2 -11    8.32    5.36
  -1   2  11    3.10    5.50
   1  -2  11    3.33    2.87
  -2   1  11    3.00    4.00
  -1  -1 -11    0.63    3.98
  -1   2  11    8.24    4.63
   1   1  11    3.66    2.33
   1  -2 -12  193.31   15.57
  -2   1 -12  235.33   16.66
  -1  -1 -12  192.49   16.59
  -1   2  12  185.03   15.60
   1  -2  12  194.05   15.87
  -1   2 -12  207.50   15.71
  -1  -1 -12  180.58   14.99
  -2   1 -12  176.57   16.06
   2  -1 -12  203.92   15.74
  -1   2 -12  210.67   16.81
   2  -1  12  191.78   15.78
  -2   1  12  198.87   14.25
   1   1  12  182.40    9.85
   1  -2  12  194.78   11.15
  -1   2  12  206.59   13.81
  -2   1  12  176.95   16.61
   1  -2 -12  203.16   16.69
   2  -1  12  185.10   15.74
   2  -1 -12  209.55   17.14
  -1  -1  12  213.79   17.22
   1   1 -12  208.80   16.59
  -1   2  12  175.28   16.18
  -1   2  13  121.11   13.35
  -1  -1 -13  148.50   14.70
  -2   1 -13  148.68   15.31
   1  -2  13  116.22   12.98
  -1   2 -13  148.68   14.80
   2  -1  13  131.66   13.70
  -1   2  13  137.62   11.53
  -2   1  13  127.11   11.77
  -1  -1  13  152.87   11.43
   1   1  13  135.78    7.99
   1  -2  13  138.19    9.45
   2  -1 -13  137.69   14.33
   1   1 -13  173.69   15.46
   1  -2 -13  123.38   13.62
   2  -1  14   47.26    9.75
   1  -2  14   54.93   10.77
  -1   2  14   63.67   10.70
   1   1  14   63.50    5.31
  -1  -1  14   67.74    7.97
  -2   1  14   60.43    8.71
  -1   2  14   50.93    7.72
   1  -2  14   61.08    6.43
   1  -2  14   57.97    2.99
  -2   1 -14   82.58   11.68
   1  -2 -14   83.54   12.31
  -1   2 -14   68.93   11.01
   1   1 -14   65.75   10.99
  -1  -1 -14   76.70   11.71
   2  -1 -14   79.48   11.79
  -1   2  15  303.25   22.36
   2  -1  15  315.43   22.59
   1  -2  15  282.52   22.05
  -1   2 -15  264.09   21.89
  -2   1 -15  319.42   23.73
  -1  -1 -15  278.91   22.43
   2  -1 -15  305.32   23.09
   1   1 -15  302.53   22.74
   1  -2 -15  261.73   22.06
  -1  -1  15  331.22   18.39
  -2   1  15  263.71   17.99
   1  -2  15  300.91   15.63
   1   1  15  289.59   13.30
   2  -1  16   18.72    8.02
  -1   2  16   15.97    9.03
   1  -2  16   23.02    9.43
  -1  -1 -16   13.94    8.74
   1   1 -16   13.78    8.40
  -2   1 -16   35.30    9.98
   1  -2 -16   23.12    9.15
   2  -1 -16   12.57    7.43
  -1   2 -16   12.24    8.27
  -2   1  16    6.40    5.17
  -1  -1  16   16.86    5.68
   1   1  16   14.96    3.42
   2  -1  16   12.85    2.85
   2  -1  17   29.33   10.33
  -1   2  17   15.49    9.21
   1  -2  17   24.44    9.08
   1   1 -17   13.14    8.90
  -1   2 -17   22.97    9.75
   2  -1 -17   16.51    9.07
  -2   1 -17   18.70    9.47
   1  -2 -17   21.49    9.95
  -1  -1 -17   23.23    9.25
  -1  -1  17   29.58    6.67
  -2   1  17   16.96    6.33
   1   1  17   26.15    3.76
   2  -1  17   19.44    3.23
   1  -2  18   90.69   14.89
   2  -1  18  134.02   16.96
  -1   2  18  115.64   16.29
  -2   1  18  106.54   11.96
  -1  -1  18   93.52   10.56
  -1  -1 -18  113.40   16.64
  -1   2 -18  113.98   16.56
   1  -2 -18   93.78   15.36
   2  -1 -18  108.12   16.40
  -2   1 -18   88.05   14.95
   1   1 -18   96.76   15.36
   2  -1  19   -3.48   10.82
   1  -2  19    3.42    8.96
  -1   2  19   -1.74    9.13
  -2   1  19   10.96    6.53
  -1  -1  19   -1.74    6.13
   2  -1 -19    1.88    8.69
   1   1 -19   -3.73   11.06
  -1   2 -19    1.86    9.76
  -2   1 -19   13.30   10.56
   1  -2 -19    7.50    9.67
  -1  -1 -19    9.40    9.85
  -1   2  20   52.98   13.36
   2  -1  20   79.36   15.22
  -2   1  20   53.53    9.51
  -1  -1  20   58.05    8.88
   1   1 -20   72.79   15.15
   2  -1 -20   67.58   14.97
   1  -2 -20   47.47   13.72
  -1   2 -20   83.23   15.59
  -2   1 -20   64.51   15.40
  -1  -1 -20   73.93   15.38
  -1   2  21   84.18   16.08
   2  -1  21   69.97   14.87
   1  -2 -21   60.22   15.04
   2  -1 -21   58.85   15.09
  -1  -1 -21   65.57   15.92
  -2   1 -21   52.99   14.44
  -1   2 -21   58.79   15.32
   1   1 -21   82.64   17.02
  -2   1  21   63.18   10.26
   2  -2   0  928.43   33.60
  -2   0   0  910.77   31.57
   0   2   0  898.07   31.55
   0  -2   0  909.80   31.68
  -2   2   0  940.08   33.53
   2   0   0  961.11   31.76
   2   0   0 1002.94   33.40
   0   2   1  275.08   12.05
  -2   2  -1  279.19   13.09
   2  -2  -1  275.07   12.78
   0  -2  -1  273.20   11.19
   0   2  -1  296.59   11.02
   0  -2  -1  297.08   11.51
  -2   2   1  277.55   12.67
   0   2   1  304.56   11.46
   2   0  -1  285.99   11.31
   0  -2  -1  267.32   11.46
  -2   2  -1  287.84   10.70
   2   0   1  322.85   12.92
  -2   2  -1  276.11   11.47
  -2   0  -1  307.08   12.93
   2  -2   1  293.80   10.77
   2  -2  -2  655.85   24.00
   2  -2   2  674.35   25.85
   2  -2   2  691.48   24.08
   0   2   2  710.85   25.27
   0   2  -2  697.95   24.03
   0  -2  -2  674.51   24.10
   2  -2  -2  692.63   25.32
   0  -2  -2  728.28   24.28
   0  -2   2  673.19   23.36
   0   2   2  674.73   23.75
   2   0   2  731.01   26.04
  -2   2  -2  687.42   24.11
  -2   2  -2  703.38   24.16
   0  -2  -2  681.64   24.86
   0  -2  -2  662.82   23.87
  -2   0  -3    2.79    3.26
   2  -2  -3    6.09    3.07
   0   2  -3    6.49    2.78
   0  -2  -3    2.54    2.56
   2  -2   3    9.28    3.61
   2  -2  -3    5.44    3.32
   2  -2   3    4.50    2.36
   0  -2  -3    5.88    3.03
   2  -2  -3    5.68    2.59
   2   0   3   11.21    3.50
  -2   2  -3    8.31    3.02
   0  -2  -3    4.39    1.71
  -2   2  -3    6.01    2.09
   0   2   3    6.06    1.89
   0  -2   3    6.31    1.50
  -2   0  -4 1054.72   40.03
   0   2  -4 1147.75   39.17
   2  -2   4 1074.08   38.69
  -2   2  -4 1103.66   38.72
   2  -2  -4 1122.13   38.70
  -2   2   4 1094.95   38.73
   2  -2   4 1096.10   39.91
   0   2  -4 1097.47   39.01
   0  -2  -4 1062.36   38.95
   2  -2  -4 1136.72   40.81
   0   2   4 1041.64   36.86
   0  -2   4 1109.00   35.63
   2   0   4 1154.32   40.08
   0  -2  -4 1080.95   39.12
  -2   2  -4 1060.99   36.77
   0  -2  -4 1030.90   36.35
   2  -2   5  493.86   22.91
   2  -2  -5  519.30   22.15
  -2   0  -5  586.01   24.31
   2   0   5  564.43   23.56
   2  -2   5  536.27   22.45
   0   2  -5  556.62   22.73
  -2   2  -5  525.09   22.26
  -2   2   5  519.54   22.45
   0  -2  -5  535.54   22.78
   0   2  -5  572.15   23.20
   2  -2  -5  548.35   24.00
  -2   0   5  515.41   23.76
   0  -2  -5  517.39   22.74
   0   2   5  515.27   19.98
   0  -2   5  561.88   18.51
  -2   2   5  611.54   23.81
   0  -2  -5  545.77   19.65
   2   0  -6  930.20   36.55
   0  -2  -6  968.99   36.62
  -2   2  -6  934.58   36.06
   2   0   6  985.48   37.40
   0   2  -6  986.46   36.36
  -2   0  -6 1038.24   38.30
   2  -2   6  920.48   36.17
   2  -2   6  911.42   36.78
   2  -2  -6  904.21   35.69
  -2   2   6  910.85   36.22
   2  -2  -6  937.19   32.02
   0  -2   6  948.31   30.75
  -2   2   6 1037.94   37.09
   0  -2  -6  902.25   34.61
   0   2   6  895.74   32.66
   0  -2  -6  936.93   36.86
   2  -2  -6  929.42   37.56
   0   2  -6  975.66   36.76
  -2   0   6  881.62   37.35
  -2   0  -7  158.80   11.86
   2   0   7  154.22   11.08
  -2   2  -7  126.40   10.01
   0  -2  -7  149.81   10.71
   2  -2  -7  126.35    9.83
   0   2  -7  147.53   10.45
   2  -2   7  122.39    9.89
   2   0  -7  138.04   10.30
  -2   2   7  128.05   10.10
   0  -2   7  134.69    5.40
  -2   2   7  137.80   10.18
   2  -2  -7  129.76    6.59
  -2   0  -7  146.28    8.12
   0   2   7  132.59    7.40
   0  -2  -7  141.15    9.36
   0   2  -7  143.80   10.93
  -2   0   7  135.49   11.30
   0  -2  -7  134.69   10.60
   2  -2   7  159.53   11.40
  -2   2   8  377.13   19.51
   2  -2  -8  378.57   19.05
   2   0  -8  365.50   19.36
   0   2  -8  351.63   18.86
   0  -2  -8  378.66   19.37
   2   0   8  357.34   19.66
  -2   0  -8  396.41   21.05
  -2   2  -8  320.47   18.26
   2  -2   8  376.50   19.52
   0  -2  -8  381.07   19.95
   2  -2   8  319.29   18.69
  -2   0   8  374.74   20.46
   0   2  -8  379.52   19.76
  -2   0  -8  415.96   16.38
  -2   2   8  364.89   18.67
   0   2   8  345.66   14.79
   0  -2  -8  372.44   17.76
   2  -2  -8  330.25   13.74
   2   0   9   10.01    5.64
   0  -2   9   17.97    5.62
   0   2  -9   15.68    5.39
   2   0  -9   17.79    5.89
   2  -2   9   10.07    5.48
  -2   2  -9   13.09    5.78
   2  -2  -9   17.44    5.73
   0  -2  -9   20.04    5.97
  -2   2   9   15.90    5.53
   2  -2   9   18.66    5.84
  -2   0  -9   10.27    6.07
   0   2  -9   11.51    5.13
   0  -2  -9   20.20    6.11
  -2   0   9   15.18    5.98
  -2   0  -9    7.98    3.40
   0  -2  -9   26.25    5.34
  -2   2   9   12.96    4.87
   2  -2  -9   16.50    2.50
   0   2   9   16.21    3.12
   2  -2 -10  506.03   25.36
   2   0 -10  499.38   25.40
   0  -2  10  477.06   25.54
   0   2 -10  523.15   25.42
   0  -2 -10  501.76   25.30
  -2   2  10  492.19   25.87
  -2   0 -10  541.51   28.02
  -2   2 -10  483.81   25.01
   2   0  10  490.07   26.18
   2  -2  10  524.78   26.17
   0   2  10  488.46   19.78
  -2   2  10  530.35   24.96
   0  -2 -10  519.42   24.15
  -2   0 -10  536.45   22.30
   2  -2  10  479.11   25.74
   0  -2 -10  535.23   27.06
  -2   0  10  498.40   27.07
   0   2 -10  493.42   26.22
   2  -2 -11   93.16   10.72
   0   2 -11   79.01    9.88
   2   0 -11  108.69   11.35
  -2   2  11   96.35   10.69
   2  -2  11  103.80   10.75
   0  -2 -11  109.81   11.16
  -2   2 -11   92.31   10.57
  -2   0 -11  110.94   12.25
   2   0  11   96.99   11.24
   0  -2  11   95.19   10.62
   0   2  11   96.15    6.47
  -2   0 -11  110.94    8.65
  -2   2  11   93.23    9.49
   0   2 -11   71.91    9.94
   0  -2 -11   72.37   10.17
   2  -2 -11   96.93   11.20
   2  -2  11  104.33   11.41
  -2   0  11  104.33   12.28
   2   0 -12  281.01   18.27
  -2   2 -12  218.56   16.66
   2  -2 -12  253.30   17.52
   2   0  12  269.79   18.62
  -2   2  12  276.51   19.04
   2  -2  12  239.62   18.02
  -2   0 -12  283.55   20.17
   0  -2  12  251.33   18.22
   0  -2 -12  273.10   18.29
   0   2 -12  236.71   17.47
  -2   2  12  258.00   16.33
   0  -2  12  263.81   14.37
   0   2  12  226.11   11.67
   2  -2  12  281.34   19.09
   2  -2 -12  258.74   19.09
   0  -2  12  242.00   18.38
   0   2  12  250.50   18.36
   0   2 -12  239.30   18.55
   0  -2 -12  275.63   19.50
  -2   0  12  277.09   20.28
  -2   2  13  126.32   13.20
  -2   0 -13  156.19   15.08
   2  -2  13  122.24   13.10
   2   0  13  149.40   14.10
   0  -2  13  131.21    9.86
  -2   0  13  119.71   10.98
   0   2  13  109.11    7.32
  -2   2  13  117.43   11.12
   2  -2 -13  119.10   13.86
   0  -2 -13  132.45   14.24
   0   2 -13  121.81   13.57
   2  -2  14  204.71   18.20
   2   0  14  275.71   20.22
  -2   2  14  256.34   19.96
  -2   0 -14  263.94   21.22
   0  -2 -14  255.73   20.43
   0   2 -14  258.23   20.45
   2  -2 -14  251.72   20.22
   0  -2  14  264.08   14.98
   0   2  14  261.20   12.14
  -2   2  14  254.47   16.83
  -2   0  14  242.65   16.57
   2   0  15    8.19    7.69
  -2   2  15    9.46    8.21
   2  -2  15    1.33    8.18
   2  -2 -15    1.47    7.71
   0   2 -15    4.28    8.14
   0  -2 -15    4.34    8.47
  -2   0 -15    7.58    7.82
   0  -2  15    4.59    4.63
  -2   0  15   -3.57    5.84
  -2   2  15   -0.91    5.37
   2   0  15    0.34    3.51
   2  -2  16  169.37   17.00
   2   0  16  129.25   15.86
   0   2 -16  166.30   17.35
   0  -2 -16  163.92   17.09
  -2   2  16  163.12   16.87
  -2   0 -16  169.50   18.21
   2   0  16  159.73    9.02
  -2   2  16  178.15   14.40
   0  -2  16  166.85   11.95
  -2   0  16  147.50   13.38
   2  -2 -16  177.76   18.14
   2   0  17   41.83   10.91
   2  -2  17   58.61   11.85
  -2   2  17   56.80   11.96
  -2   0  17   65.49    9.62
   2  -2  17   62.44    4.19
  -2   2  17   81.06   10.37
   0  -2  17   71.46    8.22
   2   0  17   60.03    5.36
   2  -2 -17   43.05   11.01
   0   2 -17   48.92   11.85
  -2   0 -17   66.55   12.69
   0  -2 -17   54.42   12.46
  -2   2  18  144.64   17.63
   2  -2  18  123.23   16.67
   2   0  18  138.63   17.69
  -2   2  18  141.47   13.29
   0  -2  18  140.86   11.48
  -2   0  18  132.05   13.25
   2  -2 -18  170.57   19.18
   0  -2 -18  124.10   17.21
   0   2 -18  140.10   17.27
  -2   0 -18  122.87   17.76
   2   0  19   83.97   14.55
   2  -2  19   76.63   14.48
  -2   2  19   85.26   10.83
  -2   0  19   81.52   10.54
   0  -2  19   74.83    9.11
   0   2 -19   71.56   14.46
   2  -2 -19   99.70   16.27
  -2   0 -19  108.89   16.80
   0  -2 -19   96.38   16.49
   2   0  20  193.38   21.07
   2  -2  20  174.64   20.26
   0  -2 -20  190.68   21.77
   0   2  20  207.07   21.89
   0   2 -20  200.76   21.83
  -2   0  20  199.27   15.85
   2  -2 -20  203.19   22.04
  -2   0 -20  176.13   21.74
   2  -2  21    5.76   10.96
   0   2  21   -1.95   10.97
   2   0  21    1.95   10.66
   2  -2 -21   -2.11   11.56
   0  -2 -21    2.08   11.55
  -2   0 -21   -6.38   12.46
   0   2 -21    2.06   11.31
  -2   0  21   -2.04    6.69
  -3   2   0 2040.05   67.22
   1  -3   0 2005.90   66.45
  -1   3   0 1958.11   65.98
   2   1   0 1924.23   66.98
   3  -2   0 1977.50   65.28
  -1   3   0 2006.12   63.96
   1  -3   1  779.00   26.44
  -1   3   1  777.95   28.62
  -3   2   1  811.26   27.69
  -2  -1  -1  795.23   26.13
   1  -3  -1  743.13   28.23
  -3   2  -1  749.24   29.27
  -1   3  -1  746.62   28.54
  -3   2   1  767.39   29.02
   1  -3  -1  791.75   27.55
  -1   3   1  734.25   28.03
   3  -2   1  783.70   27.51
  -1   3  -1  826.60   28.21
  -2  -1  -1  767.58   29.15
   1  -3  -1  835.39   28.12
  -3   2  -1  761.24   27.51
   2   1   1  712.69   28.72
   1  -3  -1  743.78   26.31
  -1   3   1  791.63   26.52
   2   1   2   32.42    4.85
  -1   3  -2   32.71    3.89
  -1   3   2   32.85    3.66
   1  -3   2   28.54    3.53
  -1   3   2   39.70    5.09
   1  -3  -2   22.35    3.40
   3  -2  -2   42.42    4.59
   1  -3  -2   27.28    4.11
   1  -3  -2   27.01    4.20
   1  -3  -2   22.34    3.12
  -2  -1  -2   33.63    4.88
   3  -2   2   30.14    3.50
   1  -3  -2   29.28    3.80
   3  -2   2   35.34    4.12
  -3   2  -2   30.44    4.38
   2   1   2   43.86    5.59
   1  -3  -2   29.56    3.89
  -2  -1  -3 4902.00  156.58
   1  -3   3 4898.98  155.01
   3  -2   3 4978.18  157.75
  -1   3  -3 4847.96  154.62
  -1   3   3 4910.62  154.89
   2   1   3 4719.41  155.84
  -1   3  -3 4818.42  154.92
   2   1  -3 4895.11  156.59
   3  -2  -3 4819.76  155.23
  -1   3   3 4772.20  155.50
   1  -3  -3 4696.39  154.99
   1  -3  -3 4785.58  154.40
   1  -3  -3 4765.17  155.38
  -3   2  -3 4841.87  155.56
   1  -3  -3 4846.25  154.61
   3  -2   3 4807.52  155.55
  -2  -1  -3 5003.43  157.23
   3  -2   3 4778.89  153.56
   1  -3  -3 4676.98  154.70
   2   1   3 4860.62  157.07
   1  -3  -4  575.08   22.69
  -1   3  -4  567.32   22.38
  -1   3  -4  589.28   23.17
   3  -2   4  543.91   24.23
  -2  -1  -4  591.18   24.11
   2   1   4  554.23   23.43
  -1   3   4  600.69   22.98
   3  -2   4  566.32   23.20
   2   1  -4  588.55   24.26
   1  -3   4  608.07   23.07
  -1   3   4  555.96   23.17
   1  -3  -4  565.81   22.92
   1  -3  -4  548.84   21.29
  -3   2  -4  532.77   22.82
  -2  -1  -4  575.64   24.32
   3  -2   4  566.40   20.54
  -3   2  -4  554.81   20.49
   1  -3  -4  601.18   21.89
   2   1   4  584.63   24.39
   3  -2  -5  803.72   30.67
   3  -2   5  757.90   31.82
  -1   3  -5  788.21   30.70
  -1   3   5  782.81   30.28
   2   1   5  766.27   30.92
  -2  -1  -5  761.68   31.20
  -1   3  -5  767.17   29.64
   3  -2   5  767.91   30.52
   1  -3  -5  766.85   30.05
   1  -3   5  769.38   30.47
  -1   3   5  737.23   30.56
   3  -2  -5  773.23   32.56
   2   1  -5  846.20   31.99
   1  -3  -5  766.72   28.02
   1  -3  -5  783.92   30.16
  -3   2  -5  766.21   26.94
   1  -3  -5  796.54   28.52
   2   1   5  804.92   31.73
  -2  -1  -5  796.13   31.60
  -3   2  -5  743.72   30.20
  -2  -1  -6 3361.82  109.37
   3  -2   6 3229.23  109.18
  -1   3   6 3244.85  107.85
  -1   3  -6 3168.64  107.08
   3  -2  -6 3203.85  107.47
  -1   3  -6 3298.53  108.26
   2   1   6 3287.43  109.10
   3  -2   6 3092.77  107.67
   1  -3  -6 3072.96  107.29
   1  -3   6 3241.61  108.08
  -1   3   6 3061.44  107.98
   2   1   6 3279.18  108.39
   3  -2  -6 3501.35  111.08
   2   1  -6 3262.36  109.21
  -2  -1   6 3140.21  109.26
  -1   3   6 3030.05  104.06
   1  -3  -6 3094.68  104.18
  -3   2  -6 3269.04  107.72
  -3   2  -6 3248.95  103.09
  -2  -1  -6 3357.35  109.10
   1  -3  -7  476.16   21.98
   2   1   7  519.66   23.69
   3  -2  -7  485.56   22.19
   1  -3   7  513.34   22.47
   3  -2   7  429.93   22.63
  -3   2  -7  488.41   22.31
  -1   3   7  494.15   22.46
   3  -2   7  455.39   22.35
  -2  -1  -7  483.69   23.63
  -1   3  -7  455.00   21.66
  -1   3  -7  475.89   22.70
   3  -2  -7  517.88   24.68
   1  -3   7  489.54   22.80
  -2  -1   7  478.64   23.38
   2   1   7  495.77   23.00
  -1   3   7  459.60   22.77
   1  -3  -7  462.11   22.60
  -1   3   7  441.95   18.46
   1  -3  -7  461.45   18.72
  -3   2  -7  468.21   17.34
   2   1  -7  472.04   15.76
  -2  -1  -7  469.44   23.10
  -3   2  -7  453.64   17.63
  -2  -1  -8   76.90    9.10
   3  -2   8   73.71    8.67
   2   1   8   69.64    8.56
  -1   3   8   83.82    8.94
   3  -2   8   71.00    8.38
  -1   3  -8   79.17    8.37
   1  -3   8   76.67    8.82
   3  -2  -8   75.41    8.27
  -1   3  -8   83.22    9.16
  -3   2  -8   62.27    8.15
   1  -3  -8   68.89    8.30
   1  -3   8   66.77    8.53
   3  -2  -8   87.92   10.03
   1  -3  -8   71.16    8.50
  -2  -1   8   63.95    8.93
  -1   3   8   82.13    9.32
   2   1   8   74.45    8.57
  -2  -1  -8   68.43    6.29
   1  -3  -8   81.46    8.25
  -3   2  -8   67.68    4.95
  -2  -1  -8   74.10    8.91
  -3   2  -8   61.12    4.69
   2   1   9 4930.57  162.37
  -1   3  -9 4871.27  160.27
   3  -2   9 4882.99  161.46
   1  -3   9 4860.19  161.08
  -2  -1  -9 5050.92  163.71
   3  -2  -9 4722.77  160.16
  -1   3  -9 4971.75  162.35
  -1   3   9 4827.75  161.17
   1  -3  -9 4648.26  160.48
  -3   2  -9 4854.25  160.80
   3  -2  -9 4757.20  163.22
  -2  -1   9 4853.79  162.57
  -1   3   9 5004.96  162.47
   2   1   9 4904.62  161.82
   1  -3  -9 4893.24  162.31
   3  -2   9 4894.43  161.89
  -2  -1  -9 4855.90  156.73
   1  -3  -9 4829.74  159.58
   3  -2  -9 4674.10  152.75
  -3   2  -9 4590.58  153.50
  -2  -1  -9 4759.48  161.41
  -2  -1 -10   52.85    9.20
  -3   2 -10   46.99    8.50
   2   1  10   47.72    8.51
   3  -2 -10   50.53    8.17
   1  -3  10   50.56    8.52
   1  -3 -10   51.58    8.77
  -1   3  10   59.21    9.23
  -1   3 -10   51.32    8.88
   3  -2  10   36.86    8.37
  -2  -1  10   47.62    9.21
   2   1  10   36.94    8.31
  -1   3 -10   34.92    8.28
   3  -2  10   37.62    8.50
  -2  -1 -10   50.75    9.07
  -1   3  10   58.34    9.85
   1  -3 -10   47.59    9.24
   3  -2 -10   66.78    4.18
  -3   2  10   50.66    7.95
  -2  -1 -10   53.46    6.46
  -2  -1 -10   37.79    2.84
  -2  -1 -11  352.44   22.78
  -1   3 -11  383.64   21.24
   3  -2 -11  347.63   20.48
   3  -2  11  341.64   21.07
   1  -3  11  340.79   21.13
  -3   2 -11  351.06   21.28
   1  -3 -11  364.66   21.14
  -1   3  11  334.33   21.16
  -1   3 -11  352.74   21.73
   2   1  11  343.55   21.64
   2   1  11  352.35   21.99
  -1   3  11  348.78   21.73
  -2  -1  11  359.32   22.37
   3  -2  11  388.89   22.44
   1  -3 -11  367.85   22.36
   2   1 -11  330.36   21.67
   3  -2 -11  349.12   13.67
  -2  -1 -11  341.12   17.74
  -3   2  11  305.25   19.63
   1  -3  11  383.84   16.48
  -2  -1 -11  400.28   22.35
  -1   3 -12  878.59   39.79
  -2  -1 -12  914.00   43.33
   3  -2 -12  960.68   40.80
  -3   2 -12  895.18   40.46
  -1   3 -12  897.46   41.86
   2   1  12  888.78   41.61
   1  -3  12  809.86   40.16
   1  -3 -12  889.08   40.38
  -1   3  12  912.90   41.61
   3  -2  12  860.50   40.70
   1  -3  12  912.27   34.24
  -2  -1 -12  896.52   36.78
  -3   2  12  897.32   39.33
  -2  -1  12  934.13   42.90
  -1   3  12  968.85   42.72
   2   1 -12  907.14   42.41
   1  -3 -12  980.12   42.83
   2   1  12  870.42   41.00
  -1   3 -13  329.92   23.64
  -1   3  13  371.62   23.98
   3  -2  13  372.20   24.09
  -2  -1 -13  364.05   25.09
   2   1  13  397.04   24.41
   1  -3  13  362.02   23.84
   1  -3 -13  365.47   24.44
   2   1 -13  420.66   25.61
   1  -3  13  390.87   17.74
  -3   2  13  392.39   22.32
  -2  -1 -13  398.88   20.35
  -1   3  14   42.61    9.97
   3  -2  14   36.43    9.79
   1  -3  14   23.52    8.48
   2   1  14   23.38    8.81
  -2  -1 -14   38.65   10.65
   1  -3 -14   28.26    9.30
   2   1 -14   43.65   10.16
   3  -2 -14   38.46    9.65
  -1   3 -14   47.84   10.56
  -3   2  14   34.97    8.59
   1  -3  14   23.80    4.96
   2   1  14   32.58    4.85
  -1   3  15 2132.24   84.16
   1  -3  15 2089.80   83.83
  -1   3 -15 2181.96   85.38
  -2  -1 -15 2175.84   86.48
   2   1  15 2228.88   84.60
   3  -2  15 2119.45   83.90
   2   1 -15 2236.25   86.07
   3  -2 -15 2137.28   86.16
   1  -3 -15 2186.42   85.77
   2   1  15 1972.63   71.88
   1  -3  15 2127.54   73.56
  -3   2  15 2271.75   80.82
  -2  -1  15 2100.52   78.30
  -1   3  16    5.76    7.90
   2   1  16   20.69    8.88
   3  -2  16    8.70    7.84
  -1   3 -16    4.62    8.68
  -2  -1 -16   17.84    9.02
   2   1 -16   28.16    9.94
   1  -3 -16   24.88    9.88
   3  -2 -16   16.27    9.05
   1  -3  16   11.42    4.60
  -3   2  16   12.32    6.25
  -2  -1  16    8.41    5.82
   2   1  16   11.71    3.94
   3  -2  17   30.93    9.64
  -1   3  17   44.76   10.92
   2   1  17   12.61    8.42
   3  -2 -17   37.71   11.03
  -2  -1 -17   24.11   10.24
   1  -3 -17   36.69   10.50
   2   1 -17   26.64   10.14
  -1   3 -17   21.45    9.58
  -3   2  17   29.36    7.87
  -2  -1  17   21.05    6.62
   1  -3  17   23.39    5.09
   2   1  17   24.36    4.43
   1  -3 -18  421.65   31.24
   2   1  18  500.99   32.55
  -1   3 -18  427.57   31.19
   3  -2  18  509.08   32.55
  -1   3  18  503.13   32.15
  -2  -1 -18  466.98   32.64
  -2  -1  18  509.33   26.82
  -3   2  18  502.04   27.44
   3  -2 -18  547.75   34.40
   2   1 -18  557.69   34.64
  -1   3  19   41.96   12.88
   2   1  19   81.20   14.18
   3  -2  19   47.03   12.10
  -2  -1  19   61.55    9.82
  -3   2  19   57.58    9.85
  -2  -1 -19   61.71   14.51
   2   1 -19   73.17   14.55
  -1   3 -19   61.51   14.14
   1  -3 -19   50.77   13.27
   3  -2 -19   57.14   13.90
   3  -2  20   -1.85    9.38
   2   1  20   16.74   10.63
  -1   3  20   35.12   11.87
  -2  -1  20   10.99    6.42
  -3   2  20   19.11    8.07
   2   1 -20    7.95    9.92
   3  -2 -20   -2.01    9.68
  -1   3 -20   19.95   11.69
   1  -3 -20   13.89   10.56
  -2  -1 -20   20.40   11.34
  -2  -1 -21  894.23   52.18
   2   1  21 1072.53   53.42
  -1   3  21  947.74   51.22
  -1   3 -21  877.55   51.54
   2   1 -21  923.33   52.33
   1  -3 -21  958.67   53.18
   3  -2  21  920.02   51.10
   3  -2 -21 1038.36   54.47
  -3   2  21  875.75   42.54
  -2  -1  21  966.83   42.31
  -3   2  22   62.85   10.96
   2  -3   0  155.49    7.74
  -3   1   0  147.11    8.08
   3  -1   0  151.85    8.32
   2  -3   0  147.54    8.86
  -2   3   0  150.80    7.29
   2  -3   0  159.87    8.19
   3  -1   0  138.75    8.23
  -2   3   0  155.77    8.14
   1   2   1    8.27    2.46
   1   2   1   11.49    2.27
   3  -1  -1   10.11    1.92
   3  -1  -1    7.46    2.83
  -3   1   1    8.46    2.90
   2  -3   1    5.58    2.15
   2  -3  -1   12.68    2.94
   2  -3  -1    8.69    3.12
  -3   1  -1    6.73    3.18
   3  -1   1    9.15    3.10
  -2   3  -1    8.22    2.59
  -1  -2  -1   14.13    3.57
   1   2  -1    7.11    2.19
   2  -3  -1    6.85    2.62
   1   2   2  460.21   17.53
  -2   3   2  455.07   16.79
  -2   3  -2  489.45   16.82
  -1  -2  -2  449.97   17.58
   2  -3   2  472.99   16.73
   2  -3  -2  460.51   16.79
   2  -3   2  455.86   18.72
  -1  -2  -2  463.45   18.30
   2  -3  -2  430.05   18.99
   1   2  -2  465.76   17.69
   2  -3  -2  473.62   19.13
   3  -1  -2  450.45   18.81
   2  -3  -2  445.59   19.58
   2  -3   2  478.62   16.25
   1   2  -2  461.50   16.95
   3  -1   2  462.16   19.03
   2  -3  -2  468.32   18.47
  -1  -2  -2  463.57   19.20
  -2   3  -2  447.77   18.06
   2  -3   3 2186.43   72.05
   2  -3  -3 2124.75   70.30
   2  -3   3 2160.37   70.22
  -2   3  -3 2147.61   72.21
  -2   3  -3 2167.34   70.18
  -2   3   3 2091.10   70.28
  -1  -2  -3 2187.13   71.19
   2  -3  -3 2150.85   72.63
   1   2   3 2120.38   70.92
  -1  -2   3 2120.06   71.29
   1   2  -3 2260.40   71.20
  -1  -2  -3 2164.24   71.23
   2  -3  -3 2175.41   72.61
   2  -3  -3 2166.50   72.61
   1   2  -3 1980.74   68.90
   1   2   3 2118.76   69.01
  -2   3  -3 2214.98   70.79
  -1  -2  -3 2076.30   72.25
   3  -1   3 2133.29   72.24
  -3   1  -4  485.50   21.06
   2  -3   4  430.68   19.14
  -2   3  -4  433.27   19.28
  -2   3   4  439.54   18.07
  -1  -2  -4  439.22   18.81
  -2   3  -4  431.21   17.93
   2  -3   4  439.84   18.00
   2  -3  -4  416.88   17.98
   2  -3  -4  443.04   19.91
   2  -3  -4  430.91   19.25
   1   2   4  423.94   18.35
  -1  -2   4  435.12   18.84
   1   2  -4  450.35   15.64
  -2   3   4  465.54   19.58
   3  -1   4  453.20   19.57
   3  -1   4  414.03   15.14
   1   2   4  428.46   15.66
  -1  -2  -4  445.81   19.63
   2  -3   5  240.24   13.39
  -2   3   5  243.94   12.80
  -1  -2  -5  257.68   13.54
   2  -3  -5  231.83   12.65
   3  -1   5  260.24   13.86
  -2   3  -5  220.31   12.41
  -2   3  -5  220.06   13.25
   2  -3   5  234.29   12.50
  -3   1  -5  273.65   15.14
   2  -3  -5  266.57   14.54
  -1  -2   5  242.19   13.45
   1   2   5  248.82   13.30
   2  -3  -5  253.55   11.14
   1   2  -5  239.81    9.35
  -2   3   5  270.87   13.81
  -1  -2  -5  234.83   13.61
  -1  -2  -6   76.82    7.66
   3  -1  -6   88.62    8.25
  -1  -2  -6   66.43    7.37
  -2   3  -6   84.33    8.06
   2  -3  -6   69.35    7.33
  -2   3  -6   77.68    7.41
  -2   3   6   74.29    7.10
   2  -3   6   70.31    7.12
  -3   1  -6   76.45    8.22
   3  -1   6   74.78    7.71
   2  -3   6   80.59    7.71
   2  -3  -6   77.85    8.05
   1   2   6   81.58    7.82
  -1  -2   6   86.20    8.25
  -2   3   6   73.90    8.29
  -2   3   6   89.56    7.82
   2  -3  -6   72.24    5.18
  -1  -2  -6   75.33    4.32
  -1  -2  -7   20.80    5.40
   2  -3   7   25.43    5.19
   3  -1   7   23.85    5.55
  -2   3   7   20.62    5.05
   2  -3  -7   21.23    5.12
  -2   3  -7   19.70    4.89
   1   2  -7   24.43    5.55
   3  -1  -7   20.16    5.30
  -2   3   7   22.41    5.81
  -3   1  -7   23.88    5.90
   2  -3   7   22.74    5.40
  -1  -2   7   22.67    5.71
   1   2  -7   18.25    5.00
  -1  -2  -7   21.23    5.17
   1   2   7   21.82    5.43
  -2   3  -7   23.90    5.54
  -2   3   7   24.61    4.87
  -1  -2  -7   20.29    4.09
   2  -3   7   27.95    2.25
  -3   1  -7   23.19    2.02
   2  -3  -7   24.87    3.16
  -1  -2  -7   25.40    2.56
  -2   3  -8  132.70   10.34
   1   2  -8  119.40   10.28
   3  -1  -8  135.87   10.84
   2  -3   8  113.64   10.17
  -3   1  -8  138.84   12.08
  -1  -2  -8  129.60   11.17
  -2   3   8  123.40   10.43
   2  -3  -8  123.50   10.06
  -2   3  -8  155.77   12.24
   3  -1   8  148.82   11.78
   2  -3   8  118.79   10.62
   1   2   8   95.57    9.93
  -2   3   8  115.85   10.85
   1   2  -8  118.91   10.76
  -1  -2   8  120.07   10.93
   2  -3   8  122.89    5.93
   1   2   8  125.09    7.70
  -1  -2  -8  141.39    9.33
  -2   3   8  132.84   10.30
   2  -3  -8  113.08    6.96
  -3   1  -8  127.94    7.39
  -1  -2  -8  116.04   10.39
  -1  -2  -8  121.84    6.05
  -3   1  -8  131.28   11.17
  -3   1  -8  121.21    5.44
  -2   3   9 1338.52   53.36
   2  -3   9 1254.11   52.48
   1   2  -9 1389.88   53.10
   2  -3  -9 1279.43   52.26
   3  -1  -9 1423.97   53.40
  -2   3  -9 1420.09   55.10
  -2   3  -9 1238.37   51.98
  -3   1  -9 1441.25   56.26
   3  -1   9 1412.56   54.43
  -1  -2  -9 1372.59   54.48
   1   2  -9 1337.76   54.07
  -2   3   9 1356.92   54.32
   2  -3   9 1404.09   53.94
  -3   1   9 1423.55   55.64
  -1  -2   9 1399.61   54.28
   2  -3   9 1361.23   45.75
  -3   1  -9 1409.27   47.86
  -2   3   9 1417.29   52.72
  -1  -2  -9 1399.39   50.35
   1   2   9 1320.23   47.76
   2  -3  -9 1343.23   46.99
  -3   1  -9 1446.00   44.96
  -3   1  -9 1368.80   53.29
  -1  -2  -9 1367.27   53.33
  -1  -2  -9 1333.83   45.68
  -2   3  10  282.92   18.52
   3  -1  10  332.51   19.93
  -2   3 -10  320.11   18.66
  -1  -2 -10  322.58   20.12
   2  -3  10  308.65   19.02
   1   2 -10  350.97   19.22
  -2   3 -10  279.71   19.19
  -3   1 -10  342.70   21.18
   3  -1 -10  319.66   18.75
   2  -3 -10  315.39   18.62
  -3   1  10  319.70   20.62
  -2   3  10  323.22   20.19
   2  -3  10  312.68   19.38
   1   2 -10  306.00   19.56
  -1  -2  10  343.06   20.53
   3  -1 -10  280.04   11.04
   2  -3  10  301.49   12.70
  -3   1 -10  336.71   14.97
  -1  -2 -10  311.60   16.74
   1   2  10  307.52   14.16
  -2   3  10  292.34   17.32
  -1  -2 -10  334.57   19.37
  -3   1 -10  310.52   18.82
  -3   1 -10  307.11   11.83
   3  -1  11   13.33    6.08
   2  -3 -11    0.88    5.49
   1   2 -11    6.28    5.19
  -2   3  11   -0.97    5.62
   3  -1 -11   -1.80    6.07
   2  -3  11   -3.82    6.19
  -3   1 -11    6.57    5.64
  -1  -2 -11    6.54    5.67
  -2   3 -11   -2.62    6.96
  -2   3 -11    2.22    5.83
  -1  -2 -11    5.34    5.51
  -3   1 -11    5.87    5.86
  -3   1  11    2.28    6.69
  -1  -2  11    9.41    5.73
  -2   3  11    7.54    6.47
   1   2 -11    9.28    5.05
   2  -3  11    3.96    6.22
   2  -3 -11    1.09    5.23
   2  -3  11    4.67    2.40
  -3   1 -11    5.14    3.57
  -1  -2 -11   10.06    4.65
  -2   3  11   -1.58    5.01
   1   2  11    0.76    3.13
   1   2 -12   84.87   10.52
  -2   3 -12   73.15   10.23
   2  -3 -12   95.16   11.43
  -2   3  12   86.60   11.17
   3  -1  12   91.10   11.30
   2  -3  12   73.68   11.17
  -1  -2 -12   98.92    9.47
  -2   3  12   74.31    9.43
   1   2  12   93.63    6.95
  -1  -2 -12   68.76   10.30
  -3   1 -12   90.23   11.77
   2  -3  12   87.51   10.97
   2  -3 -12   90.35   11.64
  -2   3 -12   71.33   10.89
  -2   3  12   83.29   11.80
   1   2 -12   94.67   12.15
  -1  -2  12   75.38   11.45
   3  -1  13   94.22   12.24
   2  -3  13   67.91   11.30
  -2   3  13  114.45   13.12
   1   2  13   98.11    7.31
  -2   3  13  106.98   10.80
  -3   1  13   98.78   10.77
  -1  -2 -13   93.24    9.75
  -1  -2 -13   96.08   12.98
   1   2 -13  104.19   12.82
  -2   3 -13  109.62   13.04
   2  -3 -13  114.44   13.30
  -3   1 -13   97.22   13.35
  -2   3  14  166.84   15.86
   3  -1  14  166.32   16.03
  -3   1 -14  167.04   17.36
  -2   3 -14  158.39   16.16
  -1  -2 -14  170.36   16.69
   2  -3  14  150.94   15.16
  -2   3  14  185.79   14.03
   1   2  14  148.99    9.48
  -3   1  14  178.84   14.46
   2  -3 -14  162.91   16.59
   1   2 -14  214.87   18.38
  -2   3 -15  520.59   31.62
   2  -3  15  461.70   29.54
  -2   3  15  465.82   30.14
   3  -1  15  562.31   31.01
  -3   1 -15  533.69   32.18
  -1  -2 -15  548.92   31.77
   1   2  15  437.80   20.65
  -3   1  15  498.68   27.00
  -2   3  15  511.54   26.76
  -1  -2  15  490.47   24.61
   2  -3 -15  477.60   30.50
   1   2 -15  504.69   31.18
  -2   3  16  100.81   14.09
   3  -1  16   79.33   12.79
   2  -3  16   78.05   12.81
  -3   1 -16   67.89   13.25
  -2   3 -16   98.63   13.81
   2  -3 -16   59.90   12.21
   1   2 -16  122.90   15.79
  -1  -2 -16   47.18   12.36
  -1  -2  16   79.81    9.51
   1   2  16   78.98    6.77
  -2   3  16   81.63   10.22
  -3   1  16   94.79   11.12
  -2   3  17   27.95    9.88
   2  -3  17   30.77   10.77
   3  -1  17   18.71    8.92
  -2   3 -17    3.38    8.30
  -1  -2 -17   20.13    9.47
   2  -3 -17   28.37   10.15
  -3   1 -17   19.23    9.59
   1   2 -17   18.13    8.79
  -3   1  17   26.50    7.37
  -1  -2  17   30.84    6.80
   1   2  17   20.29    4.27
   2  -3  17   16.44    1.64
  -2   3  18   -4.92   10.51
   3  -1  18    8.28    8.54
   2  -3  18   -9.76   11.17
  -1  -2  18    8.46    5.49
  -3   1  18    1.09    6.13
  -2   3 -18   12.55    9.10
  -1  -2 -18    5.36    9.36
  -3   1 -18   -9.23    9.67
   1   2 -18    1.76    8.79
   2  -3  19   12.03    9.55
  -2   3  19    1.73   10.62
   3  -1  19   -1.76    9.35
  -1  -2  19   -0.85    5.64
  -3   1  19    6.59    6.27
  -3   1 -19   -3.88    9.34
   2  -3 -19   -5.67   10.36
  -1  -2 -19    1.90   10.53
  -2   3 -19    3.82    9.84
   1   2 -19   -7.45    9.91
  -2   3  20   50.82   13.19
   3  -1  20   46.38   12.92
   2  -3  20   48.78   13.03
  -3   1  20   34.82    8.61
   2  -3 -20   48.06   13.69
  -1  -2 -20   40.47   12.78
  -3   1 -20   24.63   12.24
   1   2 -20   41.28   12.42
  -2   3 -20   50.30   13.24
   1   2 -21  331.89   29.23
   2  -3 -21  321.65   29.14
  -3   1 -21  336.78   30.33
   3  -1  21  307.42   27.90
  -1  -2 -21  335.17   29.92
  -2   3 -21  302.09   28.90
  -3   1  21  291.78   21.49
  -3   1  22  101.31   13.05
   0  -3   0   18.73    2.96
  -3   0   0   16.13    2.76
   3   0   0   19.63    2.99
   3  -3   0   13.90    3.88
  -3   3   0   10.39    3.88
   0   3   0   14.49    2.71
   0   3   0   17.01    3.11
   3  -3   0   13.15    1.93
   3   0   0   16.27    3.69
   0   3   0   14.79    2.74
   0   3   1  956.58   35.49
   0   3  -1  974.14   34.54
   0  -3  -1 1043.74   35.02
  -3   3  -1  928.22   37.02
  -3   3   1  990.62   36.94
   0   3  -1 1047.67   34.43
   3  -3   1 1001.92   37.74
   0   3   1 1025.66   34.73
   0  -3  -1  968.94   34.49
  -3   0  -1  989.27   34.68
   3  -3  -1  999.74   37.17
   3   0  -1  971.91   34.30
   3  -3   1 1013.72   33.46
  -3   3  -1 1015.47   33.42
   0   3   1 1029.40   35.15
   3   0   1 1070.04   36.91
   0  -3  -1  940.52   34.85
   0   3   1  992.22   34.87
   0   3  -2 2062.35   67.11
   0  -3  -2 2030.19   67.20
   3  -3   2 2080.41   67.65
   0   3   2 2037.19   67.13
   0   3   2 2151.51   69.89
   0  -3  -2 2054.55   69.61
   3  -3  -2 2070.46   69.54
   0  -3   2 1919.74   66.98
   0  -3   2 2186.28   67.95
   0   3  -2 2170.52   67.73
   3  -3  -2 2053.42   71.16
   0   3   2 1989.41   68.33
  -3   3  -2 2016.66   71.76
   0  -3  -2 2103.93   68.54
  -3   3  -2 2047.12   67.56
  -3   3  -2 2108.28   68.67
   0   3   2 2064.41   68.18
   0  -3  -2 2035.61   69.03
   3  -3   2 2078.59   68.62
   3   0   2 2145.43   70.72
   0   3   2 2128.50   69.30
   3  -3   3 2839.30   94.36
   3  -3   3 2784.44   91.50
   3  -3  -3 2819.38   91.59
   0  -3  -3 2737.68   91.47
   3  -3  -3 2716.87   93.27
   0   3  -3 2887.61   91.45
   0  -3  -3 2772.24   93.31
   0  -3   3 2803.16   90.69
   3  -3  -3 2870.37   94.92
  -3   3  -3 2814.75   91.53
   3   0   3 2798.98   94.18
   3  -3   3 2750.87   91.52
   0   3   3 2726.68   90.96
   0   3   3 2930.98   93.22
   0  -3  -3 2781.69   92.83
  -3   3  -3 2850.45   91.62
   0   3   4  906.83   34.30
   3  -3  -4  903.40   33.33
   3  -3   4  898.02   35.39
   3  -3   4  917.06   33.46
   0  -3  -4  929.00   34.74
   0   3  -4  952.52   33.60
   3  -3  -4  869.11   34.33
   0  -3  -4  917.59   33.65
   0  -3   4  948.13   31.42
   0   3   4  870.71   31.79
   3   0   4 1000.28   36.06
  -3   3  -4  875.87   33.23
   0  -3  -4  907.88   32.04
  -3   3  -4  920.03   32.49
   0  -3  -4  905.80   34.34
   3  -3   5 1466.74   52.71
   0   3  -5 1401.11   50.93
   3   0   5 1342.03   52.09
   0   3   5 1402.59   51.26
  -3   0  -5 1470.61   53.28
   3  -3   5 1423.12   50.53
   3  -3  -5 1385.67   50.21
  -3   3  -5 1463.10   50.62
   3  -3  -5 1474.48   53.48
   0  -3  -5 1359.42   51.16
   0  -3  -5 1385.70   50.88
   3  -3  -5 1429.88   51.52
   0   3  -5 1430.71   50.78
  -3   3   5 1517.96   52.88
   0   3   5 1380.74   48.72
   0  -3   5 1520.96   47.27
   0  -3  -5 1343.76   51.08
  -3   3  -5 1426.89   48.46
   0  -3  -5 1373.00   47.98
   3   0   5 1443.55   52.46
   0   3  -6  713.14   28.73
   3   0   6  687.03   29.65
   3   0   6  672.74   29.38
  -3   3  -6  664.47   27.77
   3  -3  -6  642.74   27.66
   3  -3   6  686.61   28.08
   3  -3   6  658.70   29.14
  -3   0  -6  701.39   30.38
   0   3   6  674.98   28.71
   0   3  -6  696.46   28.43
   3  -3  -6  740.80   30.94
   0  -3  -6  672.93   28.47
   0   3   6  660.86   25.59
   0  -3   6  695.32   23.74
  -3   3   6  761.71   30.13
   0  -3  -6  668.01   24.83
  -3   3  -6  645.21   25.16
   0  -3  -6  693.32   28.70
   3  -3  -7  980.63   38.40
   3   0   7 1019.05   40.28
   3   0   7 1018.37   40.47
  -3   0  -7 1082.99   41.85
   3  -3   7  982.19   38.73
   0   3  -7 1020.55   39.14
   0   3   7  987.92   39.39
   3  -3   7  974.54   39.80
  -3   3  -7  926.46   38.31
   0   3  -7 1015.82   39.39
   3  -3  -7 1036.91   41.54
   0  -3  -7  963.39   39.30
   0  -3   7 1031.09   33.20
   0   3   7  982.25   35.59
   0  -3  -7  961.52   37.55
  -3   3   7 1021.73   40.19
  -3   3  -7  907.87   35.03
   0  -3  -7 1010.95   39.32
   0  -3  -7  942.75   34.60
   3   0   8  914.89   37.71
   3  -3   8  911.25   36.38
   3   0   8  885.05   37.17
   0   3   8  891.93   36.86
  -3   0  -8  975.34   39.23
   3  -3  -8  848.50   35.47
   3   0  -8  958.85   37.41
   0   3  -8  847.58   35.95
  -3   3  -8  903.17   35.82
  -3   3   8  899.59   36.40
   3  -3   8  874.28   37.01
   3  -3  -8  887.22   38.09
   0   3  -8  900.77   36.75
   0  -3  -8  839.64   36.38
  -3   3   8  909.47   36.83
   0  -3   8  821.89   29.01
   0   3   8  868.74   31.98
   3  -3  -8  853.01   30.87
   0  -3  -8  862.45   34.45
  -3   3  -8  808.62   31.51
   0  -3  -8  939.77   36.77
   0  -3  -8  858.38   31.16
   3   0  -9 2889.69   99.25
  -3   0  -9 2893.19  101.72
   0   3   9 2780.55   99.46
   3  -3   9 2640.29   97.99
   3  -3  -9 2767.27   98.00
  -3   3  -9 2800.90  101.31
   0   3  -9 2815.80   98.14
   0  -3  -9 2692.05   98.31
  -3   3   9 2749.22   98.65
  -3   3  -9 2698.14   97.91
   3   0   9 2879.08  100.36
  -3   0   9 2876.43  101.42
   0   3  -9 2792.09   99.14
   0  -3  -9 2667.76   99.15
   3  -3   9 2741.11   99.16
  -3   3   9 2647.95  100.14
   3   0   9 2891.51  100.03
   3  -3  -9 2692.26   91.81
   0  -3   9 2940.80   89.72
  -3   0  -9 2864.13   93.88
  -3   3   9 2838.02   98.74
   0   3   9 2764.94   93.06
   0  -3  -9 2934.29   96.91
   0  -3  -9 2835.15   92.49
   0  -3 -10 1129.74   44.90
  -3   3 -10 1091.52   44.22
  -3   3 -10  998.65   46.13
   3   0 -10 1050.00   44.32
   3  -3 -10 1077.56   44.07
   3  -3  10  999.37   44.19
   0   3 -10 1113.28   44.33
   3   0  10 1059.72   45.65
   0   3  10 1085.79   45.34
  -3   0 -10 1189.71   48.08
  -3   3  10 1059.87   44.50
  -3   0 -10 1134.09   40.01
  -3   3  10 1080.84   44.40
   3  -3 -10 1013.40   37.26
   0  -3 -10 1175.05   43.22
   0   3  10 1011.90   38.59
   0   3 -10 1051.30   45.12
   0   3  10 1090.15   44.95
   0  -3  10 1073.94   45.04
   3   0  10 1086.64   45.29
   0  -3 -10 1084.68   45.78
  -3   0  10 1123.63   47.04
   3  -3  10 1093.24   45.16
  -3   3  10 1083.17   46.55
  -3   3  11  517.53   27.42
   0   3  11  541.48   27.89
   3  -3 -11  484.69   26.26
   3   0 -11  543.28   27.49
   3  -3  11  498.17   26.88
  -3   3 -11  527.81   26.80
  -3   0 -11  509.75   29.07
  -3   3 -11  507.37   28.96
   3   0  11  502.73   27.71
   0   3 -11  519.30   26.46
   0  -3 -11  515.63   26.94
   0  -3 -11  530.58   25.31
   3  -3 -11  524.32   20.26
   0   3  11  508.21   21.35
  -3   0 -11  560.65   23.28
  -3   3  11  541.28   26.72
   0  -3  11  524.15   27.73
  -3   3  11  521.47   29.01
   3   0  11  556.25   28.50
   3  -3  11  496.74   27.30
  -3   0  11  513.07   29.00
   0   3  11  621.52   29.04
   0   3 -11  524.25   28.06
   0  -3 -11  521.45   28.20
   0  -3 -12  268.62   18.54
   3   0  12  238.08   18.43
   3  -3  12  253.83   18.26
  -3   3 -12  243.37   19.35
  -3   3  12  251.74   18.27
   0   3 -12  264.83   17.98
   0   3  12  284.24   19.11
   3  -3 -12  251.25   17.87
  -3   3 -12  269.30   17.95
  -3   0 -12  239.13   19.44
   0   3  12  269.81   13.03
   0  -3 -12  258.01   16.66
  -3   0 -12  267.92   14.76
  -3   3  12  225.93   16.46
   0  -3 -12  268.75   19.35
   0   3  12  260.06   18.78
   0   3 -12  256.28   18.98
   0  -3  12  254.70   18.61
  -3   0 -13  408.73   27.34
   0   3 -13  413.50   25.98
  -3   3  13  416.85   25.57
   0   3  13  436.42   25.84
   0  -3 -13  476.88   27.50
  -3   3 -13  439.51   27.48
   3  -3  13  413.02   25.19
   3   0  13  447.52   26.63
  -3   3  13  411.70   23.43
  -3   0 -13  477.91   21.83
   0   3  13  411.46   18.36
   0  -3 -14  582.61   32.96
  -3   3 -14  570.36   33.58
   0   3  14  568.15   31.86
  -3   0 -14  568.06   33.84
   0   3 -14  546.80   32.01
   3   0  14  613.26   32.92
  -3   3  14  569.38   31.63
   3  -3  14  570.91   31.73
   3   0 -14  558.82   33.12
   3  -3 -14  580.36   33.57
  -3   3  14  524.07   28.54
   0  -3  14  555.97   25.62
   0   3  14  598.23   23.60
  -3   0 -14  656.26   27.55
  -3   0 -15 1023.24   47.49
   0  -3 -15 1024.55   46.36
   3   0  15 1022.05   45.62
   0   3 -15  969.14   45.19
  -3   3 -15  961.68   46.15
   3  -3  15  975.18   44.35
   0   3  15  994.97   44.88
   3   0 -15  968.44   46.04
   3  -3 -15  959.17   46.10
   0  -3  15 1023.40   36.94
  -3   3  15  948.18   40.49
  -3   0 -15  799.44   28.48
   0   3 -16  375.75   27.03
   0   3  16  419.22   27.26
  -3   3 -16  380.78   27.70
   3   0  16  351.07   25.56
   0  -3 -16  406.92   27.67
   3  -3  16  395.10   26.58
  -3   0 -16  407.98   28.78
   0  -3  16  373.05   19.84
  -3   0  16  387.25   23.32
  -3   3  16  415.32   23.73
   3   0 -16  436.63   28.81
   3  -3 -16  397.64   28.16
   3  -3  17  180.49   18.14
   3   0  17  162.05   18.11
   0   3 -17  170.70   18.31
  -3   3 -17  168.52   18.45
   0   3  17  146.29   17.06
   0  -3 -17  162.53   18.08
   3   0  17  164.23   10.08
   0  -3  17  167.15   12.15
  -3   0  17  178.77   15.67
  -3   3  17  163.51   14.60
   3  -3 -17  175.49   19.23
  -3   0 -17  142.73   18.40
   3   0 -17  196.30   20.05
   3  -3  18   75.78   14.20
   3   0  18   57.02   13.59
   0   3  18   51.23   12.67
  -3   3  18   68.41   10.48
   0  -3  18   64.11    8.14
  -3   0  18   60.16   10.45
  -3   0 -18   44.62   12.45
   3  -3 -18   51.06   13.75
   0  -3 -18   59.90   13.09
   3   0 -18   79.58   15.29
   0   3 -18   84.84   14.47
  -3   3 -18   49.51   12.63
  -3   3 -19  238.44   23.47
   3   0  19  212.26   21.74
   0  -3 -19  190.56   21.48
   0   3 -19  251.99   23.34
   3  -3  19  234.17   22.92
  -3   0 -19  249.41   23.75
   0   3  19  223.79   21.94
  -3   3  19  241.52   18.00
  -3   0  19  236.49   18.43
   3  -3 -19  225.74   23.08
   3   0 -19  218.17   22.17
   3   0  20  250.39   23.72
   0   3 -20  225.29   23.57
   3  -3  20  162.39   20.31
  -3   0 -20  194.19   22.84
   0  -3 -20  245.97   23.98
   0   3  20  193.84   21.44
  -3   3  20  199.53   16.88
  -3   0  20  191.33   16.76
  -3   3 -20  196.06   22.44
   3   0 -20  160.08   20.57
   3  -3 -20  203.94   22.29
   0   3 -21  715.68   42.90
   0  -3 -21  613.60   41.51
   0   3  21  668.66   41.27
  -3   0 -21  684.23   43.47
  -3   3 -21  607.63   41.50
   3  -3  21  608.29   39.63
   3  -3 -21  675.41   43.06
   3   0 -21  616.39   41.66
  -3   0  21  663.62   33.93
  -3   0  22  230.10   18.91
  -4   3   0 5961.66  201.24
  -1   4   0 6245.19  199.49
   1  -4   0 6194.91  199.89
   4  -3   0 6097.80  198.12
  -1   4   0 6379.03  197.53
   3   1   0 6368.50  201.48
   1  -4   1   29.94    2.66
  -4   3   1   21.01    3.70
  -1   4   1   37.20    4.85
   1  -4  -1   24.45    2.76
  -4   3   1   27.31    4.91
  -1   4  -1   29.79    4.51
   3   1  -1   24.02    2.54
  -3  -1  -1   29.70    2.92
  -4   3  -1   25.84    4.93
  -1   4   1   24.62    4.13
   1  -4  -1   25.54    4.17
  -1   4   1   24.15    3.31
   4  -3   1   29.32    3.55
   1  -4  -1   26.46    3.15
   1  -4  -1   28.81    3.77
  -1   4  -1   25.04    3.82
   3   1   1   28.44    4.54
   1  -4   2 1448.62   47.94
  -3  -1  -2 1478.44   47.60
   1  -4  -2 1387.20   48.01
  -4   3   2 1413.28   50.08
  -1   4   2 1448.56   51.42
   1  -4  -2 1356.98   50.45
  -4   3  -2 1360.53   52.48
   1  -4   2 1556.91   49.29
   1  -4  -2 1524.13   49.87
  -1   4  -2 1382.26   50.95
   1  -4  -2 1370.77   48.68
   4  -3   2 1426.86   49.34
  -1   4   2 1447.05   48.87
  -1   4   2 1417.37   49.57
   1  -4  -2 1392.40   49.81
   4  -3   2 1504.51   49.59
  -3  -1  -2 1525.74   52.67
   3   1   2 1450.53   51.86
  -4   3  -2 1407.67   49.21
  -1   4  -3  144.36    8.01
  -1   4   3  150.43    8.56
   3   1   3  166.33   10.19
   4  -3  -3  141.67    8.98
   1  -4   3  143.39    8.01
  -1   4   3  135.84    9.54
   1  -4   3  142.19    7.79
   1  -4  -3  138.25    8.31
   4  -3   3  149.55    8.06
   1  -4  -3  144.83    8.49
   4  -3   3  149.48    8.91
  -3  -1  -3  155.43   10.58
  -1   4   3  142.39    8.43
  -4   3  -3  143.04    8.66
   3   1   3  156.23   10.48
   1  -4  -3  126.80    8.22
  -1   4  -4 1831.61   61.96
   4  -3   4 1806.58   62.66
  -1   4   4 1793.35   62.18
   3   1   4 1825.93   63.88
  -1   4  -4 1837.23   61.86
   4  -3   4 1864.08   65.38
  -1   4   4 1796.10   62.52
   1  -4   4 1840.12   61.96
   3   1  -4 1826.68   64.41
   4  -3  -4 1691.61   62.56
   1  -4  -4 1736.31   62.42
   1  -4   4 1864.97   60.60
   1  -4  -4 1780.89   61.44
   4  -3   4 1812.46   60.61
  -3  -1  -4 1804.78   64.93
   3   1   4 1852.03   65.03
   1  -4  -4 1782.86   62.25
   1  -4  -4 1839.35   61.61
  -4   3  -4 1808.93   62.47
   4  -3  -5  357.02   17.61
  -1   4   5  361.44   17.59
   4  -3   5  352.92   17.66
  -1   4  -5  390.85   17.74
   4  -3   5  377.43   19.54
  -1   4  -5  371.83   17.25
  -3  -1  -5  419.72   20.01
   3   1   5  408.22   19.27
  -1   4   5  368.67   18.10
   1  -4   5  386.81   17.75
   4  -3  -5  386.27   18.24
   3   1  -5  392.09   19.78
   1  -4  -5  385.67   17.75
  -1   4   5  345.97   15.91
   1  -4  -5  373.89   16.36
  -3  -1  -5  370.57   19.27
  -4   3  -5  353.06   15.32
   3   1   5  388.32   19.51
   1  -4  -5  386.79   17.93
   1  -4  -5  349.68   16.02
  -4   3  -5  389.39   17.98
   4  -3   5  382.61   15.57
  -1   4  -6 7329.72  226.82
   3   1   6 7262.02  227.66
  -3  -1  -6 6948.21  228.45
   4  -3   6 6925.98  226.53
   4  -3   6 7124.48  228.79
  -1   4   6 7094.71  226.44
  -1   4  -6 6991.55  225.55
   4  -3  -6 6845.01  226.23
   4  -3  -6 6928.06  230.24
  -1   4   6 6958.76  226.65
   1  -4   6 7161.28  226.38
   3   1  -6 7505.88  229.05
   1  -4  -6 6775.72  226.21
   1  -4  -6 6728.16  225.60
   1  -4  -6 6795.64  223.67
  -1   4   6 6811.15  223.30
  -3  -1  -6 7048.66  228.58
  -4   3  -6 7126.64  226.40
  -4   3  -6 6838.84  222.39
   3   1   6 7345.69  228.92
   1  -4  -6 6913.60  223.61
   1  -4  -6 6903.64  225.96
   3   1   7  268.85   16.35
   3   1   7  276.13   16.00
   4  -3  -7  250.14   14.82
  -3  -1  -7  250.56   16.09
  -1   4  -7  238.15   14.86
  -1   4  -7  293.78   15.43
   4  -3   7  262.68   15.32
   4  -3   7  245.47   16.28
  -1   4   7  267.63   15.46
  -1   4   7  263.83   15.61
   3   1  -7  275.97   16.77
   4  -3  -7  239.19   16.62
   1  -4  -7  263.97   15.67
  -4   3  -7  232.53    9.58
  -1   4   7  241.11   12.34
   1  -4  -7  243.15   12.48
  -4   3  -7  265.80   15.22
  -3  -1  -7  276.66   16.53
   1  -4  -7  259.25   12.75
  -4   3  -7  278.91   11.90
   1  -4  -7  258.58   15.09
   3   1   8 1636.48   64.54
  -1   4  -8 1747.74   62.96
  -3  -1  -8 1671.89   65.33
   4  -3  -8 1707.87   62.93
   4  -3   8 1654.30   63.30
   4  -3   8 1796.99   65.28
   1  -4  -8 1707.73   62.86
  -1   4  -8 1829.05   64.41
  -1   4   8 1766.38   63.84
  -1   4   8 1745.31   63.83
   3   1   8 1794.82   64.46
   1  -4  -8 1614.01   63.47
   4  -3  -8 1748.47   66.54
   3   1  -8 1779.11   65.26
  -1   4   8 1682.77   58.96
  -4   3  -8 1677.45   55.95
  -4   3  -8 1639.97   57.67
  -3  -1  -8 1910.82   65.62
   1  -4  -8 1773.10   59.64
  -4   3  -8 1711.88   63.03
   3   1  -9  103.28   10.69
   1  -4  -9   83.60    9.89
  -1   4  -9   91.31   10.12
   4  -3   9   93.77   10.90
  -1   4  -9   95.13    9.73
   4  -3   9  105.86   10.38
  -1   4   9  111.38   10.83
  -3  -1  -9  100.64   11.59
   4  -3  -9  106.29   10.32
   3   1   9  116.27   11.79
   3   1   9  117.92   11.18
  -1   4   9  127.35   12.11
   4  -3  -9  105.48   11.88
   1  -4  -9  101.65   10.82
   3   1  -9  108.20    4.64
   1  -4   9   93.01    5.77
   1  -4  -9   86.79    9.62
  -4   3  -9  105.61   10.75
  -4   3  -9   93.80    6.48
  -3  -1  -9  125.36   12.15
   1  -4  -9   91.48    7.32
  -1   4  10 1408.07   57.28
   3   1  10 1420.02   58.50
   4  -3  10 1406.34   57.32
  -1   4 -10 1539.03   56.81
   4  -3  10 1484.97   58.60
  -3  -1 -10 1555.47   60.69
   4  -3 -10 1450.04   56.61
   1  -4 -10 1398.30   56.52
  -1   4 -10 1526.94   58.75
  -3  -1  10 1493.23   59.46
   3   1  10 1441.13   57.81
   1  -4 -10 1393.51   57.84
  -1   4  10 1511.96   58.46
   4  -3 -10 1567.38   60.77
  -4   3  10 1398.54   57.28
   1  -4  10 1505.62   48.76
  -3  -1 -10 1483.36   53.16
   4  -3 -10 1411.06   49.71
   1  -4 -10 1478.96   56.03
  -4   3 -10 1432.39   56.84
   1  -4 -10 1482.96   52.17
  -4   3 -10 1424.65   50.20
  -3  -1 -10 1584.14   59.17
   4  -3  11    9.00    5.73
  -3  -1 -11   18.37    7.33
  -4   3 -11   14.86    6.57
   4  -3 -11   23.38    6.83
  -1   4  11   13.74    5.91
   3   1  11   15.37    6.99
  -1   4 -11   18.36    6.60
   1  -4 -11   14.70    6.27
   4  -3  11   16.74    7.00
   1  -4 -11   12.69    6.51
  -1   4  11   13.47    6.87
  -3  -1  11   25.41    8.57
  -3  -1 -11   11.99    6.86
  -1   4 -11   17.67    6.96
   3   1  11   18.98    6.81
  -4   3  11    3.82    5.33
   1  -4 -11   13.46    6.15
   1  -4  11   12.12    2.27
  -3  -1 -11    9.86    4.52
   4  -3 -11   16.90    2.89
  -4   3 -11   20.44    3.63
  -1   4 -12 2571.64   90.56
  -3  -1 -12 2476.37   94.48
  -1   4 -12 2471.29   92.36
   4  -3  12 2326.88   91.06
   3   1  12 2515.09   93.31
   1  -4 -12 2491.04   90.94
  -4   3 -12 2408.45   90.72
  -1   4  12 2400.79   91.37
   1  -4 -12 2358.73   92.00
  -1   4  12 2489.53   92.50
  -4   3  12 2319.98   89.99
  -3  -1 -12 2583.62   86.22
   4  -3 -12 2364.95   80.92
   1  -4  12 2599.51   79.61
  -4   3 -12 2412.56   82.01
  -1   4  13   29.30    9.18
   4  -3  13   42.31    9.64
   3   1  13   62.66   10.68
  -3  -1 -13   43.16   10.07
   3   1 -13   25.00    9.37
  -1   4 -13   48.28   10.78
   1  -4 -13   43.91    9.74
   1  -4  13   48.48    5.69
  -4   3  13   44.25    9.43
  -3  -1 -13   52.08    7.42
   1  -4  13   45.92    2.85
   4  -3 -13   38.06    3.89
  -4   3 -13   32.53    4.49
  -1   4 -14  692.51   36.76
   3   1  14  703.43   37.12
   4  -3  14  648.68   35.87
  -3  -1 -14  683.27   38.41
  -1   4  14  723.81   36.77
   3   1 -14  723.86   38.46
   1  -4 -14  660.67   36.59
  -3  -1 -14  730.91   31.55
   1  -4  14  686.50   28.27
  -4   3  14  677.12   34.37
  -4   3 -14  728.54   26.96
  -3  -1 -15  194.78   18.90
   3   1  15  164.75   17.16
  -1   4 -15  167.77   17.40
  -1   4  15  186.18   17.97
   4  -3  15  152.39   16.94
   3   1 -15  173.18   18.46
   1  -4 -15  150.55   17.56
  -4   3  15  189.52   15.94
   1  -4  15  178.82   11.14
  -3  -1 -15  167.29   13.69
  -4   3 -15  159.94    9.72
  -3  -1 -16  709.69   40.22
  -1   4 -16  740.10   39.51
  -1   4  16  642.96   36.83
   4  -3  16  706.51   37.89
   3   1  16  688.58   38.26
   3   1 -16  688.71   39.02
   4  -3 -16  659.55   38.90
   1  -4 -16  686.26   38.67
   1  -4  16  694.73   28.39
  -4   3  16  702.64   34.96
   3   1  16  691.50   28.06
   3   1  17   70.97   13.23
  -1   4  17  103.93   14.49
   4  -3  17  102.75   14.89
   4  -3 -17   99.36   14.68
   3   1 -17  100.88   15.68
   1  -4 -17  109.42   15.36
  -3  -1 -17  107.17   16.36
  -1   4 -17   95.90   15.18
  -3  -1  17   78.16   11.52
  -4   3  17   99.64   12.31
   1  -4  17   89.96    8.16
   3   1  17   70.42    7.43
   4  -3  18 1360.58   62.53
   3   1  18 1413.53   63.47
  -1   4  18 1427.69   63.07
  -1   4 -18 1403.63   64.55
  -3  -1 -18 1285.88   64.48
   1  -4 -18 1380.69   64.51
  -4   3  18 1305.34   57.25
  -3  -1  18 1431.86   57.77
   3   1 -18 1329.00   63.76
   4  -3 -18 1401.95   65.29
   3   1  19   37.87   11.40
   4  -3  19   47.17   12.81
  -1   4  19   43.72   12.40
  -3  -1  19   55.29   10.09
  -4   3  19   40.10    9.64
   1  -4 -19   43.40   12.42
  -1   4 -19   56.60   14.47
   3   1 -19   39.60   12.04
   4  -3 -19   27.33   11.51
  -3  -1 -19   27.81   12.41
  -1   4  20  383.90   29.77
   4  -3  20  403.47   30.28
  -3  -1 -20  364.08   31.29
   1  -4 -20  424.97   31.81
   3   1  20  382.28   29.87
  -1   4 -20  368.60   30.29
  -3  -1  20  408.77   25.03
  -4   3  20  443.27   26.42
   3   1 -20  373.38   30.93
   4  -3 -20  375.28   31.00
   4  -3  21   23.41   12.41
  -1   4  21   29.14   12.74
   1  -4 -21    8.34   11.77
  -1   4 -21   18.78   12.24
  -4   3  21   21.30    9.01
  -3  -1  21   24.58    8.83
  -4   3  22  381.69   25.43
  -4   2   0    9.64    3.77
  -2   4   0    6.20    3.51
   2  -4   0    6.57    2.58
   4  -2   0   10.81    3.62
   2  -4   0    3.65    2.84
   4  -2   0    6.71    3.23
   2  -4   0    6.97    2.57
  -2   4   0    2.06    2.58
  -2   4   1  223.15    8.31
   2   2   1  214.75    9.61
  -4   2   1  235.42   10.06
  -2   4   1  212.94   11.60
  -4   2   1  230.75   11.94
   2  -4  -1  215.16   11.80
   2  -4   1  193.93    9.30
  -4   2  -1  216.50   11.98
   2  -4  -1  206.84   10.38
  -2   4  -1  200.52   11.69
  -2   4   1  215.76   11.65
   4  -2  -1  186.34   11.29
   2  -4  -1  214.32   10.93
   2  -4  -1  206.98    8.12
   4  -2   1  204.29   10.85
  -2   4  -1  221.58   11.14
   2   2   2  183.40    9.66
   2  -4   2  175.62    9.55
  -2   4  -2  187.21    8.10
  -2   4   2  187.67    8.38
  -2   4   2  186.94   11.09
  -2  -2  -2  201.32    9.38
   4  -2  -2  188.19    9.15
  -2   4  -2  178.92   11.54
   2  -4  -2  182.19   10.94
   4  -2  -2  199.10   11.36
   2  -4  -2  192.37   10.11
  -4   2  -2  197.12   11.92
   2  -4  -2  180.38    8.22
  -4   2  -2  193.28   10.59
  -2   4  -2  170.00    9.71
   4  -2   2  182.12   10.28
  -2  -2  -2  179.36   11.19
   2  -4  -2  190.48   10.06
   2   2   3 2182.83   78.97
  -2   4   3 2309.50   77.83
  -2   4  -3 2422.11   77.62
   2  -4   3 2333.88   79.16
   4  -2  -3 2332.81   78.44
  -2  -2  -3 2468.80   78.74
  -2   4   3 2413.46   81.21
   2   2  -3 2440.51   79.81
   2  -4  -3 2376.32   80.98
   2  -4  -3 2367.02   79.89
   2  -4  -3 2355.58   79.80
   2  -4  -3 2432.70   81.41
   2  -4  -3 2423.08   78.76
   4  -2  -3 2388.47   81.22
   2  -4  -3 2251.35   77.64
   2  -4  -3 2436.08   79.50
  -4   2  -3 2373.99   80.22
  -2   4  -3 2391.62   79.29
   4  -2   3 2393.96   80.24
  -2  -2  -3 2371.42   81.26
  -2   4  -4 1092.62   38.19
   2   2   4 1064.44   39.31
  -2  -2  -4 1040.03   39.74
  -2   4   4 1053.54   38.33
  -2   4  -4 1076.91   39.68
   2  -4   4 1059.09   39.33
   4  -2   4 1113.30   42.02
   2  -4  -4 1037.31   38.19
   2  -4  -4 1050.35   39.99
   2  -4  -4 1078.66   40.73
   2   2  -4 1115.77   40.25
   2  -4  -4 1039.02   39.92
   2  -4  -4 1080.77   38.10
   4  -2   4 1085.11   40.22
  -4   2  -4 1080.13   40.23
  -2  -2  -4 1095.24   41.29
   2  -4  -4 1126.62   39.35
   4  -2   4 1063.59   36.55
  -2   4  -5  978.25   36.64
   2   2   5 1041.22   38.29
   2  -4  -5 1019.53   37.03
  -2  -2  -5 1041.90   38.76
  -2   4   5  951.36   36.82
   4  -2   5 1029.79   40.28
   4  -2   5 1018.11   38.72
   2  -4   5  996.77   38.01
  -2   4  -5 1015.52   38.24
   2  -4  -5  979.21   38.82
   2  -4  -5  978.47   38.33
   2   2  -5 1106.49   39.08
   2  -4  -5  990.94   38.39
   2   2  -5  971.97   33.86
  -2   4   5 1017.63   38.12
   2  -4  -5 1037.21   36.01
  -2  -2  -5 1037.48   39.67
  -4   2  -5 1023.36   38.59
   2   2   5  955.29   33.18
   2  -4  -5 1020.93   36.84
   4  -2   5  963.92   33.90
  -2   4  -6  119.00    8.92
  -2   4  -6  122.81    9.72
   2  -4  -6  104.34    8.49
  -2  -2  -6  123.16    9.93
  -2   4   6  112.62    8.88
  -4   2  -6  120.86   11.13
   4  -2   6  101.67    9.16
   4  -2   6  108.76   10.07
   2  -4   6  109.30    8.58
  -2   4   6  112.76   10.06
   2  -4   6  117.08    9.26
   2   2   6  125.71    9.57
  -2  -2   6  125.23   10.25
   4  -2  -6  115.95   11.06
   2  -4  -6  124.66    9.90
   2  -4  -6  130.85    9.89
  -2   4   6  127.83    9.34
   2   2  -6  119.58    5.83
   2  -4  -6  116.83    7.56
  -4   2  -6  101.03    9.48
  -2  -2  -6  123.91   10.30
   4  -2  -7  594.73   26.85
  -4   2  -7  609.92   29.32
   4  -2   7  586.75   27.16
  -2   4  -7  588.26   25.76
   2  -4   7  585.96   26.00
  -2   4  -7  580.81   27.06
   4  -2   7  583.27   28.09
   2  -4  -7  596.02   25.99
  -2   4   7  607.31   26.39
  -2  -2  -7  626.87   27.79
   2  -4  -7  613.80   27.30
   4  -2  -7  603.04   29.11
   2  -4   7  581.10   26.45
   2   2   7  590.74   26.64
  -2  -2   7  649.35   28.15
  -2   4   7  597.21   27.75
   2   2  -7  578.76   20.55
   2  -4  -7  570.56   23.20
  -2   4   7  642.69   26.71
  -4   2  -7  578.48   26.93
  -2  -2  -7  614.80   27.93
   4  -2  -8  660.46   29.31
  -2   4   8  620.18   28.63
   2  -4  -8  613.65   28.37
   2  -4   8  614.70   28.39
   4  -2   8  603.25   29.21
  -2   4  -8  619.37   27.94
  -2   4  -8  644.15   29.88
  -4   2  -8  626.06   31.39
  -2  -2  -8  643.46   30.25
   4  -2   8  622.43   29.97
  -2  -2   8  712.09   30.95
   2  -4   8  642.06   29.15
   2   2   8  667.20   29.55
  -2   4   8  680.21   30.35
   4  -2  -8  660.16   31.53
   2  -4  -8  654.78   25.21
  -2   4   8  675.06   28.83
  -2  -2  -8  638.21   29.99
  -4   2  -8  637.55   29.39
   4  -2   9 1508.07   58.40
  -2  -2  -9 1494.94   58.76
   2  -4  -9 1469.78   56.27
   4  -2   9 1408.75   57.42
  -2   4  -9 1493.76   58.36
  -2   4  -9 1521.47   56.14
  -2   4   9 1464.59   56.60
  -4   2  -9 1508.77   60.18
   2  -4   9 1479.52   56.63
   4  -2  -9 1514.43   56.95
  -2  -2   9 1542.19   58.80
   2  -4   9 1423.95   56.85
   4  -2  -9 1457.57   59.38
  -2   4   9 1530.18   58.34
   2   2   9 1482.19   57.22
  -4   2  -9 1464.60   50.27
  -2   4   9 1520.56   56.09
  -2  -2  -9 1555.89   54.00
   2  -4  -9 1487.12   51.64
   2  -4   9 1519.24   49.45
  -4   2  -9 1531.37   57.44
  -4   2  -9 1379.44   48.95
  -2  -2  -9 1566.00   58.22
   4  -2  10  323.26   20.22
  -2   4 -10  326.77   20.30
   2  -4 -10  314.00   18.98
   4  -2 -10  333.92   19.40
  -2   4 -10  330.29   18.98
   4  -2  10  319.54   19.92
  -4   2 -10  323.50   21.39
   2  -4  10  282.58   18.54
  -2   4  10  329.06   19.88
  -2  -2 -10  315.24   20.62
  -2   4  10  333.73   20.52
   2   2  10  329.08   19.94
  -2  -2  10  304.34   20.02
   2  -4 -10  322.44   20.24
   4  -2 -10  329.61   21.28
   2   2 -10  316.35   20.24
   2  -4  10  278.03   18.57
   2  -4  10  311.55   13.09
  -2   4  10  326.44   18.45
  -4   2 -10  320.09   14.29
  -2  -2 -10  332.33   16.98
  -4   2 -10  329.53   19.84
  -4   2 -10  307.60   12.52
  -2  -2 -10  327.01   20.13
   4  -2  11  115.83   12.47
  -2   4 -11  119.72   11.72
  -2  -2 -11  131.05   13.54
  -2   4 -11  120.19   12.78
   2  -4 -11  121.74   12.22
  -4   2 -11  140.62   14.57
   2   2 -11  119.05   12.07
   4  -2 -11  135.38   12.44
   2  -4  11  104.73   11.36
  -2   4  11  133.72   12.46
   2   2 -11  145.65   13.82
   2  -4 -11  157.75   14.09
   2  -4  11  114.30   12.69
  -2   4  11  145.55   14.31
   4  -2  11  128.36   13.12
  -2  -2  11  125.90   13.63
   2   2  11  132.06   12.83
   2  -4  11  116.98    7.06
  -2   4  11  149.08   11.77
  -2  -2 -11  157.76   11.13
  -4   2 -11  126.55    8.53
   4  -2 -11  129.60    6.48
  -4   2 -11  130.09    6.64
  -2  -2 -11  125.99   12.90
  -4   2 -11  139.73   13.19
  -2   4  12   29.93    8.25
  -2   4 -12   40.56    8.46
   4  -2  12   39.74    8.49
   2  -4 -12   31.35    8.82
   2  -4  12   25.40    7.55
  -2  -2 -12   40.90    8.89
  -4   2 -12   37.95    9.21
  -2   4  12   26.96    8.83
  -2  -2  12   51.23   10.36
  -2   4 -12   38.40    9.03
   2  -4 -12   29.84    8.05
   2   2 -12   29.42    8.02
   2  -4  12   44.34    4.30
  -2  -2 -12   42.39    7.17
   4  -2 -12   38.31    3.13
   2   2  12   37.06    5.48
  -4   2 -12   33.55    3.45
   2  -4  13  255.16   19.37
  -2   4  13  277.13   20.27
  -4   2 -13  319.83   23.17
   4  -2  13  339.37   22.05
  -2   4 -13  287.82   21.22
  -2  -2 -13  287.84   21.72
   2   2 -13  306.24   21.81
   2  -4 -13  265.39   20.77
   2   2  13  290.83   14.54
   2  -4  13  306.44   13.07
  -2  -2 -13  315.05   17.89
  -4   2  13  319.88   20.03
  -4   2 -13  298.62   12.00
  -2  -2 -13  256.38   10.33
  -2   4  14  255.41   20.03
  -2  -2 -14  278.94   21.85
   4  -2  14  262.06   20.31
  -4   2 -14  280.58   22.44
   2  -4  14  272.09   20.51
  -2   4 -14  264.82   21.00
   2  -4 -14  291.94   21.64
   2   2 -14  263.53   20.64
   2   2  14  267.73   14.01
  -4   2  14  252.19   18.52
   2  -4  14  269.97   12.37
  -2  -2 -14  235.06    9.56
  -4   2 -14  275.68   11.28
  -2   4  15  657.82   35.40
  -2   4 -15  664.85   36.48
  -2  -2 -15  706.12   37.69
   4  -2  15  662.40   35.36
  -4   2 -15  663.35   38.18
   2  -4  15  670.16   35.34
   2   2 -15  705.10   37.38
   2  -4 -15  660.55   36.40
  -4   2  15  714.46   33.92
   2   2  15  664.87   26.37
  -4   2 -15  681.22   23.47
  -2  -2 -15  578.82   21.44
  -2  -2 -16  221.42   20.64
  -4   2 -16  241.95   22.34
  -2   4 -16  272.23   22.36
   2  -4  16  225.24   20.32
   4  -2  16  237.59   20.74
  -2   4  16  262.64   21.17
  -4   2  16  240.21   18.19
   2   2  16  226.28   12.80
   2  -4  16  224.07    8.56
   2   2 -16  233.83   20.95
   2  -4 -16  250.86   21.42
   4  -2 -16  277.74   22.74
   4  -2  17  106.48   14.77
  -2   4  17  125.84   15.81
  -4   2  17  119.35   13.58
   2   2  17  121.20    8.77
  -2  -2  17   79.20   11.01
  -2  -2 -17  125.59   16.99
  -2   4 -17   98.31   15.29
   2  -4 -17   96.24   14.66
   4  -2 -17  132.26   16.04
  -4   2 -17   97.27   15.78
   2   2 -17  136.70   17.40
   4  -2  18    3.33    8.32
  -2   4  18   -8.27   11.96
  -2  -2  18    1.00    6.48
  -4   2  18   -8.46    7.99
   2  -4 -18    1.79    9.53
   2   2 -18   12.39   10.24
  -4   2 -18   -1.93   10.57
  -2  -2 -18    5.56   10.00
  -2   4 -18   -7.22    9.89
   4  -2 -18    1.86    8.27
  -2   4  19   88.90   15.04
   4  -2  19  114.69   16.64
  -4   2  19  125.39   14.30
  -2  -2  19  119.17   12.69
   2  -4 -19   83.69   15.48
   4  -2 -19  118.53   17.17
  -2  -2 -19   76.26   14.93
   2   2 -19  120.32   17.52
  -2   4 -19   72.46   14.69
  -4   2 -19   84.98   16.95
   4  -2  20  106.18   16.57
  -2   4  20  118.51   17.08
  -2  -2  20  103.91   12.07
  -4   2  20   97.73   12.82
   2   2 -20   93.68   16.28
  -2  -2 -20   78.05   15.99
   4  -2 -20  102.25   17.01
  -2   4 -20   64.29   15.43
  -4   2 -20  112.26   17.60
   2  -4 -20  125.07   18.57
  -2  -2 -21  376.68   31.99
   2  -4 -21  349.75   30.52
   2   2 -21  376.70   31.65
  -2   4  21  421.41   31.24
  -2   4 -21  357.21   31.28
  -4   2  21  439.14   26.35
  -4   2  22  140.82   15.76
  -4   1   0  176.95   10.82
   3  -4   0  183.01   12.10
   4  -1   0  183.83   11.43
   1   3   0  168.93   11.03
   4  -1   0  208.37   12.23
   1   3   1   37.15    2.99
   1   3   1   30.42    4.12
   1   3  -1   36.05    3.06
  -1  -3  -1   32.37    2.96
   1   3   1   37.59    3.99
   1   3  -1   36.09    3.05
  -4   1  -1   42.44    5.02
   4  -1  -1   33.66    4.51
  -4   1   1   34.49    4.47
   3  -4  -1   32.02    5.24
   3  -4   1   41.88    5.90
  -3   4  -1   37.98    3.50
   1   3  -1   29.94    3.62
  -3   4  -1   42.87    4.63
   1   3   1   30.68    4.40
   3  -4  -1   41.70    4.64
   4  -1   1   27.23    4.39
   3  -4  -2  319.08   12.57
   3  -4   2  334.22   12.54
   1   3   2  324.53   13.20
   1   3   2  334.80   15.00
   4  -1  -2  325.37   12.70
   1   3  -2  352.00   13.39
  -3   4   2  332.23   15.46
   1   3  -2  326.30   13.55
  -4   1  -2  319.14   15.96
   3  -4  -2  297.66   16.25
   1   3   2  333.38   14.44
   4  -1  -2  294.87   14.99
   4  -1   2  351.04   16.16
  -3   4  -2  317.62   12.34
  -3   4  -2  331.87   14.73
   1   3   2  301.55   15.15
   3  -4  -2  341.77   15.40
  -1  -3  -2  313.50   15.67
  -4   1  -2  373.82   16.95
   3  -4   3  367.69   14.80
   3  -4  -3  353.80   14.88
   3  -4   3  375.89   17.48
  -1  -3  -3  337.34   15.27
  -3   4  -3  393.20   14.88
   1   3   3  359.81   15.43
   3  -4  -3  368.59   17.46
  -1  -3  -3  372.75   16.73
   3  -4  -3  410.02   19.11
   1   3  -3  371.96   14.75
  -1  -3  -3  368.07   17.43
   4  -1   3  367.53   17.66
   1   3   3  354.98   14.78
  -3   4  -3  367.43   16.09
  -4   1  -3  383.62   18.07
   1   3   3  381.70   17.62
  -1  -3  -4  331.46   15.64
   3  -4  -4  325.07   15.04
  -3   4   4  349.10   15.09
  -3   4  -4  383.63   15.35
   3  -4   4  393.40   15.65
   3  -4   4  340.82   17.13
   3  -4  -4  356.79   18.08
   1   3   4  336.34   15.65
  -1  -3   4  343.85   16.27
   3  -4  -4  341.72   17.05
  -1  -3  -4  329.05   16.43
   1   3  -4  330.05   13.54
  -4   1  -4  377.36   18.02
   1   3   4  317.91   16.96
  -1  -3  -4  295.69   16.62
  -3   4  -4  327.74   15.16
   4  -1   4  384.48   17.93
   1   3   4  298.54   13.56
   3  -4   5  662.68   28.43
  -3   4  -5  674.37   29.01
   3  -4  -5  634.35   26.59
  -3   4   5  652.98   26.74
  -1  -3  -5  684.56   27.66
   3  -4   5  652.15   26.53
  -3   4  -5  664.13   26.56
  -1  -3  -5  679.09   27.77
  -1  -3   5  695.71   27.74
   3  -4  -5  663.67   29.33
   3  -4  -5  686.36   28.80
   1   3   5  687.46   27.60
   1   3  -5  671.52   23.91
   1   3   5  689.07   26.10
   1   3   5  649.58   24.15
   4  -1   5  715.60   29.35
  -4   1  -5  694.90   29.10
  -3   4  -5  679.95   26.10
  -1  -3  -5  679.63   28.68
   1   3   5  694.68   28.79
   4  -1   5  682.97   23.03
   1   3   6  344.61   19.22
  -1  -3  -6  284.02   18.04
   3  -4  -6  309.62   16.95
  -3   4   6  381.00   19.08
   3  -4   6  465.48   20.46
  -3   4  -6  323.82   18.63
  -4   1  -6  440.95   21.91
  -1  -3   6  432.29   19.98
   1   3   6  372.34   19.84
   3  -4  -6  319.27   19.40
   3  -4  -6  317.31   18.24
   1   3  -6  369.62   18.62
   1   3   6  320.78   16.39
  -1  -3  -6  274.24   17.85
  -3   4  -6  357.27   16.41
  -4   1  -6  464.28   21.83
  -3   4  -7  218.34   14.39
  -1  -3  -7  177.05   13.03
   3  -4  -7  187.70   12.54
   3  -4   7  211.85   12.99
  -3   4  -7  189.73   12.39
  -4   1  -7  198.64   14.90
   1   3   7  214.10   14.09
   4  -1   7  218.32   14.41
   1   3  -7  190.87   13.25
  -3   4   7  185.33   12.74
   3  -4   7  185.40   13.31
   3  -4  -7  226.89   13.92
   3  -4  -7  191.05   14.02
   1   3  -7  209.17   13.52
  -1  -3   7  214.13   13.77
  -3   4   7  204.46   13.64
   1   3   7  194.96   10.92
   3  -4  -7  213.33   10.57
  -1  -3  -7  207.38   13.96
  -4   1  -7  200.28   13.98
  -3   4  -7  197.44   11.01
  -3   4  -8  311.92   17.09
  -1  -3  -8  273.91   17.62
   3  -4   8  344.68   17.69
   3  -4  -8  263.50   15.88
   4  -1  -8  264.49   16.81
  -3   4  -8  290.11   18.55
   4  -1   8  352.30   19.45
   1   3   8  243.70   17.90
  -4   1  -8  306.27   19.46
   1   3  -8  278.70   17.12
  -3   4   8  279.12   16.59
   1   3  -8  280.32   17.09
   3  -4  -8  313.27   18.53
  -1  -3   8  295.67   17.80
   3  -4   8  334.98   18.45
   3  -4  -8  250.64   12.65
  -1  -3  -8  195.35   13.76
   1   3   8  279.46   13.99
  -3   4   8  215.34   15.50
  -4   1  -8  306.60   18.46
  -1  -3  -8  240.89   11.53
  -1  -3  -8  280.74   17.76
   3  -4   9   15.50    5.72
   1   3  -9   15.07    5.76
  -4   1  -9   17.10    6.50
   4  -1   9   16.37    6.09
   1   3   9   24.98    6.58
   3  -4  -9   15.59    5.93
  -3   4   9    6.38    4.98
   4  -1  -9   18.08    6.39
  -1  -3  -9   13.45    6.10
  -3   4  -9   17.34    5.66
  -1  -3   9   23.23    7.10
  -1  -3  -9   13.30    5.83
  -3   4  -9    8.76    5.93
   1   3  -9   14.17    5.64
   3  -4   9   22.09    6.55
  -4   1  -9   14.96    6.87
  -3   4   9    9.44    5.12
  -1  -3  -9   12.78    4.67
   1   3   9   15.39    3.79
  -1  -3  -9   15.85    2.72
   3  -4  -9   18.37    3.45
  -3   4 -10  223.92   16.08
   4  -1  10  291.37   17.99
   1   3  10  249.65   16.94
  -1  -3 -10  176.92   15.65
  -4   1 -10  278.76   19.20
   1   3 -10  197.60   15.47
  -3   4 -10  231.49   17.36
   3  -4  10  197.00   16.31
   3  -4 -10  199.30   14.94
   4  -1 -10  180.86   15.09
  -3   4  10  204.54   15.36
   1   3 -10  171.66   15.37
   3  -4  10  196.53   15.74
  -1  -3  10  209.47   16.38
  -3   4  10  224.44   17.38
  -3   4  10  133.76   13.30
   1   3  10  190.92   11.51
  -1  -3 -10  189.18   13.05
   3  -4 -10  166.39   10.13
  -4   1 -10  166.77   10.24
  -1  -3 -10  167.73    8.84
  -4   1 -10  236.80   16.55
  -1  -3 -10  202.41   15.79
  -3   4  11  189.86   15.44
  -1  -3 -11  192.36   15.68
  -3   4 -11  191.04   14.68
  -4   1 -11  227.04   17.94
   4  -1 -11  202.28   15.64
   3  -4 -11  176.25   14.72
   1   3 -11  247.63   16.39
   4  -1  11  202.04   16.17
   1   3  11  200.29   15.90
  -3   4 -11  186.51   16.20
   3  -4  11  201.10   15.47
  -1  -3  11  225.34   17.05
  -3   4  11  229.27   17.78
   1   3 -11  198.33   15.89
   3  -4  11  180.38   15.03
   1   3  11  183.26   11.14
  -4   1 -11  197.56   11.31
   3  -4 -11  208.72   10.80
  -3   4  11  213.51   15.06
  -1  -3 -11  213.72   14.05
  -1  -3 -11  191.24   15.24
  -4   1 -11  208.29   16.04
  -1  -3 -11  201.97    9.43
  -1  -3 -12  154.81   15.91
  -3   4 -12  180.12   15.48
  -3   4 -12  184.52   16.81
  -4   1 -12  187.95   16.97
   1   3  12  267.91   18.53
  -3   4  12  192.68   16.39
   3  -4  12  173.90   15.34
   3  -4 -12  120.70   13.82
  -1  -3  12  164.24   16.55
   1   3 -12  119.02   14.15
   1   3  12  157.99   10.15
  -3   4  13  202.34   17.17
  -4   1 -13  195.90   18.64
   4  -1  13  252.38   19.04
   3  -4  13  239.60   18.14
   1   3  13  207.13   17.71
  -3   4 -13  226.81   18.92
  -1  -3 -13  232.88   18.86
   3  -4 -13  230.56   18.49
   1   3 -13  183.69   16.85
  -4   1 -13  211.38   12.91
  -3   4  13  209.45   15.86
   1   3  13  215.25   11.97
  -1  -3 -13  195.23    9.91
   3  -4  14  136.37   15.66
  -3   4  14  173.91   17.05
  -1  -3 -14  177.51   17.73
   4  -1  14  171.07   16.71
   1   3  14  198.65   17.54
  -4   1 -14  166.74   18.30
  -3   4 -14  154.15   17.22
   1   3 -14  147.26   16.11
   3  -4 -14  115.21   15.30
  -3   4  14  136.69   14.14
  -4   1 -14  137.47   11.19
   1   3  14  165.71   10.63
  -1  -3 -14  145.79    8.18
   4  -1  15   93.85   13.32
  -3   4  15   74.65   12.86
   3  -4  15   78.36   13.46
   1   3  15   74.34   13.27
  -4   1 -15  105.96   16.02
   3  -4 -15   78.54   12.88
  -3   4 -15   83.71   13.89
   1   3 -15   80.20   13.14
  -1  -3 -15   98.43   14.34
  -3   4  15   83.90   11.26
   1   3  15   80.77    7.59
  -1  -3 -15   95.13    6.33
   1   3  16   99.64   14.45
   3  -4  16   94.18   14.84
   4  -1  16  107.11   15.56
  -3   4  16   98.54   15.38
  -3   4 -16  102.09   15.29
   1   3 -16   75.63   13.55
  -1  -3 -16   92.58   14.98
  -4   1 -16   87.56   14.89
   3  -4 -16   86.35   14.12
   1   3  16   75.85    8.02
  -1  -3  16   70.93    9.64
  -4   1  16   50.08    9.87
  -3   4  16   58.68   10.55
  -1  -3 -16   76.30    5.97
   1   3  17   55.66   11.76
  -3   4  17   40.01   10.84
   4  -1  17   39.82   11.41
   3  -4  17   32.45   10.20
  -1  -3  17   31.24    7.28
  -3   4  17   55.20    9.39
  -4   1  17   39.73    9.01
   1   3  17   41.86    5.82
  -3   4 -17   45.31   11.60
  -4   1 -17   36.92   12.86
   1   3 -17   33.08   10.80
  -1  -3 -17   52.81   12.29
   3  -4 -17   50.23   11.64
   1   3  18  118.82   17.17
   4  -1  18  128.96   17.90
   3  -4  18   49.12   14.60
  -3   4  18  118.81   18.32
  -4   1  18   19.71    9.08
  -1  -3  18   24.01    7.52
  -1  -3 -18   39.73   14.15
   3  -4 -18   25.62   11.57
  -4   1 -18   54.37   14.89
   1   3 -18   35.13   13.28
  -3   4 -18   25.82   13.51
   1   3  19   38.90   11.68
   3  -4  19   32.67   11.69
   4  -1  19   49.81   12.31
  -1  -3  19   50.82    8.39
  -4   1  19   46.55    9.87
   3  -4 -19   47.81   13.80
   1   3 -19   63.24   14.49
  -1  -3 -19   50.26   13.12
  -3   4 -19   50.68   13.47
  -4   1 -19   59.05   14.32
   1   3  20   69.05   15.12
   4  -1  20   48.77   13.85
   3  -4  20   36.19   12.50
  -4   1  20   41.95   10.41
  -1  -3 -20   36.55   13.23
   1   3 -20   44.99   13.97
  -3   4 -20   36.97   13.78
  -4   1 -20   40.51   14.44
   3  -4 -20   28.37   12.52
   3  -4  21   18.95   11.11
   1   3 -21    2.06   10.79
  -1  -3 -21   19.15   13.23
  -4   1  21   25.44    9.29
  -4   1  22   32.07    9.85
  -4   4   0 1268.93   48.22
   0  -4   0 1260.15   45.15
   4  -4   0 1310.90   48.98
   4   0   0 1344.65   45.26
   0   4   0 1294.92   44.77
   0   4   0 1368.68   45.39
  -4   0   0 1284.05   44.75
   4  -4   0 1297.10   43.25
   0   4   0 1306.75   45.66
   4   0   0 1370.53   48.33
   0   4   1   78.53    6.96
  -4   4   1   89.93    7.14
   0  -4  -1   81.49    6.08
   0   4   1   85.69    6.04
  -4   0  -1   89.39    6.16
   4  -4  -1   83.86    8.22
   0   4  -1   76.66    5.85
   0  -4   1   93.01    6.34
   4   0  -1   87.35    6.10
   4  -4   1  100.98    8.83
  -4   4   1   74.23    7.80
  -4   4  -1   75.80    8.09
   0   4  -1   84.02    5.87
   0   4   1   94.56    6.85
   4  -4   1   94.93    5.21
   0   4   1   87.02    6.45
   4   0   1   95.25    7.95
   4  -4   2  422.85   16.05
   0   4  -2  430.64   14.90
   0  -4  -2  375.60   14.96
   0  -4   2  389.04   14.97
   0   4   2  398.30   15.20
  -4   4   2  412.67   18.70
   0   4   2  417.97   18.55
   0   4  -2  395.23   16.35
   4   0  -2  417.18   17.07
  -4   4  -2  384.46   19.96
   4  -4  -2  396.96   19.89
   0  -4  -2  428.78   17.60
   0   4   2  402.74   17.14
   0   4  -2  409.01   17.38
   0  -4   2  419.87   16.88
  -4   0  -2  383.79   17.42
  -4   4   2  389.74   19.38
   0  -4  -2  385.75   17.12
   0   4   2  390.71   16.92
  -4   4  -2  435.03   16.07
   0   4   2  424.80   17.95
   4   0   2  429.07   19.63
   0  -4  -2  403.27   17.70
   4  -4   2  420.25   17.74
   0  -4  -3 2583.03   86.82
   0   4  -3 2634.34   86.63
   4  -4  -3 2613.77   87.32
   4   0   3 2716.28   91.23
   4  -4   3 2711.99   87.44
   4  -4   3 2824.73   91.45
   0   4   3 2668.25   86.94
   4  -4  -3 2656.97   89.79
   0  -4   3 2484.02   86.67
   0  -4  -3 2707.53   90.21
   0   4   3 2707.99   90.02
  -4   4   3 2683.40   90.36
   0  -4   3 2707.49   87.44
   4  -4  -3 2746.11   92.37
  -4   4  -3 2632.73   85.83
  -4   4  -3 2579.53   92.57
  -4   4  -3 2700.48   87.34
   0   4   3 2686.17   89.38
   4  -4   3 2692.85   88.39
   0   4   3 2605.03   87.66
   0  -4  -3 2590.70   89.23
   4   0   3 2745.83   91.49
  -4   4  -3 2701.62   88.37
   0   4   4   10.02    3.90
   4  -4   4   14.74    3.51
   4  -4  -4   12.96    3.54
  -4   4  -4   13.76    3.68
   0  -4   4   10.93    3.43
   4  -4  -4   13.64    4.50
   0  -4  -4   16.25    3.40
   4  -4   4   13.66    4.73
   0   4  -4   15.39    3.30
   0  -4  -4    9.08    4.39
   0   4   4   12.50    3.40
   4   0   4    8.65    4.52
   4  -4  -4   16.33    4.67
  -4   4  -4   14.55    1.85
   4  -4   4   11.53    3.17
   4   0   4   17.81    4.80
   0   4   4   14.31    3.10
   0  -4  -4   10.30    4.01
   0  -4   4    9.67    2.52
  -4   4  -4   13.32    3.40
   0  -4   5    0.45    3.39
   0   4   5    0.45    3.20
   4  -4  -5    2.93    4.17
   0   4  -5    3.57    3.41
   0  -4  -5    0.48    3.24
   0  -4  -5    7.09    4.13
   4  -4   5    2.68    4.31
   4   0   5    9.38    4.68
  -4   4  -5    4.37    3.58
   4  -4  -5    3.55    3.41
   0   4   5   -1.70    3.52
   4  -4   5   -0.46    3.31
   4   0   5    0.69    4.26
   0   4   5    2.32    2.68
   0  -4  -5    1.41    2.68
   0  -4  -5    1.66    3.80
  -4   4  -5    0.73    2.45
   0  -4   5    0.84    1.95
   0   4   5    1.90    2.36
   4  -4   6 1090.06   43.30
   4  -4   6 1121.40   41.25
   0   4  -6 1092.06   41.59
   4  -4  -6 1076.36   40.81
   0   4   6 1061.47   42.34
   4   0   6 1102.37   43.57
   4  -4  -6 1061.57   42.07
   0  -4  -6 1094.96   41.66
   0   4   6 1074.92   40.95
   0   4  -6 1062.13   40.98
   0  -4   6 1099.05   41.24
   4  -4  -6 1112.42   44.75
   0  -4  -6 1134.74   42.48
   4   0  -6 1088.85   44.31
   0  -4   6 1071.13   37.47
   0   4   6 1051.77   39.26
   4   0   6 1139.86   43.95
   0  -4  -6 1047.04   41.86
   0  -4  -6 1079.98   38.57
  -4   4  -6 1075.72   38.96
  -4   4  -6 1063.64   40.65
   4   0   7    0.81    4.64
   4  -4  -7    2.96    4.00
   4  -4   7    1.88    3.71
   0  -4  -7   -0.68    5.04
   0   4  -7    6.42    4.49
  -4   4  -7   -0.59    3.99
   0   4   7   -0.70    4.23
   4  -4  -7    3.44    4.46
  -4   0  -7    3.65    5.00
   0  -4  -7    1.34    3.73
   4   0  -7   -0.88    5.41
   0   4  -7   -1.27    3.67
   0   4   7    0.63    3.93
   0  -4   7   -0.63    4.05
   4  -4  -7   -0.91    5.28
   4  -4   7    2.37    4.58
   0  -4  -7    4.76    4.32
   4   0   7    0.79    4.56
  -4   4  -7   -0.89    4.81
  -4   4   7    6.16    4.84
  -4   4  -7    0.38    2.61
   0   4   7    0.83    2.81
   0  -4  -7    2.39    2.44
   0  -4   7    1.97    1.83
   0  -4  -8   30.15    6.56
   4   0   8   40.03    7.40
   4  -4   8   36.10    6.41
  -4   4  -8   45.49    6.84
   0   4   8   27.56    6.24
   0   4  -8   30.28    6.31
   4  -4  -8   31.51    6.20
   4   0  -8   43.59    7.77
   4  -4   8   30.30    6.56
  -4   0  -8   35.60    7.89
   4   0   8   30.97    6.53
   0   4  -8   46.72    6.94
   0   4   8   32.97    6.52
  -4   4  -8   16.48    6.05
   0  -4  -8   36.93    6.58
   0  -4   8   27.60    6.03
   4  -4  -8   37.18    7.60
  -4   4   8   31.89    6.68
   0  -4  -8   33.34    5.75
   0  -4   8   33.14    3.41
   0  -4  -8   35.88    4.24
   0   4   8   33.66    4.73
  -4   4  -8   36.70    4.63
  -4   4  -9  993.58   40.48
   0   4   9  948.91   41.42
  -4   0  -9 1079.25   44.69
  -4   4  -9  965.19   43.51
   4  -4   9  952.19   40.64
   4  -4   9  952.65   41.87
   4   0   9  983.41   42.12
   4   0  -9  953.91   41.33
   4   0   9 1071.52   43.52
   0   4  -9 1102.74   41.44
   4  -4  -9  994.13   40.49
   0  -4   9 1053.91   41.84
   4   0  -9 1000.24   43.34
   0   4   9 1000.90   41.01
   4  -4  -9 1007.21   43.67
   0   4  -9 1004.77   41.63
   0  -4  -9  960.57   41.44
   0  -4  -9 1019.56   39.71
  -4   4   9  941.12   41.34
   0  -4   9  999.07   33.58
   0   4   9  952.70   36.57
   4  -4  -9  946.84   35.50
   0  -4  -9  975.50   41.05
   0  -4  -9  912.87   35.31
  -4   4  -9  945.83   36.11
   4   0  10  179.18   14.64
   0   4  10  171.47   14.08
   0  -4 -10  153.28   13.69
  -4   4 -10  167.79   15.25
  -4   0 -10  175.27   15.32
   4  -4 -10  140.30   12.69
   0   4 -10  174.00   14.12
   4  -4  10  170.21   13.63
   0   4 -10  187.88   13.68
  -4   4 -10  179.13   13.48
   4   0 -10  164.53   13.92
   4   0 -10  144.89   13.76
   4  -4 -10  181.95   15.29
   0   4  10  190.34   14.24
   0  -4  10  206.48   15.05
   4   0  10  175.48   14.52
   4  -4  10  161.37   14.09
   0  -4 -10  148.10   12.23
   0   4  10  161.64   10.14
  -4   4  10  177.74   14.29
   4  -4 -10  152.69    9.14
   0  -4 -10  188.96   14.33
   0  -4 -10  159.91    9.29
  -4   4 -10  181.58   10.16
   0  -4 -11    5.79    5.66
  -4   4 -11    4.53    5.31
   0   4  11   -3.13    5.55
   4  -4  11    7.81    5.12
   0   4 -11    0.91    5.32
   4  -4 -11    0.91    5.06
   4   0  11   -3.36    6.15
   4  -4  11   -5.25    7.53
  -4   0 -11   -1.27    6.42
   4   0  11   11.45    5.87
  -4   4 -11   -1.24    6.52
   0  -4  11    2.02    5.28
   0   4 -11    3.07    5.10
   0  -4 -11    1.07    4.75
   0   4  11   10.95    6.18
   0  -4 -11   -2.41    4.59
  -4   0 -11    0.52    3.61
  -4   4  11    6.69    5.46
   4  -4 -11    3.64    2.54
  -4   4 -11    3.05    3.07
   0   4  11    0.46    3.03
   0  -4 -11    3.78    2.48
   4   0  12  610.96   31.74
   4  -4 -12  580.98   29.37
   4  -4  12  526.81   28.94
  -4   4 -12  576.90   32.29
   0   4 -12  605.70   31.01
  -4   0 -12  577.34   32.56
   0  -4 -12  575.32   30.91
  -4   4 -12  535.16   28.53
   0   4  12  598.90   30.73
   0   4  12  559.14   29.89
   0  -4  12  606.34   30.67
  -4   4  12  520.42   28.53
   4  -4 -12  536.14   22.11
   0   4  12  553.45   23.60
  -4   0 -12  603.31   25.25
  -4   4 -12  567.51   23.43
   0  -4 -12  551.22   22.55
   4  -4  13   -1.16    5.46
   0   4  13    9.66    7.16
   4   0  13   -1.30    7.89
   0   4 -13    3.66    6.08
  -4   4 -13   -1.44    6.95
   0  -4 -13    5.07    6.10
  -4   0 -13   -1.47    7.82
  -4   0 -13    3.74    4.36
  -4   4  13   -2.07    5.17
   0   4  13    5.31    3.29
   0  -4 -13    2.01    3.02
  -4   4 -13    2.33    3.40
   4  -4 -13    3.93    2.63
   0   4  14   10.31    7.82
   4  -4  14   -5.02    6.78
   4   0  14   -1.39    7.14
   0   4 -14    1.32    7.02
  -4   4 -14   16.97    8.45
   0  -4 -14    5.47    6.21
  -4   0 -14    6.28    8.23
  -4   0 -14   -0.69    4.54
  -4   4  14    1.07    4.94
   0   4  14   -0.49    3.35
  -4   4 -14    1.44    3.44
   0  -4 -14    7.08    3.49
   4   0  15  936.43   46.91
  -4   0 -15 1041.15   50.21
   0   4  15  980.49   46.61
   0  -4 -15  978.03   47.46
   0   4 -15  988.45   47.32
  -4   4 -15 1000.96   49.65
   4  -4  15  935.21   45.87
   4   0 -15 1009.81   48.67
   4  -4 -15  914.59   47.52
   0   4  15  928.39   36.77
  -4   4  15  978.29   43.81
  -4   0 -15 1051.08   40.58
   0  -4 -15  982.40   36.12
  -4   4 -15  943.51   36.67
   0   4  16   29.56    9.81
   4  -4  16   18.75    9.09
   4   0  16   18.61    8.77
  -4   0 -16   30.02   11.24
   0  -4 -16   31.30    9.96
   0   4 -16   31.90    9.26
   4  -4 -16   11.78    8.71
  -4   4 -16   46.78   11.37
   4   0 -16   19.85    9.60
   0  -4  16   23.37    5.95
  -4   0 -16   31.39    7.03
  -4   4  16   25.98    7.73
   0  -4 -16   19.16    4.55
   4  -4  17   17.00    8.96
   4   0  17   16.34    9.46
   0   4  17   15.66    8.22
  -4   4  17   15.13    7.17
  -4   0  17   12.42    7.48
   0  -4  17   20.93    5.91
  -4   0 -17   16.76   10.92
   0  -4 -17   21.68    9.78
   4   0 -17   33.26   10.77
   4  -4 -17   16.02    9.91
  -4   4 -17   18.28    9.88
   0   4 -17    6.50    7.99
   0   4 -18  334.70   26.04
   0  -4 -18  267.73   24.55
   0   4  18  295.58   24.98
  -4   0 -18  291.81   25.80
   4   0  18  238.70   23.05
  -4   4 -18  263.46   25.57
   4  -4  18  282.33   24.33
  -4   0  18  298.31   21.89
  -4   4  18  292.54   20.95
   4   0 -18  305.59   26.44
   4  -4 -18  282.78   25.70
   0   4  19    3.52    8.31
   4  -4  19   -7.00   11.34
   4   0  19   -1.81   10.07
  -4   0  19    2.58    6.66
  -4   4  19    3.63    6.53
  -4   0 -19   -8.22   11.26
  -4   4 -19    2.02    9.89
   0   4 -19   -3.70   10.96
   0  -4 -19    3.78   10.36
   4   0 -19   -1.93   10.72
   4  -4 -19    1.96    9.96
   0   4  20   29.67   11.95
   4   0  20   39.83   12.59
   4  -4  20   33.28   12.27
  -4   4  20   36.95    9.53
  -4   0  20   32.83    9.86
  -4   0 -20   21.49   12.79
   4  -4 -20   39.14   13.26
   4   0 -20   26.29   12.04
  -4   4 -20   38.02   13.17
   0  -4 -20   40.07   12.49
   0   4 -20   37.30   13.28
   4  -4  21  288.14   26.27
   0  -4 -21  278.52   27.04
   0   4 -21  251.06   26.35
  -4   0  21  281.26   21.62
  -4   0  22    1.31    8.22
   1  -5   0   22.95    4.33
  -1   5   0   14.08    3.72
  -5   4   0   17.39    5.01
  -1   5   0   16.75    3.29
   4   1   0   16.39    4.78
   5  -4   0   22.98    3.40
  -5   4   1   27.21    4.43
  -1   5   1   34.69    5.25
   1  -5   1   50.30    5.05
  -4  -1  -1   34.25    3.43
  -5   4  -1   32.61    5.86
   1  -5  -1   36.85    5.10
  -1   5  -1   31.53    4.61
  -5   4   1   26.77    5.60
   4   1  -1   37.28    3.52
   5  -4   1   34.30    4.74
   5  -4   1   31.16    4.00
  -1   5   1   36.13    4.78
  -1   5  -1   36.25    4.14
   4   1   1   36.88    5.82
  -1   5   1   30.05    4.05
  -5   4   2  323.92   15.90
  -4  -1  -2  306.98   12.10
  -1   5   2  312.95   16.49
   1  -5   2  313.28   12.46
   1  -5  -2  316.45   14.93
  -1   5  -2  299.87   15.49
  -5   4   2  304.27   16.96
  -5   4  -2  297.71   17.39
  -4  -1  -2  311.16   13.70
   1  -5   2  317.48   14.62
   4   1  -2  338.69   13.40
   1  -5  -2  323.18   15.81
  -4  -1  -2  313.38   17.10
  -1   5   2  320.13   15.00
   5  -4   2  302.38   14.25
  -5   4  -2  305.03   14.37
   1  -5  -2  309.94   14.26
   5  -4   2  328.09   15.15
  -1   5   2  307.19   14.30
   4   1   2  329.32   17.36
   4   1   3  168.24   11.46
  -1   5  -3  182.26    8.92
  -5   4   3  162.01   10.71
  -1   5   3  167.40   11.31
   1  -5   3  148.76    8.40
   1  -5  -3  176.62   10.09
  -5   4  -3  157.92   12.53
   1  -5   3  173.03    9.40
  -1   5  -3  161.68   10.84
   1  -5  -3  172.10   10.96
  -5   4  -3  151.94    9.49
   4   1   3  176.62   12.10
  -1   5   3  169.72    9.89
   1  -5  -3  155.36    9.58
   5  -4   3  158.17    9.54
   5  -4   3  162.23    9.67
  -1   5   3  146.77    9.40
  -4  -1  -3  164.47   12.20
   5  -4   4 1810.35   65.75
   5  -4   4 1769.50   62.18
   4   1   4 1863.44   64.61
  -1   5  -4 1803.65   60.96
  -1   5   4 1775.92   62.17
   5  -4  -4 1650.13   62.58
   1  -5  -4 1684.07   61.03
   1  -5  -4 1728.34   64.14
   1  -5   4 1812.36   61.04
  -1   5   4 1800.12   64.56
   1  -5   4 1899.98   61.04
   1  -5  -4 1861.87   62.31
   1  -5  -4 1777.91   62.84
   5  -4   4 1763.41   61.18
   4   1   4 1862.57   65.76
  -5   4  -4 1755.39   61.92
  -1   5   4 1746.37   61.58
  -4  -1  -4 1775.08   65.49
   1  -5  -4 1816.40   62.25
   1  -5  -4 1781.83   62.18
   5  -4   5    6.36    3.85
  -1   5  -5   13.92    4.06
   5  -4  -5   11.05    4.27
  -1   5   5   14.86    4.38
   4   1   5    3.07    4.56
   4   1   5   12.00    4.71
  -1   5  -5   10.04    3.67
  -1   5   5    6.59    3.97
   5  -4   5    3.80    4.88
   4   1  -5   14.67    4.91
   5  -4  -5   11.54    4.58
   1  -5  -5    6.34    3.27
   1  -5  -5    8.63    4.57
   1  -5  -5    9.81    3.89
  -1   5   5    8.07    3.14
   5  -4   5   11.14    2.89
   1  -5  -5   15.55    3.69
   1  -5  -5   13.57    4.00
  -4  -1  -5    5.33    5.47
   1  -5   5    8.91    2.69
   1  -5  -5   13.04    3.13
  -5   4  -5   10.13    4.02
  -1   5  -6  141.58   10.27
   5  -4   6  136.85   10.35
   5  -4   6  141.67   12.24
  -1   5   6  137.12   10.33
  -1   5  -6  159.90   10.60
   4   1   6  154.29   11.97
   5  -4  -6  153.30   10.57
   4   1  -6  145.94   12.18
   1  -5  -6  154.32   11.82
   5  -4  -6  129.39   10.45
  -1   5   6  132.19   10.35
   1  -5  -6  153.22   10.62
  -1   5   6  145.86    9.37
   1  -5   6  159.45    8.58
   1  -5  -6  156.63   10.98
   1  -5  -6  148.07    9.49
  -4  -1  -6  150.47   12.51
   4   1   6  164.88   12.88
   1  -5  -6  135.99   10.53
   1  -5  -6  152.71    9.47
  -5   4  -6  150.28   10.52
   5  -4  -7  105.70    9.39
  -1   5   7  102.84    9.38
  -4  -1  -7   98.51   10.50
  -1   5  -7  104.84    9.21
   5  -4   7  103.03   10.72
   4   1   7  111.57   10.32
  -1   5  -7  109.51    9.37
   5  -4   7   92.07    8.95
  -1   5   7  119.36   10.00
   5  -4  -7  107.38    9.50
   1  -5  -7  100.46    9.21
   4   1  -7   95.74   10.42
   5  -4  -7  106.99   11.29
   1  -5  -7   96.35    9.62
  -1   5   7  104.45    7.86
   1  -5  -7   95.38    8.99
   1  -5   7  104.41    6.65
  -4  -1  -7  100.27   10.61
  -5   4  -7   96.28    7.08
   1  -5  -7  109.12    9.68
   4   1   7  131.09   11.45
   1  -5  -7   88.65    7.27
  -5   4  -7  116.64    9.63
  -1   5   8  685.50   30.04
   4   1   8  679.81   30.56
  -4  -1  -8  655.71   32.22
   5  -4   8  668.21   31.45
  -1   5  -8  676.23   29.90
  -1   5  -8  641.06   28.79
   5  -4  -8  622.89   28.67
   5  -4   8  590.75   29.02
   4   1   8  617.19   31.12
  -1   5   8  649.86   29.83
   1  -5  -8  614.42   29.32
   5  -4  -8  636.40   32.28
   4   1  -8  658.66   31.65
   1  -5  -8  659.83   30.24
   5  -4  -8  640.21   29.27
   1  -5   8  646.13   24.34
  -4  -1  -8  710.32   32.12
   1  -5  -8  644.70   26.19
   1  -5  -8  624.30   29.07
  -5   4  -8  641.03   25.29
  -5   4  -8  650.47   29.51
  -5   4  -9  138.23   13.94
  -4  -1  -9  119.49   12.82
   5  -4   9  116.74   11.47
   5  -4  -9  152.87   12.26
   4   1   9  162.29   14.05
   5  -4   9  125.21   12.80
  -1   5  -9  147.68   11.68
  -1   5   9  152.25   12.69
  -1   5  -9  152.01   12.35
   4   1   9  140.01   13.03
   1  -5  -9  148.33   12.38
   4   1  -9  177.49   14.21
  -1   5   9  169.94   13.58
   5  -4  -9  162.30   14.63
   1  -5  -9  128.99   12.07
  -5   4   9  122.60   12.14
   1  -5   9  149.49    8.01
   1  -5  -9  144.33   12.09
  -5   4  -9  149.01   12.30
  -4  -1  -9  127.51   13.13
   1  -5  -9  129.01    9.15
  -5   4  -9  133.64    8.52
   5  -4  10  379.40   22.39
  -4  -1 -10  343.56   22.64
   5  -4  10  330.32   20.64
  -1   5  10  315.30   20.09
  -1   5 -10  354.25   20.12
   5  -4 -10  330.33   20.03
  -5   4 -10  345.17   23.36
  -1   5 -10  355.95   21.38
   4   1  10  366.29   22.41
  -1   5  10  391.39   22.00
   1  -5 -10  321.94   20.84
   1  -5 -10  332.31   20.74
   4   1 -10  367.97   22.65
   4   1  10  358.10   21.54
   5  -4 -10  315.63   22.46
  -5   4  10  356.05   21.78
   1  -5  10  345.83   14.48
   1  -5 -10  341.28   19.99
  -5   4 -10  345.29   15.70
   1  -5 -10  363.99   20.66
   1  -5 -10  375.05   17.11
  -5   4 -10  355.81   20.64
   4   1  11    5.84    5.62
   5  -4 -11   13.78    6.31
  -1   5 -11   -0.89    5.75
   1  -5 -11    7.67    6.47
  -1   5  11   -1.01    5.94
   5  -4  11    4.06    5.56
  -5   4 -11    2.84    5.61
  -5   4 -11    6.77    7.31
  -4  -1 -11   -2.55    6.98
   1  -5 -11    6.37    5.65
  -1   5 -11    1.04    5.29
  -1   5  11    3.12    5.87
   5  -4 -11    2.55    5.78
   5  -4 -11    2.60    2.64
  -5   4  11    1.05    4.96
   1  -5  11    4.19    2.02
   4   1 -11    3.13    1.11
   1  -5 -11    6.50    3.34
  -5   4 -11    1.55    3.32
  -1   5  12   17.59    6.92
   5  -4  12   16.54    6.55
   4   1  12    8.77    6.78
  -1   5  12   20.44    7.52
   1  -5 -12   13.94    6.82
   5  -4 -12   14.81    7.80
  -5   4 -12   11.60    7.61
  -4  -1 -12   21.97    8.35
  -1   5 -12   17.11    7.41
  -4  -1 -12   19.91    5.31
  -5   4  12   26.11    7.95
   5  -4 -12   12.88    3.29
   1  -5  12   14.15    2.53
   1  -5 -12   11.85    4.10
  -5   4 -12   12.75    3.66
  -1   5  13   -4.74    6.49
   5  -4  13    2.37    6.02
   4   1  13   -4.01    9.34
  -4  -1 -13    5.91    6.84
  -1   5 -13   -6.21    7.97
   1  -5 -13    3.78    6.18
  -5   4 -13    1.55    8.48
  -4  -1 -13   -5.58    5.88
  -5   4  13   -5.65    6.28
   5  -4 -13    4.19    2.71
  -5   4 -13   -3.25    4.41
   1  -5 -13   -3.20    4.69
   1  -5  13    2.32    1.86
  -5   4 -14  386.23   28.03
   4   1  14  357.22   25.59
  -4  -1 -14  426.75   28.28
   5  -4  14  378.42   25.32
  -1   5  14  390.91   25.38
  -1   5 -14  378.22   25.60
   1  -5 -14  416.05   26.58
  -4  -1 -14  429.26   21.57
  -5   4  14  376.30   24.13
   5  -4 -14  400.93   16.71
  -5   4 -14  374.09   17.26
   1  -5 -14  400.66   18.98
   5  -4  15    1.37    7.50
  -1   5  15    1.37    8.00
   4   1  15   -1.51    8.29
  -4  -1 -15    5.05    8.39
  -1   5 -15   12.98    8.45
  -5   4 -15   13.94    9.13
   4   1 -15    7.77    7.47
   1  -5 -15    8.85    8.31
   1  -5  15    1.04    4.58
  -5   4  15   -1.20    7.56
   1  -5 -15    0.56    4.70
   4   1  16  368.38   26.03
  -4  -1 -16  361.72   27.54
  -5   4 -16  338.99   27.07
  -1   5 -16  300.42   24.43
   1  -5 -16  313.69   25.20
   5  -4  16  277.47   23.12
  -1   5  16  341.24   24.42
   4   1 -16  340.83   26.18
  -5   4  16  354.67   23.25
   1  -5  16  351.21   16.99
   1  -5 -16  316.57   17.06
   4   1  17   25.12   11.43
   5  -4  17   21.90    9.20
  -1   5  17   38.90   10.72
  -5   4  17   20.13    7.78
  -4  -1 -17   31.97   11.05
  -1   5 -17   25.02   10.74
   5  -4 -17   16.29   10.64
   4   1 -17   22.73   10.40
  -5   4 -17   32.74   12.00
   1  -5 -17   52.17   12.00
   5  -4  18   14.98   10.57
  -1   5  18   13.20    9.43
   4   1  18   12.32   10.44
  -5   4  18   -9.03    8.02
  -5   4 -18   18.16   11.22
   1  -5 -18    5.36    9.93
   5  -4 -18   21.09   10.66
   4   1 -18   12.80    9.28
  -1   5 -18   10.60    9.69
  -4  -1 -18   11.87   10.36
  -1   5  19    3.48    8.97
   5  -4  19   -3.50    8.26
   4   1  19    9.17    9.30
  -5   4  19   -1.32    7.32
  -4  -1  19  -13.44    8.89
   1  -5 -19   -5.64    9.70
   4   1 -19   -1.93   10.26
  -5   4 -19  -10.55   13.82
   5  -4 -19   -8.05   11.78
  -4  -1 -19   -2.07   11.52
  -1   5 -19   -1.87    9.94
   5  -4  20  136.76   18.65
  -1   5 -20  205.81   22.79
   4   1  20  127.12   19.13
  -1   5  20  165.52   19.85
  -5   4 -20  165.04   22.34
  -4  -1 -20  145.36   21.39
   5  -4 -20  198.45   22.63
   1  -5 -20  178.44   21.22
   4   1 -20  142.37   20.12
  -5   4  20  167.30   16.96
  -4  -1  20  167.99   17.97
  -1   5 -21   66.90   15.36
  -4  -1  21   66.07   12.31
  -5   4  21   50.39   11.43
   3   2   0  281.30   11.60
   2  -5   0  292.09   15.30
  -5   3   0  275.69   15.34
  -2   5   0  292.46   15.01
   5  -3   0  278.65   15.75
   5  -3   0  300.41   14.05
  -2   5   0  283.81   11.17
  -5   3   1    9.19    3.76
  -2   5   1   17.92    4.70
   2  -5   1    7.30    2.86
  -5   3   1    6.69    4.18
  -2   5   1    3.89    3.99
  -2   5  -1    6.52    4.03
  -5   3  -1   14.65    4.83
   2  -5  -1    9.26    4.23
   5  -3  -1    0.61    3.69
   2  -5  -1   18.00    3.88
   2  -5  -1   10.30    3.51
  -2   5  -1    5.06    2.27
  -2   5   1   19.66    2.91
   2  -5  -1   21.43    4.30
   5  -3   1    7.72    3.38
  -2   5  -1   14.43    3.88
   3   2   2  387.95   17.18
  -2   5   2  381.35   14.84
   2  -5   2  374.09   15.69
  -5   3   2  382.77   16.67
   2  -5  -2  367.40   16.18
  -2   5   2  363.62   18.18
  -5   3  -2  350.80   18.76
  -2   5  -2  353.11   17.95
   2  -5  -2  405.69   16.96
   5  -3  -2  361.37   18.72
   2  -5  -2  385.19   18.49
   2  -5  -2  365.39   16.77
  -3  -2  -2  371.08   18.79
   5  -3   2  372.87   16.99
   2  -5  -2  377.46   17.20
  -2   5   2  351.30   16.64
   2  -5  -2  362.40   14.70
  -5   3  -2  366.70   17.28
  -2   5  -2  372.47   17.27
  -2   5   3 1176.57   40.81
   3   2   3 1048.37   42.36
   2  -5   3 1145.02   41.31
  -2   5  -3 1178.08   40.43
  -2   5   3 1291.56   45.25
   2  -5  -3 1145.72   42.03
   5  -3  -3 1110.77   41.64
  -3  -2  -3 1265.64   41.32
  -5   3  -3 1183.83   46.02
   5  -3  -3 1198.40   45.28
   2  -5  -3 1168.72   42.86
   2  -5  -3 1169.69   44.45
   2  -5  -3 1196.79   42.15
  -2   5  -3 1182.03   44.82
   2  -5  -3 1193.23   42.66
   5  -3   3 1137.31   42.88
  -5   3  -3 1136.74   42.74
  -2   5   3 1092.67   41.94
   2  -5  -3 1148.04   40.66
  -2   5  -3 1205.48   43.02
  -3  -2  -3 1178.24   45.12
   5  -3   3 1170.61   41.27
  -2   5   4  234.12   12.10
  -2   5  -4  238.02   11.58
   3   2   4  226.86   13.04
   2  -5   4  228.75   12.22
  -2   5  -4  239.05   12.74
   5  -3   4  219.48   14.74
  -2   5   4  224.27   13.97
   3   2  -4  234.72   13.62
   2  -5  -4  232.71   12.69
  -3  -2  -4  233.60   11.81
   5  -3  -4  224.82   12.53
   2  -5  -4  235.10   12.11
   2  -5  -4  230.99   13.06
   2  -5  -4  218.32   13.79
   5  -3  -4  236.74   14.82
   5  -3   4  233.97   11.11
   5  -3   4  235.28   13.23
   2  -5  -4  213.01   11.54
  -5   3  -4  231.98   13.15
  -3  -2  -4  247.00   15.09
   2  -5  -4  238.03   12.62
   5  -3   5  195.59   12.36
   3   2   5  215.17   12.68
  -2   5   5  204.76   11.78
  -2   5  -5  176.79   11.63
   5  -3   5  190.74   13.67
  -2   5  -5  195.22   11.03
   5  -3  -5  186.49   11.50
   2  -5   5  175.24   11.42
   2  -5  -5  217.46   12.53
   3   2  -5  190.31   13.03
   2  -5  -5  199.86   11.07
   2  -5  -5  173.20   12.22
  -3  -2  -5  183.92   13.46
   2  -5  -5  173.94   10.89
  -5   3  -5  164.82   12.18
   5  -3   5  158.69    9.16
   2  -5  -5  171.72   11.25
  -3  -2  -6  394.08   20.82
  -2   5   6  378.88   18.93
  -2   5  -6  432.69   20.19
  -2   5  -6  390.31   18.54
   5  -3   6  406.47   21.87
   3   2   6  417.02   20.08
   5  -3   6  395.15   20.09
   5  -3  -6  381.39   18.86
   2  -5   6  404.86   19.45
   3   2  -6  395.86   21.00
   2  -5  -6  406.86   19.97
   2  -5  -6  420.85   18.20
   3   2   6  382.57   14.34
   5  -3   6  398.83   16.19
   2  -5  -6  372.83   18.75
  -5   3  -6  393.65   20.03
   2  -5  -6  414.48   18.59
  -3  -2  -6  415.46   21.53
   2  -5  -7   24.74    5.89
   5  -3  -7   30.42    7.21
   5  -3   7   34.49    7.26
  -2   5  -7   31.60    6.33
  -2   5   7   41.66    6.51
   2  -5   7   31.71    6.58
  -2   5  -7   35.91    6.57
   5  -3  -7   27.92    8.06
   3   2   7   27.46    6.40
  -3  -2  -7   31.68    6.72
   3   2  -7   45.04    7.78
   5  -3   7   32.97    8.06
  -2   5   7   45.39    8.50
   2  -5  -7   23.31    6.14
   2  -5  -7   28.61    5.22
  -5   3  -7   34.81    6.96
  -3  -2  -7   27.23    7.20
   2  -5  -7   36.02    5.41
   3   2   8    5.38    4.94
  -2   5  -8    6.40    4.51
  -3  -2  -8    7.19    5.06
   5  -3  -8    2.11    5.70
   2  -5   8    2.99    4.54
  -2   5   8    9.94    5.32
   5  -3   8    2.80    5.18
   2  -5  -8    4.09    4.33
  -5   3  -8    3.84    4.72
  -2   5  -8    8.96    4.52
   5  -3   8    3.23    4.79
   5  -3  -8    6.69    4.67
  -2   5   8   14.31    4.87
   2  -5  -8    4.77    3.44
   3   2  -8    5.28    1.86
   2  -5  -8    1.89    2.63
  -3  -2  -8   -0.89    5.86
   5  -3   9  811.79   37.46
   5  -3   9  915.55   39.24
  -2   5  -9  881.94   36.22
   5  -3  -9  895.51   37.34
  -3  -2  -9  859.36   39.10
  -2   5   9  875.34   37.22
   2  -5  -9  829.83   36.36
  -2   5  -9  938.89   38.76
   5  -3  -9  864.62   40.35
   3   2   9  932.82   37.88
   2  -5   9  902.69   37.46
   2  -5  -9  879.53   38.41
  -2   5   9  882.80   38.40
   2  -5  -9  864.81   33.06
  -5   3  -9  834.88   29.72
   3   2  -9  783.33   28.70
  -5   3  -9  868.42   37.64
   2  -5  -9  883.71   34.08
  -3  -2  -9  893.43   38.88
  -2   5 -10   91.06   10.54
   5  -3  10  102.68   10.86
   5  -3 -10   90.61   10.47
  -3  -2 -10   93.52   11.25
  -2   5  10  101.22   10.26
  -2   5 -10   87.90    9.81
  -5   3 -10   73.00    9.94
   2  -5 -10  100.16   10.56
   2  -5 -10   86.16   10.52
   3   2  10   87.12   10.37
  -2   5  10   80.70   10.74
   2  -5  10   78.67    9.96
   5  -3 -10   96.16   12.02
   5  -3  10   81.42   10.71
  -5   3 -10   97.98    6.04
  -3  -2 -10  101.37   11.62
   2  -5 -10   90.65    8.11
   5  -3 -11    5.62    6.01
   2  -5 -11   11.10    6.42
   5  -3  11    8.54    5.93
  -2   5 -11    8.74    6.28
  -2   5  11    9.78    6.60
  -5   3 -11    4.94    6.21
  -2   5 -11    1.10    6.12
  -2   5  11   11.94    7.46
  -3  -2 -11    8.42    6.60
   2  -5 -11    9.89    6.83
   3   2  11   18.10    7.22
   5  -3 -11   12.59    8.00
  -5   3 -11    3.48    2.65
  -3  -2 -11   11.72    4.75
  -5   3 -11    5.74    2.67
   2  -5 -11   13.09    4.78
  -2   5 -12  231.93   17.04
  -2   5 -12  244.99   18.94
   5  -3  12  233.91   18.30
  -3  -2 -12  248.42   19.84
  -2   5  12  262.94   18.61
   2  -5 -12  264.30   18.28
   5  -3 -12  230.93   19.47
   2  -5 -12  230.26   18.54
   5  -3 -12  246.76   11.18
   2  -5  12  236.86   11.36
  -3  -2 -12  263.59   15.71
  -5   3 -12  240.91   11.10
  -2   5  13   26.86    8.44
   5  -3  13   27.07    9.25
  -3  -2 -13   33.91    9.67
   3   2 -13   43.55   10.70
   2  -5 -13   27.04    8.74
  -2   5 -13   55.90    9.91
  -3  -2 -13   32.60    6.74
  -5   3  13   38.95    8.94
   2  -5  13   32.44    4.34
  -5   3 -13   34.31    4.12
   5  -3 -13   28.37    3.77
  -2   5  14    3.79    6.81
  -3  -2 -14   -4.53    8.51
   3   2 -14    5.67    8.41
   2  -5 -14   -4.17    7.62
  -2   5 -14   13.99    7.33
  -5   3  14   -2.37    6.60
   2  -5  14    2.82    1.85
   2  -5  14    0.32    2.49
   5  -3 -14   -1.22    2.17
  -5   3 -14   -1.39    2.82
   3   2  14   -2.18    3.94
  -2   5 -15  352.06   25.80
   5  -3  15  325.75   24.32
  -2   5  15  364.96   25.02
  -3  -2 -15  374.01   27.34
   3   2 -15  359.35   26.35
   2  -5 -15  369.12   26.10
   3   2  15  380.32   18.23
   2  -5  15  373.98   13.82
  -5   3  15  332.00   23.11
   2  -5  15  360.71   15.72
  -2   5  16   -1.45    7.71
   5  -3  16   11.95    8.86
  -2   5 -16   12.79    8.63
   3   2 -16   -1.61    8.41
  -3  -2 -16   -1.71    8.83
   2  -5 -16    3.18    8.19
  -5   3  16   -1.26    6.59
   2  -5  16    0.52    1.27
  -2   5  17   24.81    9.45
   5  -3  17   19.03    9.20
  -5   3  17   14.19    7.78
   3   2 -17   40.94   11.85
  -2   5 -17   16.99   10.10
   5  -3 -17   34.07   10.79
  -3  -2 -17   23.56   11.29
   2  -5 -17   35.56   11.11
  -2   5  18  179.37   20.13
   5  -3  18  129.02   17.69
  -5   3  18  156.69   16.71
  -3  -2 -18  151.54   20.36
   2  -5 -18  199.63   21.43
   3   2 -18  192.06   21.14
  -2   5 -18  147.52   19.18
   5  -3 -18  184.36   20.57
   5  -3  19   -1.77    9.44
  -2   5  19   -1.74   10.20
  -5   3  19   -1.33    8.00
  -3  -2  19   -1.21    7.49
   3   2 -19   11.37   10.68
   2  -5 -19  -11.50   11.09
  -3  -2 -19   -6.04   10.38
  -2   5 -19   17.10   11.67
   5  -3 -19   11.96   11.08
   5  -3  20   -9.34   11.08
  -2   5  20    5.50    9.30
  -5   3  20   -5.41    8.40
  -2   5 -20    7.96   10.75
   2  -5 -20   -8.07    9.89
   5  -3 -20    6.24   11.55
   3   2 -20   -1.99   10.59
  -3  -2 -20    8.45   11.23
  -2   5 -21  267.78   27.14
  -5   3  21  250.46   21.20
  -5   2   0  775.22   26.93
   5  -2   0  755.83   30.74
   3  -5   0  781.59   28.94
  -3   5   0  738.55   30.91
  -5   2   0  733.83   30.04
   3  -5   0  769.50   31.81
   2   3   0  746.15   30.65
  -3   5   0  764.50   29.54
   5  -2   0  727.35   29.94
   3  -5   0  791.97   30.10
   2   3   1  524.11   20.93
   2   3   1  560.26   21.82
  -5   2   1  605.50   21.14
  -3   5   1  538.77   24.44
   5  -2  -1  545.97   24.03
   3  -5  -1  579.15   25.23
   3  -5   1  557.69   21.70
  -5   2  -1  540.63   23.81
  -5   2   1  566.56   24.00
  -3   5  -1  525.98   24.43
   3  -5  -1  598.62   23.19
  -3   5  -1  544.93   22.91
   5  -2   1  546.83   23.61
   2   3   1  524.69   23.84
   3  -5  -1  592.40   23.67
   3  -5   2   93.67    7.38
   2   3   2  101.03    6.52
  -3   5  -2   92.57    4.72
  -3   5   2   84.93    4.82
   2   3   2   87.03    6.55
   2   3  -2   85.86    6.41
   3  -5  -2  105.63    8.78
  -5   2  -2   88.00    8.32
   3  -5   2   90.51    5.91
   3  -5  -2   96.59    7.70
   5  -2  -2  107.14    8.36
   2   3  -2  100.73    6.51
  -3   5  -2  102.66    8.86
   5  -2   2   83.56    7.33
   3  -5  -2   87.97    4.85
   3  -5  -2  109.05    7.94
  -3   5  -2  111.89    7.84
  -2  -3  -2   89.59    8.22
  -5   2  -2   82.69    7.78
   2   3   2   95.14    8.14
   3  -5   3  716.21   29.11
   2   3   3  712.77   27.86
  -3   5   3  747.28   26.51
  -3   5  -3  737.10   26.28
   2   3  -3  759.73   28.51
   5  -2  -3  721.08   27.25
  -2  -3  -3  747.54   28.49
   5  -2  -3  753.00   30.62
  -3   5   3  746.09   29.26
   3  -5  -3  723.36   29.72
   3  -5   3  719.47   26.08
  -5   2  -3  724.04   31.22
   3  -5  -3  750.98   31.46
  -3   5  -3  696.18   31.43
   2   3  -3  743.19   27.15
  -2  -3  -3  717.56   30.65
  -3   5  -3  767.07   29.15
  -5   2  -3  767.33   30.66
   3  -5  -3  789.48   29.72
   2   3   3  701.65   30.48
   5  -2   3  761.94   30.38
   3  -5  -3  737.67   26.45
   2   3   4    5.18    3.79
   3  -5  -4   -0.99    2.51
  -3   5  -4    0.31    2.53
  -3   5   4    2.01    2.55
   5  -2   4   -0.60    3.79
   3  -5  -4   -0.62    3.47
   2   3   4   -0.42    3.02
   3  -5   4    2.06    3.60
   5  -2  -4   -0.36    2.82
   3  -5  -4    1.21    3.45
   2   3  -4   -0.46    3.21
  -2  -3  -4   -0.92    3.26
  -2  -3  -4    1.92    3.39
   5  -2  -4    4.42    3.65
   3  -5   4   -0.50    1.62
   3  -5  -4    1.16    3.18
   3  -5  -4    2.87    3.52
  -5   2  -4    0.60    4.05
   3  -5  -4    2.55    2.91
  -2  -3  -4    5.10    4.38
   2   3  -4    0.56    2.00
  -3   5  -4   -0.45    3.48
  -3   5   5 1366.84   49.10
  -3   5  -5 1404.43   48.88
  -2  -3  -5 1369.34   50.71
   3  -5   5 1401.40   51.24
   3  -5   5 1421.15   48.96
   3  -5  -5 1385.37   49.07
   3  -5  -5 1426.83   52.34
  -2  -3  -5 1372.51   50.16
   2   3  -5 1444.55   50.75
   3  -5  -5 1399.74   52.51
   2   3   5 1393.48   50.04
   3  -5  -5 1394.48   51.97
   2   3  -5 1367.35   46.91
   3  -5  -5 1450.51   49.32
   3  -5   5 1344.69   44.97
   2   3   5 1381.80   52.66
  -5   2  -5 1404.15   51.98
   5  -2   5 1380.14   46.68
   3  -5  -5 1482.64   50.84
   5  -2   5 1407.41   52.13
  -3   5  -5 1360.51   49.68
   2   3   5 1356.42   46.56
  -2  -3  -5 1365.99   52.48
  -3   5  -6  258.68   15.80
  -3   5  -6  251.27   13.70
   3  -5   6  267.64   14.08
  -2  -3  -6  256.11   15.13
   3  -5   6  256.86   14.94
  -3   5   6  252.53   14.07
   3  -5  -6  257.54   14.01
   2   3   6  261.81   14.39
   3  -5  -6  252.96   15.82
   3  -5  -6  256.52   15.87
   3  -5  -6  259.38   13.12
   2   3  -6  262.66   11.24
  -3   5  -6  261.69   13.85
  -5   2  -6  251.66   15.62
   5  -2   6  254.64   15.69
   2   3   6  283.91   16.66
   5  -2   6  246.75   10.73
   2   3   6  256.99   10.86
  -2  -3  -6  278.51   16.53
   3  -5  -6  261.39   14.08
   5  -2   7  750.13   32.74
   3  -5   7  732.23   30.49
  -3   5   7  725.98   30.59
  -3   5  -7  762.21   32.80
   2   3   7  697.88   32.57
   3  -5   7  691.35   31.35
  -2  -3  -7  710.15   31.75
   3  -5  -7  692.83   30.09
  -3   5  -7  738.75   30.27
   3  -5  -7  731.81   32.44
   2   3   7  731.01   31.10
   3  -5  -7  756.10   32.90
   3  -5  -7  777.27   28.81
   2   3  -7  713.37   25.75
  -3   5   7  721.07   31.54
  -2  -3  -7  764.51   33.33
  -5   2  -7  728.77   32.34
  -3   5  -7  738.52   29.44
   2   3   8   19.69    6.30
   5  -2   8   17.99    6.09
  -3   5  -8   20.32    5.35
  -3   5   8   20.28    4.95
   3  -5  -8   28.60    6.27
   5  -2  -8   33.91    6.63
   3  -5   8   27.08    5.98
  -2  -3  -8   26.74    6.61
   3  -5  -8   19.53    5.98
  -2  -3   8   24.91    6.62
   3  -5   8   30.31    6.60
  -3   5  -8   28.62    6.72
   2   3   8   34.11    6.56
  -3   5   8   24.25    5.26
  -5   2  -8   20.46    6.34
   3  -5  -8   23.76    3.99
  -2  -3  -8   24.73    6.79
   2   3  -9  747.91   32.87
   3  -5   9  708.28   31.69
  -3   5   9  666.52   31.61
  -3   5  -9  697.02   33.80
  -5   2  -9  747.43   36.15
   2   3   9  722.84   33.77
   5  -2  -9  715.52   32.47
   5  -2   9  686.51   33.13
   3  -5  -9  675.44   31.31
  -2  -3  -9  700.39   33.40
  -3   5  -9  728.23   31.37
   2   3  -9  746.24   33.25
   3  -5   9  707.97   32.29
   3  -5  -9  719.17   33.04
   2   3   9  717.91   32.40
  -2  -3   9  739.15   33.74
   2   3   9  696.83   28.36
  -3   5   9  736.21   32.36
   3  -5  -9  676.30   27.89
  -2  -3  -9  697.44   33.24
  -5   2  -9  736.85   33.21
  -2  -3 -10   34.40    8.12
  -5   2 -10   35.46    8.03
   3  -5 -10   54.68    8.41
  -3   5 -10   59.25    8.46
   5  -2  10   45.79    8.50
  -3   5  10   53.87    8.28
   5  -2 -10   66.28    9.34
   2   3 -10   65.06    9.03
   2   3  10   50.98    8.63
   3  -5  10   62.52    8.61
   3  -5  10   49.59    8.31
  -2  -3 -10   56.54    8.79
  -5   2 -10   63.57   10.80
  -2  -3  10   49.73    9.08
   2   3 -10   71.43    9.45
   2   3  10   55.27    8.77
   3  -5 -10   57.40    8.75
  -3   5 -10   69.10    9.65
  -2  -3 -10   49.70    7.08
   3  -5 -10   64.80    6.08
  -3   5  10   65.85    8.74
   2   3  10   54.97    6.13
   2   3  11  292.48   20.47
   5  -2  11  322.83   20.88
  -5   2 -11  343.07   23.40
  -2  -3 -11  300.68   20.71
   3  -5  11  300.66   19.46
  -3   5 -11  301.95   20.82
  -3   5  11  297.97   19.49
  -3   5 -11  297.38   18.72
   3  -5 -11  294.25   19.24
   2   3  11  317.90   15.95
  -2  -3 -11  349.17   18.47
  -3   5  11  335.96   19.72
   3  -5 -11  317.83   15.43
  -5   2 -11  320.76   14.69
   3  -5  11  320.48   20.50
   2   3 -11  355.75   21.64
  -2  -3  11  314.58   21.07
   2   3  12  136.30   14.55
  -3   5 -12  130.82   13.31
   3  -5 -12  117.75   12.81
   3  -5  12  124.75   13.10
  -5   2 -12  141.75   15.67
  -3   5  12  107.82   12.81
   5  -2  12  116.90   13.62
  -3   5 -12  138.67   14.33
  -3   5  12  125.20   12.15
   2   3  12  108.63    8.89
  -2  -3 -12  118.85   11.06
  -5   2 -12  137.64    8.87
  -2  -3  12  103.51   13.69
  -2  -3 -12  106.66   13.39
   2   3 -12  129.67   13.88
  -3   5  13  413.04   24.67
  -2  -3 -13  358.40   25.02
   2   3  13  348.87   24.73
  -5   2 -13  353.19   26.00
   5  -2  13  399.17   25.33
  -3   5 -13  372.05   25.25
   3  -5  13  422.59   24.77
   2   3 -13  400.03   25.10
   3  -5 -13  390.71   25.51
   2   3  13  407.64   18.65
  -3   5  13  392.75   22.69
  -5   2 -13  427.21   18.62
   5  -2 -13  355.36   14.25
   5  -2  14   -5.47    9.31
  -3   5  14    5.08    6.96
   3  -5  14    7.48    6.93
   2   3 -14   12.25    7.35
  -3   5 -14   -5.84    8.87
  -2  -3 -14    4.38    8.12
  -5   2 -14    4.97    8.40
   3  -5 -14    8.66    8.02
  -5   2 -14   -4.98    6.33
   2   3  14   -0.53    4.19
   5  -2 -14    1.70    1.62
  -5   2 -15  285.10   24.41
  -3   5  15  273.52   21.25
  -2  -3 -15  279.64   22.83
   2   3  15  247.29   21.29
   5  -2  15  310.28   23.13
   3  -5  15  231.38   20.18
  -3   5 -15  267.39   22.18
   2   3  15  267.70   14.72
  -5   2  15  259.87   20.15
   2   3 -15  306.10   22.77
   3  -5 -15  271.31   22.34
   5  -2  16   -4.59    8.50
   2   3  16   12.38    9.61
  -3   5  16    8.75    8.11
   3  -5  16   -2.86   10.17
  -5   2  16   -1.31    6.18
   3  -5 -16   -1.63    8.82
   2   3 -16   18.75    8.68
  -5   2 -16   20.26   11.19
  -2  -3 -16   19.99    8.73
  -3   5 -16   -1.66    8.54
  -5   2 -17  193.56   22.27
  -3   5  17  255.42   21.90
  -2  -3 -17  247.25   23.05
   2   3  17  251.65   21.71
   5  -2  17  206.64   21.18
  -3   5 -17  224.69   21.62
  -5   2  17  256.12   20.13
   3  -5 -17  196.06   20.47
   2   3 -17  254.56   22.44
  -3   5  18   99.38   15.69
   5  -2  18  133.28   17.96
   2   3  18  106.34   16.33
  -2  -3  18   94.70   11.61
  -5   2  18   91.96   13.95
  -5   2 -18  125.75   18.66
   2   3 -18   79.78   15.62
   3  -5 -18   99.53   16.54
  -2  -3 -18   80.24   16.59
  -3   5 -18   92.70   17.10
  -3   5  19  192.26   20.31
   5  -2  19  173.98   19.72
   2   3  19  208.97   21.59
  -2  -3  19  194.11   16.34
  -5   2  19  188.58   18.08
   3  -5 -19  204.72   21.99
  -2  -3 -19  184.72   21.90
  -3   5 -19  187.26   21.75
   2   3 -19  192.41   21.59
  -5   2 -19  190.79   22.75
   2   3  20   -1.89   11.62
   5  -2  20  -11.29   13.49
  -3   5  20   -3.60    9.86
  -5   2 -20   -2.21   11.94
   2   3 -20    1.99   11.19
  -2  -3 -20   14.39   10.43
   3  -5 -20    2.03   11.44
  -3   5 -20   -8.20   11.23
  -5   2  20   -5.59    9.24
   2   3 -21  172.63   21.35
  -5   2  21  178.75  474.37
  -5   2  22    1.41    8.56
  -5   1   0 5231.92  170.85
   4  -5   0 5185.71  174.50
   5  -1   0 5386.03  171.64
   1   4   0 5224.67  169.90
  -4   5   0 5423.08  170.27
   5  -1   0 5354.41  173.14
   1   4   0 5092.84  171.40
   1   4   1   15.17    3.88
   1   4   1   15.31    2.08
  -5   1  -1   14.06    3.76
   4  -5  -1   13.19    4.62
  -4   5   1   16.56    3.77
  -4   5  -1   19.95    3.33
   5  -1  -1   14.86    3.79
   4  -5   1   17.51    5.39
  -1  -4  -1   17.63    2.86
   1   4  -1   15.49    2.68
   1   4  -1   15.66    3.16
   4  -5  -1   15.53    4.10
   5  -1   1   18.80    4.66
   1   4   1   11.31    4.00
   1   4   1   17.11    3.60
   4  -5   2   70.55    4.21
   4  -5  -2   64.43    4.39
   1   4   2   64.47    6.55
   1   4   2   66.16    4.66
   5  -1  -2   65.63    4.12
  -5   1  -2   69.26    6.85
   1   4   2   65.28    6.14
  -4   5  -2   68.12    4.79
   1   4  -2   69.24    5.35
   4  -5  -2   73.18    8.81
   1   4  -2   77.93    5.89
  -1  -4  -2   66.14    5.22
   5  -1  -2   62.30    6.32
  -4   5   2   56.45    6.48
  -1  -4  -2   74.42    7.47
  -5   1  -2   74.31    7.86
   1   4   2   68.20    6.83
  -4   5  -2   66.77    6.62
  -4   5  -2   68.30    4.20
   5  -1   2   72.86    7.58
   4  -5  -2   81.12    7.31
   4  -5   3  247.19   10.83
   4  -5  -3  227.97   10.88
   4  -5   3  212.94   13.54
  -1  -4  -3  232.30   11.29
   1   4   3  238.32   13.19
   1   4   3  243.61   11.34
   5  -1  -3  232.13   10.53
  -4   5   3  260.02   14.38
   5  -1  -3  252.85   13.55
   1   4   3  236.87   12.50
   4  -5  -3  253.11   15.57
   1   4  -3  239.17   11.45
  -4   5  -3  236.77   10.57
   4  -5  -3  264.94   13.89
   4  -5   3  262.41   13.38
   1   4   3  241.31   11.73
   1   4   3  243.31   13.79
   5  -1   3  231.95   14.23
  -5   1  -3  262.61   15.23
  -4   5  -3  239.96   12.86
  -1  -4  -3  225.25   13.56
   5  -1   4  233.60   15.31
   4  -5  -4  195.52   11.62
   4  -5   4  265.45   14.86
  -1  -4  -4  226.82   12.42
   4  -5   4  234.91   11.78
  -1  -4  -4  265.31   14.34
   1   4   4  245.12   12.29
   4  -5  -4  283.49   15.48
   1   4  -4  245.81   12.30
  -4   5   4  255.79   15.36
   1   4  -4  224.94   11.24
   5  -1  -4  262.72   14.70
   4  -5  -4  258.96   17.86
   5  -1   4  245.55   15.01
  -4   5  -4  245.37   13.04
   1   4   4  232.27   11.58
   1   4   4  271.14   15.13
  -5   1  -4  263.01   15.49
  -1  -4  -4  211.49   14.08
  -4   5  -4  226.08   11.80
   4  -5   5  114.02   10.11
   4  -5  -5  106.48    8.01
   5  -1   5  138.45   11.39
   4  -5   5  124.56    8.41
  -1  -4  -5  123.37    8.76
  -1  -4   5  134.24    9.30
   4  -5  -5  107.20    9.66
   4  -5  -5  114.28   10.49
  -1  -4  -5  126.05    9.86
   1   4  -5  107.32    8.18
   4  -5  -5  101.85   10.24
   1   4  -5  123.11    7.00
   1   4   5  114.28    8.17
   5  -1   5  131.11   10.73
   1   4   5  110.13    7.11
  -4   5  -5  125.64    8.17
  -1  -4  -5  130.68   10.26
   1   4   5  118.52    9.98
  -5   1  -5  132.06   11.01
  -4   5  -5  126.46    8.74
  -1  -4  -6 3272.69  110.48
   4  -5   6 3359.14  112.53
   4  -5  -6 3263.41  109.43
  -4   5  -6 3383.45  109.20
   4  -5   6 3242.98  109.24
   1   4   6 3264.38  112.11
   5  -1   6 3274.48  113.38
  -1  -4  -6 3280.37  111.08
  -1  -4   6 3309.06  110.41
   4  -5  -6 3317.65  112.28
   1   4  -6 3342.61  109.98
   4  -5  -6 3214.55  113.61
   1   4   6 3267.82  108.65
  -1  -4  -6 3247.90  111.90
  -4   5  -6 3240.90  108.69
  -5   1  -6 3233.56  112.72
   1   4   6 3216.05  106.38
   5  -1   6 3342.69  113.37
   5  -1   6 3219.10  104.34
  -1  -4  -7    2.80    4.20
   4  -5  -7    2.74    5.55
  -1  -4  -7   -1.35    4.32
   4  -5  -7    3.84    4.88
   1   4  -7    4.47    4.09
  -4   5  -7    2.65    4.63
   5  -1   7    1.74    4.97
  -1  -4   7   -0.68    4.38
   4  -5   7    3.93    5.09
   5  -1   7   -3.39    5.32
  -4   5  -7    0.57    3.82
   4  -5   7    4.18    4.21
   1   4   7   -3.98    4.54
   4  -5  -7    2.98    4.32
   1   4   7    1.86    3.20
  -5   1  -7    0.82    4.92
  -4   5  -7    1.42    3.16
  -1  -4  -7   -0.77    5.08
   1   4  -8   47.71    8.13
   5  -1   8   29.33    7.43
   4  -5  -8   52.23    8.64
   1   4   8   32.02    7.34
   4  -5   8   36.53    6.93
  -4   5  -8   24.57    6.57
  -1  -4  -8   26.22    7.03
  -4   5  -8   47.72    8.95
  -1  -4   8   47.33    8.72
   5  -1  -8   38.32    8.96
   1   4  -8   47.00    7.98
   5  -1   8   24.30    8.29
   4  -5  -8   50.30    9.98
  -1  -4  -8   26.23    7.48
   4  -5  -8   60.99    9.01
   4  -5   8   29.44    7.67
   4  -5  -8   39.91    6.39
  -4   5   8   59.11    9.19
  -1  -4  -8   21.58    7.57
  -5   1  -8   20.32    7.49
  -4   5  -8   35.45    5.60
   1   4   8   27.24    5.37
   5  -1  -9   53.76    8.74
  -4   5  -9   41.32    7.34
   1   4   9   45.08    8.01
   4  -5  -9   57.74    8.38
   5  -1   9   60.05    9.19
   4  -5   9   57.74    7.90
   1   4  -9   56.57    8.47
  -1  -4  -9   46.52    8.25
  -4   5  -9   69.69    9.98
  -1  -4  -9   53.88    8.53
   5  -1  -9   60.57   10.04
   4  -5  -9   55.40    8.77
   4  -5  -9   67.77    9.16
   4  -5   9   49.53    8.87
   1   4  -9   61.23    8.50
  -1  -4   9   52.48    8.74
   5  -1   9   48.13    8.84
  -5   1  -9   51.90    9.49
  -1  -4  -9   43.82    7.11
   1   4   9   57.40    6.46
   4  -5  -9   71.02    6.43
  -4   5   9   74.39    9.50
  -4   5  -9   47.08    5.99
  -5   1  -9   46.96    8.74
   5  -1  10   21.30    7.65
  -4   5  10   48.91    8.77
   1   4  10   39.81    8.62
   4  -5  10   27.92    7.03
   1   4 -10   28.57    7.42
  -1  -4 -10   25.05    7.90
   5  -1 -10   24.54    7.44
  -4   5 -10   21.70    6.86
   4  -5 -10   42.53    8.35
   5  -1  10   17.70    7.54
  -1  -4  10   32.95    8.62
   4  -5 -10   47.02    8.51
   4  -5  10   34.36    7.99
  -4   5 -10   32.14    8.50
   1   4 -10   39.20    8.34
  -1  -4 -10   20.97    8.39
   4  -5 -10   51.55    9.57
   5  -1 -10   24.86    8.55
  -5   1 -10   34.58    9.32
  -4   5  10   46.00    8.99
   4  -5 -10   52.85    5.88
  -1  -4 -10   37.58    7.04
   1   4  10   29.14    5.24
  -5   1 -10   18.08    7.40
  -4   5 -10   33.69    5.53
  -4   5 -11   10.57    5.72
   4  -5  11   15.47    6.28
   5  -1  11   -1.14    5.89
   4  -5 -11    6.38    5.60
   1   4  11   13.18    6.28
  -4   5  11   16.45    6.09
  -1  -4 -11    6.59    6.03
  -1  -4  11   13.81    6.53
   1   4 -11   20.37    7.13
   4  -5  11    2.10    5.77
  -5   1 -11   12.33    7.30
  -4   5 -11    6.20    6.71
   5  -1 -11    7.45    6.20
  -4   5  11   20.19    6.05
  -4   5 -11    7.49    4.04
   1   4  11    4.65    3.47
   4  -5 -11   12.11    3.61
   4  -5 -12 1364.43   56.60
   5  -1  12 1429.82   59.15
  -5   1 -12 1436.71   62.27
   1   4  12 1429.43   58.83
   4  -5  12 1324.23   56.68
  -4   5 -12 1305.41   59.44
  -4   5  12 1388.09   57.14
  -1  -4 -12 1332.66   58.41
  -4   5 -12 1490.02   56.65
  -1  -4  12 1504.86   59.26
   5  -1 -12 1542.96   61.30
   1   4 -12 1429.46   58.33
  -4   5  12 1429.91   57.06
   1   4  12 1353.70   50.86
  -5   1 -12 1492.06   51.13
   4  -5 -12 1404.01   49.97
  -4   5 -12 1292.75   50.72
  -1  -4 -12 1408.34   48.14
   1   4  13   17.85    7.68
   4  -5  13   10.38    6.87
   5  -1  13   14.46    7.33
   1   4 -13   32.95    8.70
  -1  -4 -13   11.73    7.75
  -5   1 -13   23.49    9.30
  -4   5 -13   17.22    8.32
  -4   5  13   22.08    6.48
   5  -1 -13   18.73    1.82
  -5   1 -13   17.74    4.83
   4  -5 -13   20.73    4.30
  -1  -4 -13   19.83    3.60
  -4   5 -13   18.13    5.07
   1   4  13   15.68    4.68
   1   4  14    5.48    9.06
   4  -5  14   16.34    8.64
   5  -1  14    7.03    7.49
  -5   1 -14   13.31    8.73
  -1  -4 -14   25.34   10.11
  -4   5 -14    7.67    8.17
   1   4 -14   29.16    9.36
  -5   1 -14    2.47    5.61
  -4   5  14   29.34    9.34
  -1  -4 -14    9.60    3.42
   1   4  14   19.60    5.21
  -4   5 -14   13.89    4.90
   5  -1  15  108.95   14.24
   4  -5  15   94.65   13.55
   1   4  15  100.59   13.86
   1   4 -15   97.72   13.99
  -1  -4 -15   95.16   14.13
  -5   1 -15   96.78   14.85
   4  -5 -15   87.43   14.09
  -4   5 -15   99.61   14.85
   1   4  15   91.54    8.51
  -4   5  15   92.42   11.69
  -5   1 -15   92.26    9.42
  -4   5 -15   75.04    8.27
  -1  -4 -15   85.79    6.20
   4  -5  16   68.10   12.72
   1   4  16   63.92   12.73
   5  -1  16   85.46   14.31
  -5   1 -16   67.47    9.29
  -4   5  16   81.10   12.31
   1   4 -16   84.80   13.88
  -1  -4 -16   71.36   14.03
  -4   5 -16   60.50   13.49
   4  -5 -16   89.80   14.72
  -5   1 -16   55.69   13.72
   4  -5  17   20.11   10.04
   1   4  17   14.44    9.64
   5  -1  17   19.81   10.71
  -5   1  17   17.74    8.95
  -4   5  17   10.51    6.50
  -4   5 -17   20.07   10.01
  -1  -4 -17   22.56   10.17
   4  -5 -17    8.97    8.48
   1   4 -17   14.78    8.88
   5  -1 -17    8.87    9.59
  -5   1 -17   13.65   10.99
   1   4 -18 1115.25   53.95
  -5   1 -18 1023.78   55.46
  -4   5 -18  942.37   52.84
   5  -1  18 1023.51   52.16
  -1  -4 -18 1028.40   53.55
   4  -5  18 1014.80   51.52
   1   4  18 1059.75   52.56
  -5   1  18 1089.64   50.08
  -4   5  18 1057.55   47.66
  -1  -4  18 1119.33   44.85
   4  -5 -18 1115.11   55.20
   5  -1 -18 1048.62   54.08
   1   4  19   -3.56    9.33
   5  -1  19   -7.27    9.67
   4  -5  19    1.72    9.00
  -5   1  19   -5.67    9.00
  -5   1 -19   -4.27   12.20
   4  -5 -19    5.93   10.19
   5  -1 -19   -1.97   10.63
  -1  -4 -19    1.93    9.46
   1   4 -19   -5.53    9.34
  -4   5 -19   -6.05   11.51
   5  -1  20   -1.92   12.80
   1   4  20    7.51   11.67
   4  -5  20   16.25   10.58
  -5   1  20    8.66    8.87
  -5   1 -20    6.69   13.23
   1   4 -20    7.80   11.14
   4  -5 -20   16.47   12.50
   5  -1 -20   32.74   14.19
  -1  -4 -20   12.20   12.21
  -4   5 -20   25.32   12.97
   4  -5  21   16.99   12.25
   1   4 -21    2.05   10.59
  -5   1  21   20.34    9.99
  -5   1  22   24.76    9.85
   5  -5   0  213.26   14.47
  -5   5   0  206.41   11.74
  -5   0   0  219.84   10.87
   0   5   0  188.40   10.31
  -5   5   0  192.87   13.41
   0   5   0  210.26   10.96
   5   0   0  193.51   13.27
   5  -5   0  204.54    9.00
   0   5   0  184.81   11.01
  -5   5   1  115.29    8.94
   0   5   1  112.69    8.70
   0   5  -1  107.35    7.30
   0   5   1  103.08    7.46
   5  -5   1  112.58   10.37
   5  -5  -1  105.66   10.07
   0   5  -1  102.43    7.11
  -5   5   1  107.17   10.01
  -5   5   1  118.13    8.83
  -5   5  -1  113.70   10.06
  -5   0  -1  100.14    7.03
   0  -5  -1   93.80    7.19
   0  -5   1  115.04    7.82
  -5   5  -1  100.68    7.61
   5   0  -1  103.89    7.21
   5  -5  -1  100.03    5.88
   5  -5   1  111.50    8.36
   0   5   1   95.37    7.52
   5   0   1  103.45    9.25
   0   5   1  113.08    8.08
   0   5  -1  100.34    8.01
   5  -5   1  100.21    5.89
   5  -5   2   43.33    4.08
   0  -5  -2   48.79    3.07
  -5   5   2   44.42    6.19
   0   5   2   45.58    6.24
  -5   5  -2   37.90    7.01
   0   5  -2   50.61    5.23
   5  -5  -2   56.16    7.39
   0  -5   2   46.48    5.04
  -5   5  -2   44.61    4.57
  -5   5   2   36.40    5.69
  -5   5   2   31.14    6.36
  -5   0  -2   32.63    5.01
   0  -5  -2   42.94    5.04
   5   0  -2   41.80    4.91
   5  -5   2   46.90    5.50
   0  -5  -2   43.27    5.14
  -5   5  -2   39.01    3.98
   0   5   2   43.27    5.08
   0   5   2   53.35    5.81
   0   5   2   42.35    5.01
   0  -5  -2   43.04    5.54
   5   0   2   51.54    6.90
   5  -5  -3   53.24    4.93
   0  -5  -3   49.21    4.27
   5  -5   3   55.95    4.90
   0   5  -3   44.95    4.02
   0  -5   3   44.00    4.21
   0   5   3   55.13    4.62
  -5   5   3   63.46    6.98
   0   5   3   66.59    7.17
  -5   5   3   55.76    6.90
   0   5  -3   55.05    5.96
   5  -5  -3   54.22    7.61
  -5   5  -3   60.35    4.72
   0   5   3   59.56    5.83
  -5   5  -3   63.03    8.38
   5   0  -3   54.17    5.63
   0  -5   3   56.56    5.38
   0  -5  -3   52.77    5.72
   0   5   3   59.83    6.40
  -5   5  -3   63.03    5.25
   0   5   3   54.58    5.42
   5   0   3   54.83    6.92
   0  -5  -3   56.10    6.25
   5  -5   3   60.34    6.09
   5  -5  -4   20.86    3.65
   5  -5   4   17.77    3.79
   0   5   4   16.03    4.25
   0   5  -4   19.26    3.47
   0  -5   4   16.07    3.60
   0  -5  -4   19.38    3.47
   0  -5  -4   18.73    5.27
   5  -5   4   26.69    6.11
   5   0   4   11.44    5.20
   0   5   4   21.86    3.81
   5  -5  -4   19.97    5.26
  -5   5  -4    7.16    5.40
   5  -5  -4    9.44    4.99
  -5   5  -4   21.98    2.65
  -5   5   4   17.77    5.09
   0   5   4   18.55    3.76
   5  -5   4   14.35    3.83
   0  -5  -4   14.62    4.61
   0  -5   4   16.92    3.35
   5   0   4   11.98    4.79
  -5   5  -4   22.47    4.13
   0   5  -5  408.69   17.78
   5  -5   5  433.35   21.37
   5   0   5  417.10   21.24
   0   5   5  394.08   19.69
   0  -5  -5  365.60   17.59
   5  -5   5  422.21   18.51
   5  -5  -5  374.09   17.80
   5  -5  -5  385.79   19.88
   0   5   5  399.15   17.99
   0  -5  -5  414.28   20.35
   0  -5   5  380.61   17.82
  -5   5   5  366.48   20.48
   5  -5  -5  439.59   23.02
   0   5   5  398.57   18.01
  -5   5  -5  362.54   13.57
   0  -5   5  434.25   17.30
  -5   5  -5  378.53   17.58
  -5   5  -5  381.30   17.88
   0  -5  -5  387.05   19.67
   5   0   5  398.89   21.32
   5  -5   5  418.51   18.37
   0   5   5  383.80   17.06
   0  -5  -6  335.11   17.34
   5  -5   6  357.28   17.48
   5  -5   6  386.63   20.59
   0   5  -6  362.84   17.41
   5   0   6  347.57   19.77
   0   5   6  330.49   18.66
   5  -5  -6  358.07   17.40
   5   0  -6  382.07   21.25
   5  -5  -6  350.95   18.82
   0  -5  -6  331.06   18.64
   0   5   6  346.91   17.35
   0  -5   6  334.29   17.21
   5  -5  -6  341.76   20.84
   0   5   6  332.70   16.43
   0  -5   6  350.74   15.25
   5  -5  -6  328.15   20.50
   0  -5  -6  334.45   18.45
  -5   5  -6  339.36   16.42
   5   0   6  323.34   19.75
  -5   5  -6  356.52   17.24
   5  -5   7  198.05   14.46
   0   5  -7  175.96   12.65
   5   0   7  177.21   13.97
   5  -5   7  194.38   12.52
   5  -5  -7  162.18   11.62
   0  -5  -7  193.14   12.70
   0   5  -7  175.85   11.86
   0   5   7  183.18   13.29
   0  -5  -7  152.64   12.69
   5  -5  -7  179.78   15.19
   0   5   7  176.51   12.31
   5  -5  -7  168.19   13.06
   0  -5   7  179.21   12.29
   5   0  -7  194.35   15.04
   0   5   7  203.20   11.37
   0  -5   7  204.79    9.94
  -5   5  -7  178.40   10.64
  -5   5  -7  192.83   12.42
   5   0   7  160.87   13.71
   0  -5  -7  176.79   13.02
   5   0   8    0.97    4.85
   0   5   8   -4.15    6.05
   0   5  -8   -3.72    5.64
   5  -5   8    1.44    4.00
  -5   5  -8    8.76    4.46
   5  -5  -8    3.46    4.58
   5   0  -8   -4.14    5.59
   0   5   8    2.88    4.56
   5  -5   8   -0.93    5.40
   5   0   8    5.58    5.02
   0   5  -8    2.87    3.88
   5  -5  -8   -3.27    6.54
   5  -5  -8    4.85    5.13
   0  -5  -8    2.40    4.39
   0  -5   8    2.91    4.47
   0  -5  -8    4.62    4.45
  -5   5   8    1.82    4.61
   0   5   8    1.50    3.11
  -5   5  -8    3.73    3.08
   0  -5  -8    0.80    5.22
   0  -5  -8   -0.86    3.18
   0  -5   8    4.11    2.43
   5  -5   9    0.80    4.46
   5   0   9    4.20    5.41
   0  -5  -9    7.87    5.37
   0   5   9   -3.64    5.84
   0   5  -9   -0.80    5.09
   5  -5  -9    9.24    5.34
  -5   5  -9    4.53    4.69
   5   0  -9    4.39    5.75
   0   5   9    1.62    4.98
   0  -5  -9    3.39    5.38
   0  -5   9   -0.82    4.76
   5   0   9    8.79    5.93
   5  -5  -9    8.05    6.48
   0   5  -9    0.82    4.47
   0  -5  -9    0.87    4.56
  -5   0  -9    1.18    5.81
  -5   5  -9   12.73    6.78
   5  -5  -9    6.00    5.89
   5  -5   9   -0.98    6.81
  -5   5   9   -4.80    5.19
   0  -5  -9    5.28    4.74
  -5   5  -9    5.27    3.14
   0   5   9    2.57    3.27
   0  -5  -9    4.72    2.87
   5  -5  10   23.15    6.14
   0   5 -10   19.97    6.50
   5   0  10   11.13    6.62
   0   5  10   11.92    5.84
  -5   5 -10   19.11    6.13
   0  -5 -10   19.80    6.95
   5  -5 -10   25.57    6.53
  -5   5 -10   18.80    7.36
   0   5  10    7.21    5.69
   5   0  10   10.43    6.92
   5  -5 -10   13.37    6.77
   5   0 -10   10.48    6.12
   0   5 -10   28.27    6.78
   0  -5 -10   18.43    6.50
  -5   0 -10   23.13    7.91
   0  -5  10   12.91    6.00
   0  -5 -10   12.66    6.18
   5  -5  10   14.71    6.40
   5  -5 -10   15.50    6.34
  -5   5  10   17.13    6.28
   5  -5 -10   10.39    3.39
   0   5  10   23.25    4.77
  -5   5 -10   16.08    4.07
   0  -5 -10   19.57    3.93
   5   0  11   26.29    8.47
   0   5  11   25.89    7.91
   0   5 -11   24.22    7.00
  -5   5 -11   15.49    6.48
   5  -5 -11   24.26    7.12
   5  -5  11   21.67    6.75
   5   0 -11   38.35    8.98
   0   5  11   13.96    6.31
   0  -5 -11   29.98    7.46
  -5   0 -11   35.96    9.36
   5  -5 -11   23.08    8.92
   0  -5  11   25.50    7.83
   0   5 -11   32.32    7.23
  -5   5 -11   25.73    8.90
   0   5  11   25.50    4.94
   5  -5 -11   25.95    4.32
  -5   5  11   27.29    7.25
  -5   5 -11   25.90    5.01
   0  -5 -11   28.93    4.39
  -5   5 -12   74.06   10.93
   5   0  12   85.12   12.56
   5  -5  12  108.13   12.32
   0   5  12   83.76   11.95
  -5   5 -12   91.20   13.58
   0  -5 -12   84.29   12.02
   0   5  12   78.66   11.67
   0   5 -12   98.45   11.89
  -5   0 -12   91.51   13.49
   0  -5  12   89.53   12.76
  -5   0 -12   88.67    8.50
  -5   5  12   90.35   11.58
   0   5  12   96.41    8.40
   5  -5 -12   75.33    6.87
   0  -5 -12   98.06    7.35
  -5   5 -12  123.30    8.63
   5  -5  13   89.64   11.58
   5   0  13   92.08   13.18
   0   5  13   88.41   12.28
   0  -5 -13   79.92   11.82
  -5   0 -13   80.46   13.94
   0   5 -13   86.65   11.94
  -5   5 -13   94.25   13.88
   0   5  13   93.12    8.32
  -5   0 -13   92.35    8.88
  -5   5  13  116.59   12.41
   5  -5 -13   92.24    7.18
   0  -5 -13   95.67    7.23
  -5   5 -13   99.62    8.30
   5  -5  14    2.52    6.39
   5   0  14   -7.20    9.70
   0   5  14    3.97    6.71
   0   5 -14   -2.61    6.73
  -5   0 -14    1.68    7.77
  -5   5 -14   -3.29   10.55
   0  -5 -14   -1.37    7.81
  -5   0 -14   -3.42    5.41
  -5   5  14    8.11    6.44
   5  -5 -14    0.86    2.85
   0  -5 -14   -1.72    3.91
  -5   5 -14   -5.73    5.13
   5  -5  15   36.68    9.63
   5   0  15   33.80   10.20
   0   5  15   26.71    9.43
  -5   0 -15   44.40   11.67
  -5   5 -15   26.08    9.97
   0   5 -15   18.30    8.99
   0  -5 -15   42.69   10.43
  -5   5  15   23.83    8.81
  -5   0 -15   29.67    7.07
   5  -5 -15   27.51    4.53
   0  -5 -15   31.96    4.89
   5   0  16    8.09    8.87
   5  -5  16    5.78    8.89
   0   5  16   13.45    8.20
  -5   5  16   20.81    7.53
   0   5 -16   19.69    9.10
  -5   0 -16    9.39    9.37
  -5   5 -16    3.67    8.99
   0  -5 -16   11.01    8.87
   0   5  17   47.66   12.02
   5  -5  17   44.87   11.45
   5   0  17   22.26   10.83
  -5   5  17   41.72    9.16
  -5   0 -17   73.06   14.80
   0  -5 -17   33.72   11.22
  -5   5 -17   42.43   13.31
   5   0 -17   42.58   10.85
   5  -5 -17   34.78   11.19
   0   5 -17   40.65   11.64
   5   0  18  117.03   16.94
   5  -5  18   80.91   14.59
   0   5  18  102.12   15.73
  -5   5  18   87.62   12.88
  -5   0 -18   60.03   15.04
  -5   5 -18  127.41   18.98
   5   0 -18  149.52   18.97
   5  -5 -18  117.64   17.49
   0   5 -18   86.98   16.00
   0  -5 -18   91.44   17.05
   5   0  19   57.47   13.88
   0   5  19   58.23   13.12
   5  -5  19   45.43   12.69
  -5   0  19   69.31   13.11
  -5   5  19   60.22   12.05
  -5   5 -19   67.66   14.92
  -5   0 -19   73.61   16.04
   0  -5 -19   79.87   15.58
   0   5 -19   68.42   15.16
   5   0 -19   68.66   15.33
   5  -5 -19   66.80   15.25
   5  -5  20    3.69    9.81
   0   5  20   -1.86    9.27
  -5   0 -20   -2.26   13.06
   5   0 -20   -4.07   11.76
   5  -5 -20    6.30   11.35
   0  -5 -20    8.03   10.52
  -5   5 -20  -13.23   13.23
   0   5 -20   -1.97   10.77
  -5   5  20   10.63    8.17
  -5   0  20    1.49   10.03
   0   5 -21  -24.96   13.63
  -5   0  21   -1.49    9.37
  -5   0  22   -5.98   10.08
  -1   6   0 2921.65  100.45
  -6   5   0 3106.52  104.66
   5   1   0 3075.95  104.49
  -1   6   0 2907.82  100.80
  -1   6   0 3071.23   99.27
   6  -5   0 2965.16   98.52
  -6   5   1   58.31    6.95
  -1   6   1   67.57    7.61
   1  -6  -1   72.45    7.23
  -6   5   1   54.35    7.78
   1  -6   1   78.59    6.72
   5   1  -1   71.40    5.38
  -6   5  -1   67.81    8.70
  -5  -1  -1   64.44    5.08
  -1   6  -1   71.75    7.13
   6  -5   1   57.08    5.80
  -1   6  -1   62.64    6.23
   5   1   1   81.03    8.51
   5   1  -1   63.87    8.61
   6  -5   1   66.56    6.80
  -1   6   1   61.49    6.19
   6  -5  -1   65.79    6.03
  -1   6   1   73.26    6.91
  -6   5   2 1204.99   43.59
  -1   6   2 1204.87   44.41
   1  -6  -2 1026.71   37.44
  -1   6  -2 1134.45   42.15
  -5  -1  -2 1100.57   39.57
  -6   5   2 1164.14   45.52
   5   1  -2 1148.31   39.53
   1  -6   2 1195.17   41.84
   1  -6  -2 1167.46   42.45
  -6   5  -2 1102.34   45.70
   1  -6  -2 1145.59   42.78
   6  -5   2 1181.77   42.56
  -1   6   2 1103.23   41.02
   5   1   2 1173.79   45.58
  -1   6   2 1122.12   41.79
   6  -5   2 1098.20   40.34
   5   1   3  115.35    9.64
   1  -6  -3   91.52    5.99
  -1   6   3   90.03    8.98
  -5  -1  -3   99.63    5.71
  -6   5   3  106.42    8.94
  -1   6  -3   88.21    8.15
   1  -6  -3   99.38    8.58
  -6   5  -3   91.54    9.86
   5   1  -3   87.81    6.49
   1  -6  -3   88.86    7.71
  -5  -1  -3   78.71    7.03
   1  -6   3   86.31    7.11
   1  -6  -3   79.26    7.24
   6  -5   3   87.30    7.09
   6  -5   3   95.39    7.92
   5   1   3  102.01    9.88
  -6   5  -3   90.65    7.25
  -5  -1  -3   88.27    9.62
  -1   6   3   90.55    7.61
  -1   6   3   96.94    7.67
  -1   6  -4  960.69   35.63
   5   1   4 1037.00   40.43
  -1   6   4  954.48   37.58
   6  -5   4  952.23   37.20
   6  -5   4 1030.75   41.60
   1  -6  -4  903.58   35.72
  -1   6   4  976.91   40.35
   1  -6  -4  980.31   39.20
   1  -6  -4 1057.08   38.41
   1  -6   4 1040.57   37.16
  -6   5  -4 1027.60   43.06
  -1   6  -4  928.05   38.86
  -5  -1  -4 1022.42   41.90
   5   1   4 1016.98   41.67
  -1   6   4  996.71   37.39
   6  -5   4  980.93   37.35
  -6   5  -4 1033.01   37.39
   1  -6  -4  969.62   37.70
   6  -5   5  136.31   11.89
   6  -5  -5  126.87    9.46
   5   1   5  120.38   10.62
  -1   6  -5  117.78    8.49
  -1   6   5  118.11    9.23
   6  -5   5  114.35    9.14
   1  -6  -5   98.81    8.17
   1  -6  -5  112.79   10.42
   6  -5  -5  125.30    9.98
   1  -6  -5  139.62    9.43
   1  -6  -5  112.96    9.91
   1  -6  -5  106.41    9.70
  -6   5  -5   91.29   11.50
   1  -6   5  139.02    8.66
   1  -6  -5  127.69    9.70
  -5  -1  -5  126.15   12.18
  -6   5  -5  128.28    9.25
  -1   6   5  120.16    8.70
   5   1   5  123.98   11.59
   6  -5   5  113.30    8.43
  -1   6   6 1735.81   62.09
  -1   6  -6 1769.28   61.36
   6  -5  -6 1704.33   61.41
   5   1   6 1854.62   64.82
   6  -5   6 1705.58   65.01
   6  -5   6 1713.08   61.71
  -1   6  -6 1713.53   60.67
   5   1  -6 1722.17   65.13
   6  -5  -6 1648.45   62.31
  -1   6   6 1666.55   61.38
   1  -6  -6 1554.52   60.58
   1  -6  -6 1744.20   64.09
   1  -6   6 1715.67   59.14
   1  -6  -6 1733.21   62.41
   1  -6  -6 1676.39   60.98
   6  -5   6 1720.86   60.01
  -6   5  -6 1703.11   61.26
   1  -6  -6 1698.26   60.73
   1  -6  -6 1628.92   61.55
   5   1   6 1707.54   65.61
  -5  -1  -6 1791.29   65.97
  -1   6   7   99.20    9.43
  -1   6  -7  114.35    9.52
   6  -5  -7   95.62    9.30
   5   1   7  139.35   11.95
  -1   6  -7  108.01    9.19
   6  -5   7  108.96   11.30
   6  -5   7  116.41    9.93
  -1   6   7   92.73    9.26
   6  -5  -7  147.56   13.71
   1  -6  -7  111.31   10.93
   1  -6  -7  114.04    9.61
   5   1  -7  118.18   11.94
   6  -5  -7   85.94    9.52
   1  -6  -7  101.98    9.77
   1  -6   7  115.66    7.66
   5   1   7  110.37   11.36
   1  -6  -7  105.03   10.01
  -6   5  -7  113.32    9.67
   1  -6  -7  109.11    8.50
  -5  -1  -7  117.18   12.25
   6  -5  -8  757.26   32.30
   6  -5   8  717.01   34.65
  -1   6   8  732.00   32.52
  -1   6  -8  686.84   31.57
   6  -5   8  722.19   32.22
  -1   6  -8  740.06   31.78
   5   1   8  764.13   34.39
   1  -6  -8  733.54   33.66
   1  -6  -8  657.87   31.55
   6  -5  -8  702.12   32.50
   5   1  -8  790.32   35.83
  -1   6   8  732.97   32.46
   6  -5  -8  714.74   36.24
   1  -6  -8  707.69   32.15
   1  -6   8  719.73   27.90
   1  -6  -8  777.94   30.27
  -5  -1  -8  754.56   35.48
  -6   5  -8  743.73   31.95
   1  -6  -8  700.34   32.32
   5   1   8  777.49   35.56
  -1   6   9  148.68   12.99
  -1   6  -9  159.25   12.46
   6  -5   9  144.89   12.54
   6  -5  -9  146.03   12.47
   5   1   9  156.44   13.95
  -1   6  -9  157.72   12.58
   5   1   9  183.55   15.15
   6  -5  -9  123.10   11.95
   5   1  -9  169.35   14.88
   1  -6  -9  158.91   13.14
  -1   6   9  141.49   12.87
   6  -5  -9  181.47   16.10
   1  -6   9  157.25    8.95
  -6   5   9  141.99   13.98
  -6   5  -9  155.21   12.58
   1  -6  -9  149.27   12.85
   1  -6  -9  151.82   10.18
   5   1  10  815.89   39.27
  -1   6  10  783.96   36.83
  -1   6 -10  775.48   36.44
   6  -5  10  787.88   36.58
   6  -5 -10  803.03   35.97
  -1   6 -10  855.36   36.22
  -5  -1 -10  816.98   40.21
   5   1 -10  821.81   39.13
   1  -6 -10  736.87   36.23
  -1   6  10  818.12   37.20
   6  -5 -10  748.88   39.51
  -6   5  10  844.06   38.81
   1  -6  10  860.63   30.35
   1  -6 -10  843.83   37.04
  -6   5 -10  837.16   36.33
  -6   5 -10  825.26   31.49
   1  -6 -10  750.36   32.00
  -6   5 -11    3.83    6.10
   1  -6 -11   11.97    6.35
  -1   6  11    9.46    6.48
   5   1  11   22.46    8.10
   6  -5  11   10.27    6.26
  -1   6 -11   18.11    6.51
   6  -5 -11   21.67    7.92
   5   1 -11   17.13    8.03
  -1   6 -11   25.81    7.36
  -5  -1 -11   19.45    8.05
  -1   6  11   29.00    7.81
   1  -6  11   12.79    6.06
   1  -6 -11   23.38    7.05
   6  -5 -11    9.71    7.40
  -6   5  11    2.28    6.54
   1  -6 -11   18.51    4.33
   1  -6  11   16.06    3.16
  -6   5 -11   16.81    4.35
  -1   6 -12 1297.56   53.09
   6  -5  12 1146.99   51.28
  -5  -1 -12 1226.98   56.11
  -6   5 -12 1222.82   56.75
  -1   6  12 1215.61   52.02
   5   1  12 1229.63   54.26
   1  -6 -12 1211.42   52.50
   1  -6  12 1187.23   51.27
   6  -5 -12 1222.50   55.61
  -1   6  12 1257.78   52.51
  -6   5  12 1216.55   52.83
   1  -6  12 1360.84   42.48
   5   1 -12 1150.30   39.78
   6  -5 -12 1220.37   44.07
   1  -6 -12 1214.21   45.31
  -6   5 -12 1213.42   44.39
   6  -5  13   23.92    8.32
   5   1  13   16.86    8.47
  -1   6  13   16.90    7.45
   1  -6 -13   21.59    8.27
  -5  -1 -13   15.86    8.21
   6  -5 -13   28.65   10.19
  -6   5 -13   36.34   10.95
  -1   6 -13   21.01    8.45
  -6   5  13   25.84    7.85
   6  -5 -13   31.42    4.56
  -6   5 -13   19.80    4.70
   1  -6 -13   27.59    5.24
   1  -6 -14  585.32   33.80
  -5  -1 -14  667.39   38.07
  -1   6 -14  640.49   34.32
  -6   5 -14  564.55   36.58
  -1   6  14  636.79   33.85
   6  -5  14  573.88   32.84
   5   1  14  595.21   34.68
  -6   5  14  616.40   33.46
   6  -5 -14  658.51   25.15
   1  -6 -14  604.27   26.40
   6  -5  15   74.24   12.24
   5   1  15   39.28   11.89
  -1   6  15   66.54   12.20
  -1   6 -15   55.98   11.60
  -6   5 -15   69.15   14.71
   1  -6 -15   67.84   12.30
  -5  -1 -15   64.55   13.22
   6  -5 -15   62.10    5.96
  -6   5  15   68.78   11.94
   1  -6 -15   62.50    7.35
  -5  -1 -16  464.19   33.45
   5   1  16  423.71   30.87
  -1   6 -16  501.34   30.89
   1  -6 -16  460.05   30.62
  -1   6  16  459.49   29.72
   6  -5  16  516.86   31.17
  -6   5 -16  442.44   32.95
   5   1 -16  510.66   32.50
  -6   5  16  488.56   29.07
   1  -6 -16  475.66   21.96
   5   1  17   45.42   12.09
  -1   6  17   38.97   11.38
   6  -5  17   40.74   11.16
  -6   5  17   43.51   10.03
  -5  -1 -17   67.71   15.28
  -6   5 -17   43.21   13.29
   1  -6 -17   56.90   12.87
  -1   6 -17   62.40   12.90
   5   1 -17   51.40   12.81
  -1   6  18  471.08   31.96
  -1   6 -18  468.73   32.33
  -5  -1 -18  574.64   37.69
   5   1  18  515.14   33.91
   6  -5  18  509.39   32.69
  -6   5 -18  447.28   34.83
   1  -6 -18  464.13   32.58
  -6   5  18  463.02   29.15
   5   1 -18  482.52   33.68
   5   1  19   62.54   14.46
  -1   6  19   41.86   11.76
   6  -5  19   33.18   12.10
  -6   5  19   52.46   11.33
  -5  -1 -19   63.39   15.37
   5   1 -19   75.87   15.05
   1  -6 -19   44.97   13.65
  -1   6 -19   55.86   13.34
   6  -5 -19   49.33   14.46
  -6   5 -19   49.21   15.02
  -1   6 -20  217.94   23.56
  -1   6  20  190.13   21.19
   6  -5  20  181.34   21.08
   1  -6 -20  192.73   22.28
  -6   5  20  178.33   18.16
  -5  -1  20  202.31   20.86
  -5  -1  21   26.22   10.72
   4   2   0 1540.20   51.29
   2  -6   0 1569.92   57.47
  -2   6   0 1555.68   56.33
   6  -4   0 1542.05   59.19
  -6   4   0 1591.06   58.45
  -2   6   0 1582.70   52.30
   6  -4   0 1537.33   54.76
   2  -6   1  116.45    7.13
  -6   4   1  147.31    9.86
  -2   6   1  143.21   10.98
   2  -6   1  123.59    9.36
   2  -6  -1   99.87    9.82
  -2   6  -1  121.28    9.84
  -6   4   1  119.74   11.43
  -6   4  -1  109.78   10.44
  -2   6   1   84.53    9.25
   6  -4  -1  131.34   11.88
  -2   6  -1   98.03    7.11
   6  -4   1  142.40    9.23
  -2   6   1  120.13    7.34
   6  -4  -1  116.15    9.15
  -2   6   1  131.97   10.37
  -2   6   2    5.07    2.57
   2  -6   2    3.69    2.65
  -2   6   2    4.72    4.41
   4   2   2   12.25    4.33
  -6   4   2    6.38    3.31
   2  -6  -2    3.92    2.95
   2  -6   2    8.50    3.32
  -6   4   2    2.78    4.96
   4   2  -2    4.75    1.92
   2  -6  -2    5.17    3.88
  -6   4  -2    4.60    5.07
  -4  -2  -2    4.89    2.14
  -2   6  -2    7.74    4.24
   6  -4  -2    6.24    4.46
   2  -6  -2    1.95    3.35
  -2   6   2    4.46    4.01
   6  -4   2    3.84    3.21
  -2   6  -2    6.28    4.14
   2  -6  -2    2.65    2.49
   2  -6  -2   13.77    3.81
   2  -6   3 1847.34   63.88
   4   2   3 1985.70   67.24
  -2   6  -3 1883.59   63.59
  -2   6   3 1920.92   64.15
  -2   6   3 1924.04   68.92
   2  -6  -3 1841.25   64.42
  -4  -2  -3 1951.90   63.52
  -6   4  -3 1867.99   69.98
  -2   6  -3 1824.22   67.78
   2  -6  -3 1867.60   68.10
   6  -4  -3 1964.96   70.35
   2  -6   3 1962.54   65.47
   2  -6  -3 1972.76   66.44
   2  -6  -3 1933.99   66.61
   6  -4   3 1895.00   66.28
  -2   6   3 1838.08   65.89
   6  -4   3 1858.98   65.35
  -6   4  -3 1868.29   66.38
   2  -6  -3 1926.86   66.83
  -2   6  -3 1893.89   66.96
   2  -6  -3 1752.55   63.79
  -4  -2  -3 1922.84   69.88
  -2   6  -4    7.29    3.30
   6  -4   4    5.10    3.86
  -2   6   4    2.97    3.12
   4   2   4    3.06    4.61
  -4  -2  -4    6.66    3.24
  -2   6   4    8.84    4.92
   6  -4  -4    4.07    3.89
   6  -4   4    4.06    5.16
   2  -6   4    6.19    3.46
   2  -6   4    3.00    2.81
   6  -4  -4    6.78    4.96
   2  -6  -4    2.92    3.86
  -2   6  -4    3.66    4.70
  -6   4  -4   -2.69    5.25
   2  -6  -4    7.25    4.61
  -6   4  -4    7.14    4.49
   6  -4   4    3.37    2.47
   2  -6  -4    0.52    2.79
  -4  -2  -4    9.61    5.40
  -2   6  -4    7.43    4.10
   2  -6  -4    6.60    3.18
   2  -6  -4    5.40    3.51
  -2   6   5   79.13    7.45
   6  -4   5   87.89    8.29
  -2   6  -5   92.70    7.47
  -2   6  -5   60.65    7.52
   4   2   5   73.94    8.49
   2  -6   5   83.53    8.05
  -4  -2  -5   69.03    6.97
   6  -4  -5  115.71    9.51
   4   2  -5   87.68    9.53
   6  -4   5   46.15    8.85
   2  -6  -5   60.00    7.31
   2  -6   5   75.47    6.96
   6  -4  -5  110.99   11.70
   2  -6  -5   56.11    7.96
   2  -6  -5   34.86    7.57
   2  -6  -5   42.50    6.35
  -6   4  -5   72.47    8.32
  -4  -2  -5   54.69    9.19
   6  -4   5   46.00    5.66
   2  -6  -5   60.70    7.41
  -2   6  -6  408.83   20.57
  -2   6   6  425.96   20.67
   6  -4   6  448.12   23.99
   4   2   6  471.02   22.48
  -2   6  -6  438.50   19.84
   6  -4   6  424.63   21.35
   4   2  -6  438.16   22.67
   2  -6   6  420.41   20.47
   6  -4  -6  482.43   22.02
   2  -6  -6  408.07   19.76
   2  -6   6  423.13   18.70
   6  -4  -6  449.77   24.45
   2  -6  -6  384.09   21.15
   2  -6  -6  389.12   20.09
  -4  -2  -6  428.52   23.63
  -6   4  -6  436.22   21.41
   2  -6  -6  399.41   19.78
   6  -4   6  390.01   17.97
   6  -4  -7   97.09   10.16
  -2   6   7   60.37    8.76
  -2   6  -7   81.77    9.35
   4   2   7   82.22    9.54
  -2   6  -7   92.46    8.56
   6  -4   7   69.98    8.71
   6  -4  -7  109.12   12.95
   6  -4  -7  131.47   10.56
   2  -6   7   49.00    7.89
   4   2  -7   82.00    9.89
   6  -4   7   59.05    9.66
   2  -6  -7   46.71    8.85
   2  -6  -7   62.90    7.19
   2  -6   7   67.04    6.52
  -6   4  -7   59.56    8.96
   4   2   7   48.28    3.67
   2  -6  -7   52.28    8.06
  -4  -2  -7   59.29    9.76
   2  -6  -7   56.35    7.21
  -2   6  -8   22.06    5.54
   6  -4   8   12.49    5.21
  -2   6   8   19.26    5.31
   6  -4  -8   23.88    5.92
   2  -6  -8   17.94    5.40
  -2   6  -8   17.26    5.28
   6  -4   8   21.23    6.97
   4   2   8   19.24    6.14
   6  -4  -8   27.29    6.24
   2  -6   8   23.15    6.30
   2  -6  -8   17.78    5.88
  -4  -2  -8   22.10    6.87
   6  -4  -8   23.48    7.40
   4   2  -8   27.87    6.64
   2  -6  -8   24.07    6.21
   2  -6   8   17.95    3.60
  -6   4  -8   16.38    5.91
  -4  -2  -8   17.39    7.13
   2  -6  -8   23.95    4.85
   2  -6  -8   27.20    4.80
  -4  -2  -9 1352.43   56.54
   6  -4  -9 1461.97   54.29
  -2   6   9 1312.55   53.26
   6  -4   9 1359.90   54.43
  -2   6  -9 1396.68   52.32
  -2   6  -9 1408.24   54.68
   4   2  -9 1464.05   56.48
   2  -6  -9 1333.65   54.33
   6  -4  -9 1408.28   53.74
   4   2   9 1364.02   54.46
   6  -4  -9 1394.00   58.55
   2  -6   9 1364.01   53.36
  -2   6   9 1347.36   54.63
   4   2  -9 1267.68   45.93
   2  -6   9 1386.55   48.04
   2  -6  -9 1433.34   51.20
   2  -6  -9 1358.69   50.65
  -6   4  -9 1409.93   54.19
   2  -6  -9 1403.98   53.58
  -2   6  10    0.90    4.88
   6  -4 -10   11.67    6.16
   6  -4  10   -1.00    5.31
  -6   4 -10    0.93    5.43
  -2   6 -10    0.80    4.89
   2  -6 -10    3.49    5.36
  -2   6  10    2.01    5.51
   6  -4 -10    2.59    6.24
   4   2  10   -0.97    5.54
   2  -6 -10    1.00    4.82
  -2   6 -10    8.85    5.76
  -4  -2 -10   -4.75    6.12
   2  -6  10    3.60    2.65
  -6   4 -10    2.99    2.03
   4   2 -10    2.90    1.87
   2  -6 -10   -0.61    3.54
  -2   6  11   44.75    9.39
  -6   4 -11   21.10    8.47
  -2   6 -11   45.75    9.00
   6  -4  11   40.18    8.93
   2  -6 -11   31.36    9.10
  -2   6 -11   33.43    8.92
   2  -6 -11   43.57   10.07
   6  -4 -11   58.82   11.78
  -2   6  11   31.78   10.08
  -4  -2 -11   16.69    8.62
   4   2 -11   21.63    2.79
  -6   4 -11   21.75    3.45
   2  -6  11   38.54    4.69
   2  -6 -11   27.46    6.23
  -2   6 -12  415.85   24.62
  -4  -2 -12  374.31   26.31
   6  -4  12  446.39   26.34
  -2   6 -12  410.63   25.89
  -2   6  12  429.74   25.61
   6  -4 -12  434.18   28.17
   2  -6 -12  417.11   25.91
   2  -6  12  432.97   17.61
  -6   4  12  440.65   26.57
   2  -6 -12  390.59   20.73
   6  -4  13   11.22    8.89
  -2   6  13   28.07    9.84
   6  -4 -13   71.55   13.66
  -2   6 -13   28.05   10.04
   2  -6 -13   27.05   10.82
  -4  -2 -13   22.24    9.20
  -6   4  13  114.28   13.28
   2  -6  13   37.38    4.45
   2  -6 -13   16.56    6.21
  -2   6  14   17.69    7.76
   6  -4  14    9.33    8.10
   2  -6 -14    4.12    6.62
  -2   6 -14   12.37    7.42
   4   2 -14    4.35    7.48
  -4  -2 -14    7.92    8.68
   2  -6  14    4.03    3.44
  -6   4  14   -1.29    6.85
   2  -6 -14    1.36    5.01
   6  -4 -14    7.83    2.83
   2  -6  14    4.27    2.55
  -4  -2 -15 1041.70   52.22
   6  -4  15 1015.31   48.52
  -2   6  15 1067.00   48.88
  -2   6 -15 1034.93   49.56
   4   2 -15 1067.86   50.98
   2  -6 -15  950.50   48.81
  -6   4  15 1069.53   48.51
   6  -4 -15  983.67   36.26
   2  -6  15 1029.25   35.17
   2  -6 -15 1100.42   41.76
   6  -4  16    4.52    7.64
  -2   6  16   -7.25    8.17
  -2   6 -16    3.14    7.56
   4   2 -16    4.95    8.23
   2  -6 -16   -3.17    8.18
  -4  -2 -16   -5.37   10.22
  -6   4  16    8.20    7.49
   2  -6 -16   -5.67    7.19
   6  -4  17    9.60   10.20
  -2   6  17   56.91   13.09
   2  -6 -17   25.44   12.00
   4   2 -17   13.91   10.47
  -4  -2 -17   24.56   13.24
  -2   6 -17   30.10   11.20
  -6   4  17   64.35   11.26
   2  -6 -17   25.13    7.28
   6  -4  18  208.96   21.55
  -2   6 -18  193.28   21.67
  -4  -2 -18  184.93   22.72
  -2   6  18  211.30   22.37
  -6   4  18  240.87   20.78
   2  -6 -18  191.65   22.25
   4   2 -18  151.46   20.16
   6  -4  19   17.81   11.45
  -2   6  19   58.99   14.66
  -6   4  19   44.68   11.89
  -2   6 -19   33.87   14.29
   2  -6 -19   19.10   13.95
   4   2 -19   13.42   11.11
  -4  -2 -19   22.95   12.70
   6  -4 -19    8.15   11.35
   6  -4  20    3.75   10.27
  -2   6  20    3.65    9.71
  -4  -2 -20   -6.55   13.56
  -2   6 -20   -7.95   10.73
   2  -6 -20   -6.02   11.60
   4   2 -20   -7.95   10.41
  -4  -2  20   -6.94    9.09
  -6   4  20    7.32    7.67
   3   3   0 2920.43   98.66
  -6   3   0 3048.94   99.27
   3  -6   0 3035.85  100.41
   6  -3   0 3181.25  104.68
  -6   3   0 3054.41  103.44
  -3   6   0 2994.11  103.13
   3  -6   0 3027.43  104.69
  -3   6   0 2936.79  101.30
   3  -6   0 3121.66  102.69
   6  -3   0 3043.51  102.03
   3   3   0 3008.99  103.98
  -6   3   1   44.06    5.71
   3   3   1   53.08    5.40
  -3   6   1   54.65    6.96
   3  -6   1   52.60    5.73
  -6   3   1   46.37    7.01
  -3   6  -1   47.67    7.27
  -6   3  -1   54.19    7.25
  -3   6   1   42.13    6.95
   6  -3  -1   30.22    6.48
   3  -6  -1   44.06    6.11
   3  -6  -1   48.97    7.00
  -3   6  -1   59.82    6.96
   6  -3  -1   46.53    6.69
   3  -6  -1   50.61    6.41
   6  -3   1   47.38    6.27
   3   3  -1   51.09    8.15
   3   3   1   49.86    7.40
  -3   6  -2    7.06    2.03
  -3   6   2    9.25    2.23
   3   3   2    4.57    2.94
  -3   6   2   12.19    4.82
   3  -6   2    6.67    3.37
   3  -6  -2   13.32    4.00
   3  -6  -2    2.15    4.16
   6  -3  -2    6.94    4.51
  -3   6  -2    4.01    4.88
  -6   3  -2    7.68    4.84
   3  -6   2    2.58    2.76
  -3   6  -2    9.79    3.61
   3  -6  -2   12.36    3.90
   3  -6  -2    6.17    1.84
   6  -3   2    7.76    4.24
   3   3   2    6.78    4.66
   3   3   3   60.59    6.83
  -3   6  -3  112.54    6.61
  -3   6   3   77.73    5.78
   3  -6   3   91.63    8.05
  -3   6   3   91.36    9.39
   3  -6  -3   68.95    7.51
   3   3  -3  114.81    8.77
   3  -6   3   80.55    5.96
   6  -3  -3   87.90    9.19
  -6   3  -3   70.24    9.03
   3  -6  -3   74.60    6.97
  -3   6  -3   79.20    9.24
   3  -6  -3   71.09    8.36
   3  -6  -3   71.48    7.79
  -3   6  -3   91.84    8.19
   3  -6  -3   74.58    7.38
   6  -3   3   83.99    8.29
  -6   3  -3  108.19    9.37
   3  -6  -3   52.13    5.05
  -3  -3  -3   74.73    9.22
   3   3   3   83.19    9.03
   6  -3   4   30.78    5.75
  -3   6   4   27.37    4.03
  -3   6  -4   39.79    4.57
   3  -6  -4   33.87    4.26
   6  -3  -4   25.58    4.45
   3  -6   4   25.98    5.26
  -3  -3  -4   30.77    4.79
   3  -6  -4   28.46    5.04
   3   3  -4   37.46    5.80
   6  -3   4   30.77    6.30
  -3   6   4   27.43    6.03
   3   3   4   38.43    5.64
   3  -6  -4   35.80    6.11
   3  -6   4   30.03    3.47
   6  -3  -4   30.86    6.18
  -3   6  -4   30.69    6.80
  -6   3  -4   28.42    6.82
   3  -6  -4   40.90    5.85
   3  -6  -4   26.14    4.27
  -3   6  -4   31.00    5.53
  -3  -3  -4   30.15    6.43
   6  -3   4   35.60    4.19
   3   3   4   33.94    6.17
  -6   3  -4   20.86    5.73
   3  -6  -4   32.44    4.93
  -3   6   5    3.95    4.83
   3  -6   5   45.49    6.89
  -3   6  -5   33.93    6.31
   3   3   5    6.50    6.57
   6  -3   5   29.19    6.70
   3  -6  -5   -2.14    4.90
   6  -3  -5   12.75    5.05
   3   3  -5   38.85    7.42
  -3  -3  -5    5.06    4.44
   3  -6  -5   12.45    4.75
   3  -6  -5    3.72    5.21
   3   3   5    3.92    4.57
   6  -3   5   22.16    7.82
   6  -3  -5    4.92    5.16
   3  -6  -5    6.75    4.77
   3  -6  -5    9.06    3.66
   3  -6  -5    6.01    4.73
   3   3  -5   20.49    4.85
   3  -6  -5   11.26    4.41
  -3   6  -5   42.00    6.60
  -6   3  -5   10.23    5.94
  -3  -3  -5    5.54    6.45
   6  -3   5   21.29    3.83
  -3  -3  -6 1764.85   66.35
   3   3   6 1848.56   65.28
  -3   6  -6 1937.67   63.56
   6  -3   6 1921.49   68.95
  -3   6   6 1757.43   63.74
   3  -6   6 1821.52   65.40
   6  -3  -6 1836.89   64.13
  -3  -3  -6 1780.20   63.95
   3  -6  -6 1768.01   66.05
   3   3  -6 1903.72   66.33
   3  -6  -6 1840.83   67.56
   3  -6  -6 1827.38   66.66
   3  -6  -6 1814.36   63.72
   3  -6  -6 1789.90   68.34
   6  -3  -6 1966.51   68.93
   3   3  -6 1811.73   60.93
   6  -3   6 1769.67   66.61
   3   3   6 1790.32   68.09
  -3   6  -6 1790.97   64.64
  -6   3  -6 1793.95   66.33
   6  -3   6 1782.09   60.86
   3   3   6 1729.61   59.78
  -3  -3  -6 1826.65   68.16
   3  -6  -6 1767.51   63.51
   3  -6  -6 1849.19   64.98
   6  -3   7   28.72    7.27
  -3   6   7    9.19    5.76
   3  -6  -7   13.55    5.62
  -3   6  -7   24.49    7.15
   3   3   7   22.17    6.37
  -3   6  -7   50.08    7.73
   3  -6  -7    4.72    5.13
   3   3   7   17.42    6.05
  -3  -3  -7    7.36    5.94
   3  -6   7   62.54    8.51
   3  -6  -7   18.40    6.95
   6  -3  -7   23.12    8.05
   3   3  -7   36.65    7.34
   6  -3  -7   12.50    5.23
   6  -3   7   20.89    8.13
   3  -6  -7   18.10    6.46
   6  -3   7   23.20    3.81
  -3  -3  -7   18.64    7.33
  -6   3  -7   20.98    7.22
   3  -6  -7   26.53    5.46
   3   3  -7   15.21    4.28
   3  -6  -7   25.45    5.61
   3   3   7    9.29    2.59
  -3   6  -7   44.92    6.95
   6  -3  -8   40.68    7.24
   6  -3   8   40.75    7.22
  -3   6   8   48.48    6.76
   3   3   8   37.39    7.95
   3  -6  -8   43.00    6.57
  -3   6  -8   45.73    6.68
  -3   6  -8   53.54    7.78
  -3  -3  -8   39.78    7.69
   3  -6   8   41.91    7.34
   3   3   8   29.82    6.23
   6  -3  -8   47.69    8.91
   6  -3   8   44.37    9.00
   3  -6  -8   36.91    7.66
   3   3  -8   44.45    4.03
   3  -6  -8   46.99    7.76
  -6   3  -8   36.35    7.46
   3  -6  -8   40.02    5.39
   3  -6  -8   41.28    6.11
  -3  -3  -8   31.06    7.95
  -3   6  -8   43.62    6.56
   3  -6  -9   11.31    7.17
   3   3   9   27.56    8.52
   6  -3   9   26.97    7.74
  -3   6   9   14.29    6.67
  -3   6  -9   24.20    7.59
   6  -3  -9   20.07    7.42
  -3   6  -9   32.37    8.00
   3  -6   9   47.26    8.88
   3   3   9    7.65    6.79
  -3  -3  -9   18.92    7.84
   6  -3  -9    3.65    6.58
   3   3  -9    5.38    3.22
  -3  -3  -9   16.09    7.86
   3  -6  -9   14.68    4.86
  -6   3  -9   21.79    8.17
   3  -6  -9   25.42    5.96
   6  -3 -10    7.71    6.74
  -3   6 -10    4.19    5.49
   3  -6  10    8.44    5.56
   3   3  10    4.65    5.84
  -3  -3 -10    7.69    5.76
   3   3  10    2.25    5.90
   3  -6 -10    0.84    5.06
   6  -3  10    8.34    5.80
  -3   6  10    0.89    4.72
  -3   6 -10   12.53    5.76
   6  -3 -10    4.68    5.68
  -6   3 -10    0.98    5.93
   3  -6 -10   17.94    4.70
   3  -6 -10   11.23    4.03
   3   3  11   10.84    7.50
   3  -6 -11    9.27    6.95
  -3   6  11   13.71    8.03
   6  -3  11   46.06    9.72
  -3   6 -11    5.99    7.03
   3   3  11   14.16    7.34
  -3  -3 -11   12.04    8.14
   6  -3 -11    8.12    6.66
  -3   6 -11   33.30    8.79
   3  -6  11   36.87    9.69
  -6   3 -11   25.41    4.37
   3  -6 -11   19.73    5.53
   3  -6 -11   23.46    6.03
   3   3  12 1388.07   60.60
  -3   6 -12 1480.97   57.71
   6  -3  12 1417.52   60.02
  -3   6 -12 1495.08   61.08
  -3  -3 -12 1338.12   60.48
   3  -6 -12 1423.74   58.06
  -3   6  12 1436.25   58.87
  -6   3 -12 1494.18   64.61
   3   3 -12 1520.33   61.50
   6  -3 -12 1382.41   62.02
   3  -6 -12 1406.00   60.54
  -6   3 -12 1435.13   50.07
   3  -6 -12 1481.96   55.12
   3   3  13   19.12    9.48
  -3   6  13    9.30    8.89
   6  -3  13   44.16   11.36
   6  -3 -13    1.48    7.88
  -3  -3 -13   12.71    8.88
  -3   6 -13   28.30   10.67
   3   3 -13   10.52    8.45
   3  -6 -13   13.42    8.89
  -6   3 -13   16.74   10.64
  -6   3 -13   26.55    5.23
   3  -6 -13    8.35    6.39
   6  -3  14   12.48    8.23
  -3   6  14    5.05    7.21
   3   3  14   -1.45    8.73
  -6   3 -14    1.78    8.40
  -3  -3 -14    4.55    7.43
   3   3 -14    4.23    7.39
   3  -6 -14   11.52    7.89
  -3   6 -14    4.34    8.03
   6  -3 -14    4.12    2.42
   3  -6 -14    3.92    5.09
   6  -3  15   95.02   14.44
  -3   6  15   16.30   10.68
   3   3  15   52.53   12.02
  -3  -3 -15   64.80   14.03
  -3   6 -15   67.95   13.76
  -6   3 -15   93.77   16.21
   3   3 -15   47.98   12.24
   3  -6 -15   44.39   11.99
  -6   3  15   50.34   11.20
   3  -6 -15   72.03    9.53
   6  -3  16   20.08    9.16
  -3   6  16  -11.61   10.15
   3   3  16    4.88    8.40
  -3   6 -16   14.79    8.88
  -3  -3 -16    8.61    8.89
  -6   3 -16   19.70   11.83
   3   3 -16   20.79    8.51
   3  -6 -16    6.53    8.69
   3  -6  16   14.41    2.93
  -6   3  16   14.10    7.62
   3  -6 -16    6.66    5.57
   3   3  17   30.91   12.33
  -3   6  17    4.65   10.15
   6  -3  17   42.23   13.46
  -3  -3 -17   34.68   13.32
  -6   3 -17   43.28   12.95
   3   3 -17    5.06    9.90
   3  -6 -17   31.01   11.63
  -3   6 -17   13.94   10.72
  -6   3  17    2.87    8.41
   3  -6 -17    5.11    6.80
  -6   3 -18  633.03   41.76
  -3   6  18  536.46   35.27
   3   3  18  632.46   38.13
   6  -3  18  642.43   37.76
  -3   6 -18  559.72   37.34
  -3  -3 -18  623.57   39.53
   3  -6 -18  639.70   39.05
   3   3 -18  601.39   37.87
  -6   3  18  587.03   34.65
   3  -6 -18  665.03   30.31
   6  -3  19   36.12   13.38
   3   3  19   16.73   11.16
  -3   6  19   10.28   10.53
  -6   3  19   -1.49   10.07
   3   3 -19   -1.89   10.78
   3  -6 -19   34.73   11.99
   6  -3 -19    6.05   10.23
  -3  -3 -19   14.17   10.94
  -3   6 -19    5.82   10.94
  -6   3 -19   20.19   13.79
   6  -3  20   -7.57   10.94
  -3   6  20  -10.77   10.38
  -3  -3 -20    6.37   10.41
  -3   6 -20    2.04    9.46
   3  -6 -20   -2.03   10.15
   3   3 -20  -13.92   12.76
  -6   3  20    4.54    8.17
  -6   2   0 3649.65  115.02
   6  -2   0 3618.66  120.82
  -6   2   0 3581.75  120.04
  -4   6   0 3420.13  121.43
   4  -6   0 3561.23  122.92
   2   4   0 3533.17  117.75
   6  -2   0 3623.04  120.90
   4  -6   0 3709.64  120.11
   2   4   0 3403.14  120.42
  -4   6   0 3583.48  119.52
   2   4   1 2710.44   89.55
   2   4   1 2732.27   92.09
   6  -2  -1 2781.83   94.74
   4  -6  -1 2794.48   97.18
   2   4   1 2801.33   92.23
  -4   6  -1 2661.53   95.64
   2   4  -1 2778.27   91.79
  -6   2   1 2683.83   94.01
  -4   6   1 2717.66   95.61
  -6   2  -1 2781.11   94.36
   6  -2   1 2856.76   94.93
   2   4   1 2722.73   94.55
   6  -2  -1 2777.22   94.93
  -4   6  -1 2744.16   93.50
   2   4  -1 2733.18   94.95
   4  -6  -1 2840.58   94.50
   2   4   2  112.13    7.16
   2   4   2  125.94    8.77
   2   4  -2  126.02    7.71
   2   4  -2  130.01    6.25
   2   4  -2  124.79    8.07
  -4   6   2  125.08    8.90
  -2  -4  -2  128.19    6.39
   4  -6  -2  117.67   11.08
  -4   6   2  115.06   10.60
  -4   6  -2  120.39   10.83
  -6   2  -2  118.22    9.96
   2   4   2  127.41    8.80
   6  -2  -2  134.68   10.29
   4  -6  -2  132.17    9.80
   6  -2   2  132.48   10.28
   2   4   2  107.40    9.67
  -4   6  -2  129.99    9.25
   4  -6  -2  120.15    5.46
   4  -6   3 3095.93  103.45
   2   4   3 3093.88  100.40
   2   4  -3 3167.02  100.72
   6  -2  -3 3031.56   99.43
  -6   2  -3 2885.96  104.55
   2   4  -3 2996.69  100.49
   2   4   3 2982.72  101.76
   6  -2  -3 3194.31  104.73
  -4   6  -3 2955.89  106.30
   4  -6  -3 3277.70  107.23
  -4   6   3 3174.99  103.42
   2   4   3 3087.45  104.92
   4  -6  -3 3204.04  104.13
  -6   2  -3 3109.28  105.26
   4  -6  -3 2938.53   98.45
  -4   6  -3 3154.81  102.87
  -2  -4  -3 2943.59  104.75
  -4   6  -3 2966.98   98.01
   6  -2   3 3120.97  104.85
   4  -6   4  157.17   11.52
  -4   6  -4  190.29    9.23
   4  -6  -4  164.54    9.11
   6  -2  -4  177.71    9.83
   2   4   4  161.02   10.01
  -2  -4  -4  193.84   11.57
  -4   6  -4  159.88   13.50
  -6   2  -4  187.91   13.43
  -4   6   4  178.98   11.83
   6  -2  -4  189.52   12.87
   4  -6  -4  162.46   13.21
   2   4  -4  182.73    9.64
   2   4   4  176.11    9.64
   2   4   4  189.32   12.91
   6  -2   4  167.54   12.43
   4  -6  -4  173.02   11.62
  -4   6  -4  194.63   11.56
  -6   2  -4  178.99   12.80
  -2  -4  -4  173.23   12.77
  -2  -4  -5 1958.72   71.25
   4  -6   5 1999.08   72.64
  -4   6  -5 2098.49   69.28
   4  -6  -5 1967.55   69.34
   6  -2  -5 2068.42   69.70
   4  -6  -5 1928.96   73.52
   2   4   5 2046.95   70.82
  -2  -4  -5 2077.09   71.91
   4  -6  -5 1972.82   74.20
   2   4  -5 2000.29   68.43
  -4   6   5 2098.92   73.41
   6  -2  -5 2202.32   74.87
   4  -6  -5 2116.23   76.48
   2   4   5 1979.01   68.28
   2   4   5 2101.32   74.58
   6  -2   5 2088.97   74.29
   4  -6  -5 2179.32   73.08
  -4   6  -5 2056.19   71.34
  -2  -4  -5 2059.90   74.28
  -6   2  -5 2036.01   74.10
   4  -6   6 1769.53   60.52
  -2  -4  -6 1695.29   62.11
  -4   6   6 1615.43   60.12
   4  -6   6 1826.93   63.74
  -4   6  -6 1750.49   60.11
   4  -6  -6 1713.55   60.38
   4  -6  -6 1671.52   63.83
   4  -6  -6 1685.13   64.63
   2   4   6 1760.99   61.65
  -2  -4  -6 1778.95   62.46
   4  -6  -6 1734.53   66.36
   2   4   6 1731.24   60.53
   2   4  -6 1680.07   57.88
  -6   2  -6 1764.85   64.55
  -4   6  -6 1628.78   60.74
  -2  -4  -6 1710.68   64.40
   6  -2   6 1711.47   64.46
   6  -2   6 1707.66   57.11
   4  -6  -6 1730.47   62.42
   2   4   6 1678.30   57.74
   2   4   6 1707.13   64.82
   2   4   7 1800.66   67.44
   4  -6   7 1778.90   63.50
   4  -6   7 1750.13   65.56
  -4   6  -7 1790.46   63.04
  -2  -4  -7 1758.56   65.21
  -4   6   7 1709.15   63.35
   4  -6  -7 1699.01   63.03
  -2  -4  -7 1794.88   64.56
   4  -6  -7 1820.08   67.96
   2   4   7 1806.14   64.46
   4  -6  -7 1750.64   66.71
   4  -6  -7 1830.74   62.62
   2   4   7 1723.96   62.51
   2   4  -7 1696.52   59.41
  -2  -4  -7 1724.96   66.66
   6  -2   7 1784.32   58.44
  -6   2  -7 1733.93   66.60
   2   4   7 1764.69   59.37
   6  -2   7 1793.98   67.08
  -4   6  -7 1916.36   63.61
   4  -6  -7 1875.77   64.92
   6  -2   8   16.06    5.94
   2   4   8   19.21    6.29
  -4   6  -8   32.65    5.91
   4  -6  -8   29.94    6.22
   4  -6   8   20.73    5.57
  -4   6   8   34.25    6.37
  -2  -4  -8   26.58    6.40
  -4   6  -8   24.05    6.72
   4  -6  -8   24.22    6.77
  -2  -4  -8   39.66    7.03
   4  -6   8   35.45    7.17
   2   4  -8   39.67    6.70
   2   4   8   22.24    5.97
   4  -6  -8   31.52    6.88
   4  -6  -8   35.88    5.17
  -2  -4  -8   27.59    7.52
  -6   2  -8   22.56    7.10
   2   4   8   24.75    4.78
  -4   6  -8   28.22    5.41
  -4   6  -9 1330.92   54.42
   4  -6   9 1247.31   50.75
  -4   6   9 1289.01   51.05
   2   4  -9 1415.15   52.80
  -2  -4  -9 1327.57   53.08
   2   4   9 1326.13   53.93
   6  -2  -9 1364.37   52.82
   6  -2   9 1222.37   52.93
  -4   6  -9 1317.76   50.39
   4  -6  -9 1299.90   50.87
  -2  -4   9 1400.81   53.39
  -2  -4  -9 1259.80   50.80
   4  -6  -9 1314.14   54.00
   2   4  -9 1350.44   52.56
   4  -6   9 1292.84   52.29
   4  -6  -9 1284.94   47.97
  -4   6   9 1323.05   52.86
   2   4   9 1259.64   48.15
  -6   2  -9 1395.33   54.16
  -4   6  -9 1279.69   48.74
  -2  -4  -9 1281.48   53.43
   2   4  10   37.47    8.30
  -4   6 -10   36.09    7.06
   6  -2  10   36.07    8.30
   4  -6 -10   33.36    7.08
  -4   6  10   44.69    7.78
   4  -6  10   31.66    7.05
  -2  -4 -10   26.92    7.38
   4  -6  10   28.44    7.01
   2   4 -10   30.95    7.19
  -2  -4  10   27.48    7.85
  -4   6 -10   33.14    8.54
  -4   6  10   52.58    7.90
  -4   6 -10   28.12    5.63
   4  -6 -10   43.56    5.59
   2   4  10   38.62    5.82
   4  -6  11  829.29   37.71
   6  -2  11  845.55   40.22
  -4   6 -11  803.12   40.22
   2   4  11  752.34   38.99
  -4   6  11  844.56   38.05
  -2  -4 -11  843.04   39.57
  -4   6 -11  798.58   36.32
   4  -6 -11  895.88   38.08
  -2  -4  11  818.60   39.24
   2   4 -11  884.82   39.26
   2   4  11  834.00   33.75
   4  -6 -11  840.02   33.08
  -4   6  11  859.71   38.18
  -4   6 -11  823.09   34.04
   6  -2  12 1202.94   52.11
   4  -6  12 1108.58   49.21
  -4   6  12 1160.89   50.03
  -4   6 -12 1128.58   52.24
   2   4  12 1194.57   52.01
  -6   2 -12 1164.82   54.98
  -4   6 -12 1150.92   48.34
   4  -6 -12 1136.29   49.15
  -2  -4 -12 1190.19   51.86
  -2  -4  12 1230.77   52.08
   2   4 -12 1217.32   51.28
  -6   2 -12 1204.18   42.67
   4  -6 -12 1171.58   43.83
  -4   6  12 1128.27   49.15
  -4   6 -12 1124.08   44.66
  -2  -4 -13  926.33   46.78
   6  -2  13 1048.86   47.92
   2   4  13  981.22   47.40
   4  -6  13  984.72   45.48
  -4   6  13 1050.90   46.42
  -4   6 -13 1039.89   48.95
  -6   2 -13 1032.68   51.43
   2   4 -13 1061.67   47.31
  -6   2 -13 1081.35   38.77
   4  -6 -13  980.58   38.82
  -4   6  13 1010.20   44.77
  -4   6 -13 1017.43   40.40
   6  -2  14   14.29    8.19
  -4   6  14   27.47    9.06
   2   4  14   24.35    9.22
   4  -6  14   32.34    9.10
  -2  -4 -14   32.09   10.05
   2   4 -14   36.14    9.22
  -4   6 -14   22.87   10.11
   4  -6 -14   28.33    9.50
  -6   2 -14   21.45   10.76
  -6   2 -14   22.54    5.15
   6  -2 -14   23.39    2.89
  -4   6  14   28.87    7.60
  -4   6 -14   22.26    5.71
  -2  -4 -15 1043.78   51.52
  -6   2 -15 1006.22   53.87
   6  -2  15 1042.14   50.79
   4  -6  15 1069.89   49.42
  -4   6  15 1067.78   49.64
  -4   6 -15 1085.76   52.71
   2   4  15 1120.45   51.86
  -6   2 -15 1117.51   41.94
   4  -6 -15 1027.79   51.68
   2   4 -15 1122.53   51.77
   4  -6  16   17.09    9.83
   6  -2  16   28.89   10.02
   2   4  16   35.31   10.66
  -4   6  16   11.44    9.22
  -2  -4 -16   33.16   10.68
   2   4 -16   65.08   12.55
   4  -6 -16   28.83   10.35
  -6   2 -16   35.64   11.78
  -4   6 -16   48.10   12.46
  -6   2 -17  622.56   41.98
  -4   6 -17  624.55   39.93
   2   4  17  735.64   40.79
   6  -2  17  757.18   40.90
  -2  -4 -17  723.52   41.37
  -6   2  17  732.04   38.89
   2   4 -17  737.59   40.66
   4  -6 -17  740.34   41.97
  -6   2 -18  578.22   40.20
  -4   6 -18  616.97   38.77
   6  -2  18  595.01   37.28
   2   4  18  656.41   38.16
   2   4 -18  659.93   38.67
  -2  -4 -18  572.12   37.73
  -6   2  18  627.67   36.21
   4  -6 -18  636.84   39.15
  -6   2 -19  532.34   39.24
   2   4 -19  605.83   38.16
  -4   6 -19  561.74   38.30
  -2  -4 -19  505.21   36.26
   6  -2  19  621.72   37.82
   2   4  19  626.96   38.35
   4  -6 -19  630.19   39.29
  -6   2  19  606.54   35.41
  -4   6 -20   27.33   12.79
  -2  -4 -20   22.71   12.99
   2   4 -20   27.49   11.67
   4  -6 -20   22.56   12.33
  -6   2  20   23.51    9.98
  -6   2  21  538.18   33.57
  -5   6   0 1508.60   54.08
   5  -6   0 1518.05   59.25
   1   5   0 1592.64   54.39
  -6   1   0 1501.90   54.57
   6  -1   0 1526.77   57.47
   1   5   0 1508.63   55.81
  -5   6   1 1995.72   70.16
   1   5   1 1950.90   68.48
  -6   1  -1 1834.38   67.63
  -5   6  -1 2016.65   66.52
   1   5  -1 2013.58   67.03
   6  -1  -1 2018.37   68.62
   1   5  -1 1918.81   64.66
  -1  -5  -1 1855.45   65.08
   1   5   1 1954.98   67.34
   5  -6  -1 2077.90   73.04
  -5   6   1 2007.29   68.24
   6  -1   1 1924.31   70.44
   1   5   1 1961.07   69.05
   6  -1  -1 1946.68   71.09
   1   5  -1 1900.20   69.05
   5  -6  -2   53.70    4.26
   5  -6   2   58.33    4.00
   1   5  -2   52.39    3.80
   1   5   2   82.47    7.91
  -5   6   2   50.36    7.22
  -5   6  -2   33.12    4.86
   1   5  -2   56.66    5.39
   6  -1  -2   32.89    5.93
   5  -6  -2   51.64    8.85
  -6   1  -2   31.20    6.03
  -5   6   2   39.90    6.87
   1   5  -2   73.40    6.68
   1   5   2   46.99    6.73
  -1  -5  -2   50.68    5.25
   5  -6   2   75.07    7.79
   1   5   2   61.00    7.56
   6  -1   2   54.15    7.83
   5  -6  -2   80.65    8.13
   5  -6  -3 1524.52   52.24
   5  -6   3 1560.09   57.54
   5  -6   3 1540.96   51.84
   1   5   3 1561.66   56.46
  -5   6   3 1576.33   58.14
   1   5  -3 1498.81   51.69
   6  -1  -3 1511.05   51.28
   1   5  -3 1567.17   53.74
  -6   1  -3 1448.97   56.37
   1   5  -3 1510.64   53.64
  -5   6   3 1641.59   57.48
  -1  -5  -3 1523.13   53.74
   6  -1  -3 1610.93   56.34
   1   5   3 1538.44   54.93
   5  -6  -3 1574.04   60.13
  -5   6  -3 1534.98   51.66
   1   5   3 1521.32   56.77
   5  -6   3 1663.57   56.66
   1   5   3 1566.49   54.31
  -1  -5  -3 1512.78   56.92
   6  -1   3 1591.49   58.60
   5  -6  -3 1655.54   57.55
  -6   1  -3 1624.81   59.31
  -5   6  -3 1556.10   55.72
  -1  -5  -4   70.66    6.78
   5  -6   4  100.69    9.95
   5  -6   4   81.19    6.59
   5  -6  -4   91.54    6.91
   6  -1   4   63.38    9.13
  -5   6   4   79.16    9.08
   6  -1  -4   73.09    5.65
   1   5  -4   78.87    6.86
   5  -6  -4   82.22   10.27
  -5   6   4   70.31    8.71
   6  -1  -4   64.80    7.64
  -6   1  -4   57.01    8.25
   1   5  -4   93.75    6.89
   5  -6   4   81.92    8.11
  -1  -5  -4   72.67    8.77
  -6   1  -4   66.55    9.55
   6  -1   4   70.40    9.29
   1   5   4   71.09    8.63
   1   5   4   69.66    6.62
   5  -6  -4  112.55    9.41
  -5   6  -4   76.11    6.15
  -5   6  -4   82.82    8.52
   5  -6  -5 1360.52   49.92
  -1  -5  -5 1306.59   49.97
   5  -6   5 1457.46   54.21
   5  -6   5 1402.73   49.78
   6  -1   5 1486.13   55.59
   1   5  -5 1376.40   49.80
  -1  -5  -5 1419.51   52.99
   5  -6  -5 1390.49   53.60
  -5   6   5 1480.50   54.53
   5  -6  -5 1494.04   57.17
   6  -1  -5 1424.00   53.12
   1   5  -5 1429.29   49.06
   6  -1   5 1362.89   54.55
   1   5   5 1360.14   49.22
  -5   6  -5 1412.16   49.43
  -6   1  -5 1424.82   55.11
   1   5   5 1443.31   53.87
  -5   6  -5 1421.43   51.33
  -1  -5  -5 1410.71   53.70
   5  -6  -6  993.10   38.06
   6  -1   6  960.32   41.83
   5  -6   6  975.38   37.68
  -1  -5  -6  944.32   38.26
   5  -6   6  999.81   41.17
   5  -6  -6  959.61   40.68
   5  -6  -6  984.17   42.91
  -1  -5   6  976.03   38.57
   1   5  -6 1044.72   38.14
  -1  -5  -6  963.50   39.95
   1   5   6  964.02   37.79
  -5   6   6  942.20   41.02
   5  -6  -6  976.53   43.23
  -1  -5  -6  976.35   40.83
   6  -1   6  998.03   42.33
  -5   6  -6  979.02   37.19
   1   5   6  970.40   35.91
  -6   1  -6 1046.34   42.51
  -5   6  -6 1009.39   38.08
   1   5   6  967.54   40.95
  -1  -5  -7 1053.34   44.49
   5  -6  -7 1124.59   44.20
   5  -6   7 1179.33   47.28
   6  -1   7 1153.10   48.21
   5  -6   7 1160.26   44.32
   1   5   7 1188.69   47.38
   6  -1  -7 1114.28   49.16
  -1  -5  -7 1190.93   46.34
   1   5  -7 1177.97   44.49
  -1  -5   7 1156.35   45.11
   5  -6  -7 1159.62   47.18
   5  -6  -7 1242.07   49.82
   1   5   7 1119.88   43.22
   5  -6  -7 1155.46   49.67
  -5   6  -7 1160.28   43.74
  -6   1  -7 1134.27   48.01
  -5   6  -7 1170.12   43.71
  -1  -5  -7 1130.91   46.79
   6  -1   7 1172.28   38.48
   6  -1   7 1216.91   48.72
   5  -6  -8   22.88    7.66
   5  -6   8   32.44    8.31
  -1  -5  -8   11.05    6.51
  -1  -5  -8   16.92    6.34
   1   5  -8   43.60    7.32
  -1  -5   8   35.35    8.31
   6  -1  -8   13.62    7.40
   5  -6  -8   26.83    7.59
   6  -1   8   24.25    8.61
  -5   6  -8   31.32    7.34
   6  -1   8   29.24    8.07
   1   5   8   17.50    7.13
   5  -6   8   46.33    7.67
   5  -6  -8   37.42    7.53
   1   5   8   22.00    5.52
  -6   1  -8   20.34    8.06
  -5   6  -8   20.19    5.65
  -1  -5  -8   25.82    7.78
  -1  -5  -9  745.28   35.29
   5  -6   9  783.43   36.71
  -5   6  -9  777.61   34.06
   5  -6   9  768.45   34.56
   5  -6  -9  810.28   34.89
   6  -1   9  840.67   38.16
   1   5   9  774.50   36.54
   1   5  -9  834.84   35.87
   1   5  -9  840.22   35.43
  -1  -5  -9  760.86   34.95
   5  -6  -9  820.70   38.88
   6  -1  -9  804.16   39.11
  -1  -5   9  817.14   36.06
   5  -6  -9  796.70   31.70
   1   5   9  772.86   32.17
  -5   6  -9  827.32   32.43
  -1  -5  -9  788.45   36.49
  -5   6 -10   62.30    9.80
   6  -1  10   63.00   10.67
   1   5  10   54.41    9.92
   5  -6  10   71.89   10.32
   5  -6 -10   67.96    9.98
   1   5 -10   72.40   10.10
   5  -6 -10   55.73   10.46
  -5   6 -10   69.55   11.60
   6  -1 -10   58.89   11.17
   5  -6  10   77.81   11.72
  -1  -5  10   67.16   11.01
  -1  -5 -10   49.92    9.28
  -1  -5 -10   58.94   10.31
   1   5 -10   68.01   10.26
   5  -6 -10   66.55    6.92
  -5   6  10   36.17    8.89
  -5   6 -10   63.35    7.87
   1   5  10   56.54    7.35
  -1  -5 -10   54.84   10.60
   1   5  11  661.94   34.50
   5  -6 -11  758.70   33.79
  -1  -5 -11  633.47   33.81
  -5   6 -11  661.93   32.10
   5  -6  11  627.04   32.47
   6  -1  11  725.09   36.12
  -5   6 -11  676.49   36.41
   1   5  11  758.52   34.21
   5  -6 -11  721.84   36.77
   6  -1 -11  708.59   37.16
   1   5 -11  760.57   34.43
  -1  -5  11  768.07   35.27
   5  -6 -11  721.98   28.86
  -5   6  11  729.08   34.52
  -5   6 -11  660.50   29.02
  -5   6 -12  638.55   34.84
   1   5  12  591.23   31.70
   6  -1  12  592.32   32.39
  -1  -5 -12  556.83   31.10
  -5   6 -12  520.96   29.06
  -6   1 -12  501.13   33.13
   5  -6  12  554.73   30.48
   1   5  12  604.75   30.68
   6  -1 -12  591.29   33.31
   1   5 -12  626.33   31.64
  -1  -5  12  593.86   32.28
  -5   6  12  498.97   29.59
   5  -6 -12  578.47   24.80
  -5   6 -12  600.56   25.70
  -5   6 -13  854.48   44.44
   1   5  13  848.11   42.70
   6  -1  13  870.21   43.07
  -1  -5 -13  806.96   41.94
   1   5 -13  888.97   42.46
   5  -6  13  916.45   41.90
  -6   1 -13  902.57   46.60
   6  -1 -13  884.25   44.26
   5  -6 -13  880.79   34.34
  -5   6  13  898.00   41.17
  -6   1 -13  926.11   35.31
  -5   6 -13  858.33   35.18
   6  -1  14   43.81   11.52
   5  -6  14   52.68   11.42
   1   5  14   23.84    9.33
   1   5 -14   38.24   11.10
  -5   6 -14   55.63   12.53
  -1  -5 -14   32.65   10.81
  -6   1 -14   16.13   10.54
  -5   6  14   24.62    8.81
  -6   1 -14   19.93    5.56
  -5   6 -14   39.37    7.07
   5  -6 -14   32.14    5.73
   5  -6  15  551.15   31.96
  -5   6 -15  511.92   34.38
   6  -1  15  602.28   34.42
   1   5  15  576.57   33.31
  -1  -5 -15  531.23   33.10
   1   5 -15  584.22   33.19
  -6   1 -15  541.10   36.04
  -6   1 -15  561.38   25.83
   5  -6 -15  552.99   24.00
  -5   6  15  591.95   31.58
   5  -6  16   23.14   10.39
   6  -1  16   32.74   11.86
   1   5  16   26.47   10.71
  -6   1 -16    7.34    6.19
  -5   6  16   18.53    9.03
  -5   6 -16   20.16   11.27
  -1  -5 -16   45.39   12.40
   1   5 -16   28.88   11.19
   5  -6 -16   15.63   10.06
  -6   1 -16   17.96    9.80
   1   5 -17  422.44   28.29
  -6   1 -17  322.50   29.26
   5  -6  17  338.39   25.81
  -5   6 -17  348.99   29.16
  -1  -5 -17  336.12   26.97
   6  -1  17  397.06   28.48
   1   5  17  327.33   26.03
  -5   6  17  374.84   24.57
   5  -6 -17  374.41   29.25
  -5   6 -18  270.67   26.44
   5  -6  18  283.01   24.27
  -1  -5 -18  324.13   27.31
   6  -1  18  301.66   25.71
  -6   1 -18  338.75   29.67
   1   5  18  333.98   26.07
   1   5 -18  363.08   27.02
  -5   6  18  258.33   21.19
   5  -6 -18  304.31   27.40
  -6   1 -19  389.48   33.07
   5  -6  19  374.90   28.70
  -1  -5 -19  372.53   30.69
  -5   6 -19  363.43   31.17
   1   5 -19  463.43   31.81
   6  -1  19  404.44   30.65
   1   5  19  407.26   30.67
  -6   1  19  464.60   30.35
   6  -1 -19  446.78   32.50
   5  -6 -19  415.20   32.14
   5  -6  20   23.25   10.74
   1   5 -20    9.68   11.48
  -1  -5 -20   -4.08   11.80
  -6   1  20   -3.24   10.06
  -6   1  21  234.08   22.41
   0   6   0  100.81    7.69
   6  -6   0  100.63   11.15
  -6   6   0  115.37    8.74
   0  -6   0  109.13    8.59
  -6   0   0  101.31    7.54
  -6   6   0   70.12    8.91
   6   0   0  105.41   10.61
   0   6   0  103.28    8.26
   6  -6   0   89.54    5.78
   0   6   1  178.43   12.27
  -6   6   1  173.44   12.37
   0   6  -1  173.85   10.56
   6  -6  -1  181.89   14.38
   0   6   1  172.09   10.64
   6   0  -1  172.44   10.55
  -6   6  -1  171.50   10.68
  -6   0  -1  165.46   10.08
  -6   6   1  174.05   13.53
   0  -6   1  192.68   11.28
   0   6  -1  174.60   10.16
  -6   6   1  166.21   11.72
   0  -6  -1  173.61   10.63
  -6   6  -1  170.72   13.14
   6  -6   1  187.83   12.10
   0   6   1  159.92   10.95
   0   6   1  181.68   11.23
   0   6  -1  165.10   11.12
   6   0  -1  172.59   13.62
   6  -6   1  167.22    8.49
   6  -6  -1  169.55    8.41
   6   0   1  184.44   13.59
   6  -6   2  226.36   10.83
  -6   6   2  229.57   14.79
   0   6   2  221.92   14.27
   0  -6  -2  241.68   12.98
  -6   6  -2  234.08   12.19
   6  -6  -2  240.26   16.88
   0  -6   2  250.29   13.12
  -6   6   2  236.40   14.63
  -6   0  -2  235.47   12.72
   0   6   2  227.84   12.76
  -6   6   2  220.18   15.47
  -6   6  -2  226.90   16.06
   6   0  -2  238.66   12.65
   0   6  -2  222.66   12.34
   6   0   2  211.89   15.12
   0   6   2  225.31   12.84
   0   6   2  224.10   13.50
   6  -6   2  247.78   14.11
   0  -6  -3 1180.79   42.68
   6  -6   3 1315.26   44.72
   6  -6  -3 1308.55   44.93
   0   6  -3 1240.45   42.33
   0   6   3 1208.75   48.98
  -6   6   3 1401.06   50.28
   0   6  -3 1218.61   46.60
  -6   0  -3 1278.55   47.18
   0   6   3 1256.84   46.72
  -6   6  -3 1288.50   44.85
   0  -6  -3 1258.08   46.96
   6  -6  -3 1434.33   53.59
   0  -6   3 1398.41   47.06
  -6   6  -3 1258.81   52.00
  -6   6   3 1313.04   49.79
   6   0  -3 1321.08   46.74
   0   6   3 1223.04   46.45
   6  -6   3 1270.72   47.75
   6   0   3 1275.04   50.73
   0   6   3 1331.94   48.42
   0  -6  -3 1281.42   47.85
  -6   6  -3 1332.95   44.77
   6  -6   4   84.11    6.64
   0   6  -4   90.83    5.87
   0  -6  -4   68.37    5.68
   6  -6  -4   84.95    6.69
   0   6   4   80.13    6.32
   0   6   4   64.72    8.04
  -6   6   4   71.19    8.87
   6   0   4   72.69    8.98
   6  -6   4   76.13    8.93
   0   6  -4   70.26    7.49
  -6   6   4   82.26    8.82
   0  -6   4   81.95    6.98
   6  -6  -4   73.34    9.52
  -6   6  -4   76.02    5.32
  -6   6  -4   74.85   10.15
   0  -6  -4   69.12    7.51
  -6   0  -4   57.47    7.60
   6   0  -4   91.00    7.84
   6   0   4   90.65    9.75
   0  -6  -4   77.76    7.94
   6  -6   4   73.00    7.45
   0   6   4   77.50    8.11
   0   6   4   81.08    7.10
  -6   6  -4   65.65    6.08
   0   6   5   41.16    6.74
   6  -6   5   46.80    5.92
   6  -6  -5   54.48    6.15
   6  -6   5   41.16    7.63
   0   6  -5   37.54    4.91
   0  -6  -5   42.19    5.45
   0   6   5   43.79    5.66
   0  -6   5   36.83    5.23
   6   0   5   48.24    7.85
  -6   6   5   42.82    7.19
   6   0  -5   37.63    6.00
   0  -6   5   46.30    5.31
   0  -6  -5   56.01    6.87
   6  -6  -5   52.70    8.68
  -6   6  -5   42.96    8.79
  -6   6  -5   48.48    3.44
  -6   6  -5   57.68    5.91
   0   6   5   52.66    5.77
   0  -6  -5   49.07    7.26
   6   0   5   44.69    7.78
   6  -6   5   41.93    5.86
   6  -6  -6   58.91    6.94
   0   6   6   77.05    8.58
   6  -6   6   44.73    6.44
   0  -6  -6   72.17    7.32
   0  -6  -6   70.55    8.83
   0   6  -6   55.50    6.37
   6  -6  -6   74.99    8.59
   6   0   6   64.39    9.11
   0   6   6   69.19    7.18
   6  -6   6   57.67    8.59
   0  -6   6   72.49    7.37
   6  -6  -6   73.88    9.90
  -6   6   6   67.75    8.70
   0   6   6   66.79    6.99
   0  -6   6   68.70    6.19
  -6   6  -6   52.67    9.58
   0   6   6   62.52    6.38
   0  -6  -6   53.80    8.07
   6   0   6   81.49    9.86
  -6   6  -6   73.90    7.21
   6  -6   7  123.49    9.94
   6   0   7  121.40   12.26
   6  -6  -7  112.76    9.53
   0   6  -7  103.49    9.07
   0   6  -7  100.06    9.90
   6  -6   7  127.33   12.18
   0   6   7  125.23   11.25
   0  -6  -7   92.19    9.03
   6  -6  -7  119.93   12.77
   0  -6  -7  111.04   11.07
   0   6   7  108.02    9.69
   0  -6   7  112.02    9.76
   6  -6  -7  108.83   10.82
   6   0  -7  107.34   11.90
  -6   6   7  122.99   11.71
   6  -6  -7  115.23   12.74
   0   6   7  107.56    8.86
   0  -6  -7  110.98   10.31
   0  -6  -7  106.41   10.92
  -6   6  -7  109.82    9.38
  -6   6  -7  119.92    9.15
   6   0   7  100.07   11.68
   6  -6  -8   63.39    8.21
   0   6   8   61.87    8.59
  -6   6  -8   46.64    7.36
   0   6  -8   52.86    8.11
   6  -6   8   42.10    6.84
   6   0   8   44.09    8.46
   6  -6   8   55.64    9.53
   6   0   8   36.16    8.19
   0   6  -8   56.33    7.23
   0  -6  -8   38.32    6.79
   0  -6   8   35.48    6.96
   6  -6  -8   54.96    9.88
   6   0  -8   49.37    9.17
   6  -6  -8   42.99    8.05
   0  -6  -8   47.43    8.02
   0   6   8   44.59    7.64
   6  -6  -8   43.13    9.06
   0   6   8   40.45    5.92
  -6   6  -8   38.49    6.00
   0  -6  -8   61.03    8.95
   0   6  -9  491.61   24.91
   0   6  -9  450.47   23.64
   6   0   9  496.57   27.56
   0  -6  -9  449.87   24.29
   6  -6  -9  466.53   23.94
   0   6   9  495.83   26.04
   6  -6   9  466.86   24.04
   6   0  -9  491.23   27.84
   6  -6  -9  428.11   27.38
   0   6   9  452.22   23.97
   0  -6   9  472.27   24.29
   0   6   9  462.32   21.92
  -6   6  -9  522.02   22.32
   0  -6  -9  487.06   25.74
  -6   6  -9  446.21   23.45
   0   6  10  142.59   13.31
   0   6 -10  144.06   12.64
   6   0  10   92.05   12.38
   0  -6 -10  128.20   12.82
   6  -6 -10  143.10   12.65
   6  -6  10  115.60   11.68
   0   6 -10  113.46   11.86
   6  -6 -10  156.17   15.44
   0  -6  10  123.47   12.45
   6   0 -10  140.94   14.57
   0   6  10  127.51   12.70
  -6   6  10  117.24   12.66
  -6   6 -10  128.64   11.88
   0  -6 -10  136.74   13.61
  -6   6 -10  130.86    9.88
   6   0  11   59.84   10.62
   6  -6  11   73.01   10.15
   0   6  11   47.00    9.70
  -6   6 -11   63.27    9.22
   6  -6 -11   63.94    9.99
   0   6  11   53.80   10.12
   6  -6 -11   65.12   11.67
   6   0 -11   52.35   10.28
   0   6 -11   52.37    9.08
   0  -6  11   59.05    9.85
   0  -6 -11   61.41    9.55
   6  -6 -11   43.78    5.99
  -6   6  11   47.53    9.52
  -6   6 -11   46.40    6.53
   6   0  12   81.25   12.46
   6  -6  12  100.73   12.04
   0   6  12   62.36   11.07
   0   6  12   86.06   11.89
   0   6 -12  107.07   12.43
   0  -6 -12   95.39   12.55
   0  -6  12   72.39   11.96
   6  -6 -12   94.45   13.19
   6   0 -12  121.12   13.82
   6  -6 -12  116.00    8.77
  -6   6  12  121.29   13.16
  -6   6 -12   94.95    8.58
   6   0  13   24.21    9.18
   6  -6  13   25.65    8.20
   0   6  13   41.05    9.91
   0   6 -13   23.83    8.23
   0  -6 -13   36.65    9.69
  -6   6 -13   16.42   10.79
  -6   0 -13   25.27   10.15
  -6   6  13   42.55    9.12
   6  -6 -13   24.57    4.82
  -6   6 -13   29.15    5.96
   6  -6  14  123.37   14.55
   6   0  14  107.40   15.14
   0   6  14  116.57   14.50
  -6   6  14  120.75   13.88
   6  -6 -14  119.12    8.86
   0  -6 -14  122.02   15.30
   0   6 -14   99.94   13.56
  -6   6 -14  123.84   16.95
  -6   0 -14  118.30   16.59
  -6   0 -15  462.93   32.12
  -6   6 -15  435.17   31.32
   0   6  15  345.82   25.77
   6   0  15  395.77   27.99
   6  -6  15  392.65   26.56
   0   6 -15  393.06   27.00
   0  -6 -15  379.92   26.95
   6  -6 -15  460.37   19.66
  -6   6  15  404.87   25.99
   0   6  16   22.69    9.62
   6  -6  16   12.95    9.16
   6   0  16   25.27   10.60
  -6   6 -16   15.63   10.57
  -6   0 -16   20.13   10.73
   0  -6 -16   31.69   10.49
   0   6 -16   19.59    9.69
  -6   6  16   10.55    7.84
   6  -6 -16   16.33    4.63
   0   6  17   83.37   14.49
   6  -6  17   90.74   14.27
   6   0  17   77.61   14.68
  -6   6  17   54.36   11.12
   0   6 -17   67.80   13.30
   0  -6 -17   50.71   12.52
  -6   0 -17   95.11   17.20
  -6   6 -17   65.80   15.51
   0   6  18   16.89    9.53
   6  -6  18   16.38   10.42
   6   0  18   24.06   11.89
  -6   6  18   35.94   10.26
   0  -6 -18   12.54   10.89
  -6   6 -18   17.20   13.22
   0   6 -18   18.99   10.50
   6   0 -18   15.06   10.18
   6  -6 -18   11.85   10.99
  -6   0 -18   13.27   12.97
   0   6  19   10.64    9.72
   6  -6  19    5.19   10.27
   6   0  19   36.39   12.55
  -6   6  19   15.43    9.01
   0   6 -19    3.68   11.57
  -6   0 -19   13.84   13.00
   6   0 -19    1.98   12.28
   6  -6 -19   16.58   11.84
   0  -6 -19   13.40   10.94
  -6   6 -19   13.45   12.97
   6  -6  20   67.52   14.73
   0   6 -20  102.49   16.78
   0  -6 -20   84.34   15.96
  -6   0  20   60.02   13.49
  -6   0  21  164.79   19.45
  -7   6   0 1552.77   58.01
  -1   7   0 1574.30   56.50
  -7   6   0 1586.70   61.07
   1  -7   0 1564.56   57.04
  -1   7   0 1548.24   55.39
   7  -6   0 1597.23   58.13
   7  -6   0 1515.58   54.10
   6   1   0 1599.92   61.19
  -1   7   0 1586.56   57.22
  -1   7   1  453.22   23.27
  -7   6   1  484.96   23.00
  -1   7  -1  457.84   21.44
  -7   6  -1  469.89   25.33
   1  -7  -1  465.16   22.38
  -6  -1  -1  465.32   18.82
   1  -7   1  473.20   21.72
  -7   6   1  467.49   24.94
  -1   7   1  461.84   21.64
  -1   7  -1  456.66   21.96
   7  -6   1  510.76   22.90
  -1   7  -1  470.18   20.60
   6   1   1  440.28   24.20
  -1   7   1  423.61   20.41
   6   1  -1  472.35   25.56
   7  -6  -1  432.25   19.32
   7  -6   1  458.34   19.85
  -7   6   2  134.86   11.33
  -1   7   2  134.27   11.68
   1  -7  -2  145.94   11.24
   6   1  -2  135.80    8.54
  -7   6   2  128.91   12.56
  -6  -1  -2  138.59    8.46
  -1   7  -2  150.23   10.41
   1  -7   2  163.70   10.58
  -7   6  -2  174.81   14.21
   7  -6   2  124.40   10.07
  -1   7  -2  130.98    9.49
   6   1   2  159.91   13.30
  -1   7   2  128.13    9.91
   7  -6   2  120.36    8.79
  -1   7   2  128.76    9.76
   7  -6  -2  152.86    9.10
   6   1   3 3696.32  120.38
   1  -7  -3 3272.63  112.08
  -1   7   3 3693.25  121.09
  -7   6   3 3684.40  120.03
   1  -7   3 3248.87  111.74
  -6  -1  -3 3296.59  115.01
   1  -7   3 3757.96  117.52
   6   1  -3 3622.70  115.01
  -7   6  -3 3490.25  123.07
   1  -7  -3 3673.27  118.36
  -1   7  -3 3501.38  117.74
   1  -7  -3 3598.34  118.83
   7  -6   3 3747.15  118.46
  -1   7   3 3542.56  117.29
  -1   7   3 3579.64  117.11
   6   1   3 3680.76  122.16
   1  -7  -3 3451.95  116.70
   7  -6   3 3592.79  115.87
  -1   7   4   45.45    6.41
   1  -7  -4   47.01    4.57
   7  -6   4   59.41    6.42
  -6  -1  -4   50.72    4.59
   7  -6   4   41.40    8.15
  -1   7   4   46.86    7.52
   1  -7   4   54.66    4.94
   6   1   4   42.89    7.81
  -1   7  -4   53.94    7.24
   1  -7  -4   54.75    7.42
   6   1  -4   58.63    6.08
  -7   6  -4   52.03    9.52
  -6  -1  -4   52.55    6.42
   1  -7  -4   53.62    6.69
   1  -7  -4   48.94    6.81
  -7   6  -4   48.79    6.34
   1  -7   4   51.18    6.11
   6   1   4   47.57    8.28
  -1   7   4   49.03    6.33
   7  -6   4   53.16    6.76
   1  -7  -5  134.52    9.14
   7  -6  -5  143.00   10.36
   6   1   5  158.35   12.76
  -1   7   5  136.25   10.52
   7  -6   5  158.33   13.60
   7  -6   5  148.52   10.59
  -1   7  -5  145.12    9.10
   1  -7   5  132.05    8.91
  -7   6  -5  150.56   14.49
   1  -7   5  148.45   10.14
  -1   7  -5  149.51   12.21
   1  -7  -5  149.73   10.93
   1  -7  -5  166.62   12.07
   6   1  -5  163.00   10.44
   1  -7  -5  136.96   11.53
   7  -6   5  147.10   10.51
  -1   7   5  139.77   10.24
   6   1   5  150.39   13.34
   1  -7  -5  136.14   10.94
  -7   6  -5  170.73   10.81
   7  -6   6  914.65   36.42
   7  -6   6  890.60   39.83
   1  -7  -6  850.80   34.96
  -1   7  -6  926.56   34.90
  -1   7  -6  944.35   36.34
   7  -6  -6  899.12   36.14
   6   1   6  947.86   39.58
  -1   7   6  853.10   36.62
   6   1  -6  860.57   39.86
   1  -7   6  828.47   34.38
   7  -6  -6  870.51   37.57
   1  -7   6  953.23   35.08
   1  -7  -6  883.01   38.24
   1  -7  -6  916.00   37.74
   6   1   6  869.37   40.40
  -7   6  -6  930.98   36.09
   1  -7  -6  852.85   36.77
   7  -6   6  901.61   35.53
  -1   7   7  177.82   13.17
   7  -6  -7  184.44   12.65
  -1   7  -7  182.33   12.89
   7  -6   7  188.39   13.01
   1  -7  -7  167.67   11.99
  -1   7  -7  208.19   12.58
   6   1   7  198.31   15.32
   7  -6   7  161.28   14.78
   7  -6  -7  191.74   13.99
   6   1  -7  226.38   16.86
   1  -7   7  192.51   12.21
   1  -7  -7  202.17   15.28
  -7   6   7  158.16   14.68
   1  -7   7  190.65   11.23
  -7   6  -7  168.63    7.43
  -7   6  -7  207.40   13.11
   6   1   7  199.86   16.27
   1  -7  -7  169.15   13.05
   1  -7   8   28.02    6.60
   6   1   8   17.15    7.46
  -1   7  -8   24.52    6.04
   1  -7  -8   37.72    6.71
   6   1  -8   37.81    8.47
   7  -6  -8   32.92    9.40
   7  -6  -8   29.18    7.16
  -1   7   8   25.20    6.57
   7  -6  -8   30.96    6.94
  -1   7   8   21.90    6.49
  -1   7  -8   28.93    6.53
   7  -6   8   22.33    6.32
   6   1   8   23.98    7.74
   6   1   8   26.08    1.89
  -7   6  -8   23.31    5.98
   1  -7  -8   18.13    6.35
   1  -7   8   26.08    4.83
  -1   7  -9 2544.82   87.70
  -1   7   9 2450.80   88.83
   7  -6   9 2447.03   88.15
   1  -7  -9 2334.96   87.48
   7  -6  -9 2394.35   87.39
  -1   7  -9 2547.92   87.73
   1  -7   9 2259.60   86.50
   6   1  -9 2420.81   91.68
   7  -6  -9 2423.21   94.08
  -1   7   9 2430.87   88.14
   1  -7   9 2480.69   82.95
  -7   6  -9 2426.83   87.24
   1  -7  -9 2492.59   88.73
   6   1   9 2600.36   93.07
   6   1 -10   31.02    8.71
   1  -7 -10   29.70    7.41
   7  -6 -10   20.14    9.46
   1  -7  10   19.50    6.92
  -1   7  10   37.85    8.35
  -1   7 -10   34.98    7.66
   6   1  10   21.53    8.00
   7  -6 -10   12.54    6.69
  -1   7  10   25.03    8.12
  -1   7 -10   30.18    7.62
   7  -6  10   25.00    7.28
  -7   6 -10   15.79    6.84
   1  -7 -10   26.35    5.69
   1  -7  10   35.82    4.85
   1  -7 -10   16.36    7.28
  -1   7  11  193.11   15.85
   1  -7 -11  153.33   14.01
   7  -6  11  184.02   15.14
  -1   7 -11  165.78   14.34
   6   1  11  169.08   16.59
   1  -7  11  165.02   14.54
   6   1 -11  144.56   15.66
   7  -6 -11  172.54   17.53
  -1   7  11  133.55   14.41
   1  -7  11  174.84    9.74
  -7   6  11  174.87   16.22
  -7   6 -11  148.84   13.94
   1  -7 -11  160.61   11.48
  -1   7 -12  777.25   36.51
  -1   7  12  760.12   36.73
   6   1  12  769.77   39.34
   7  -6  12  707.54   35.69
   1  -7 -12  704.37   36.03
   6   1 -12  772.72   39.12
   1  -7  12  721.91   35.76
   7  -6 -12  680.12   39.08
  -7   6  12  702.71   37.00
   1  -7 -12  760.73   31.17
   6   1  13  132.10   15.74
  -1   7  13  134.39   14.50
   1  -7 -13  147.02   14.94
   7  -6  13  128.39   13.92
  -1   7 -13  106.45   13.38
   7  -6 -13  136.45   16.47
  -7   6  13  110.67   13.99
   7  -6 -13  133.12    9.57
   1  -7 -13  156.28   11.20
  -1   7  14   18.34    9.09
   7  -6  14   11.65    8.14
   6   1  14    6.24    8.91
   1  -7 -14    6.78    8.06
  -1   7 -14   17.06    7.98
   7  -6 -14   -1.67    9.16
  -6  -1 -14   23.30   10.77
  -7   6  14   17.69    7.88
   1  -7 -14   14.16    5.02
   7  -6 -14   25.04    4.73
  -6  -1 -15 1593.88   73.24
  -1   7 -15 1577.88   68.10
   6   1  15 1645.82   70.87
  -1   7  15 1648.34   68.06
   7  -6  15 1593.76   67.34
   1  -7 -15 1597.07   68.36
  -7   6  15 1630.46   68.16
   7  -6 -15 1617.75   57.35
   1  -7 -15 1633.12   58.86
  -1   7  16   13.39    9.15
   7  -6  16   13.22    9.24
   6   1  16   18.92    9.57
  -7   6  16   11.40    7.71
   1  -7 -16   13.97    9.33
  -1   7 -16   30.31    9.94
  -6  -1 -16    8.02   13.01
   7  -6  17   56.14   12.28
  -1   7  17   50.04   11.88
   6   1  17   50.87   12.81
  -7   6  17   60.93   11.67
   1  -7 -17   64.51   13.28
  -1   7 -17   46.87   12.08
  -6  -1 -17   31.70   13.80
  -6  -1 -18  374.90   31.93
   7  -6  18  401.82   28.76
   1  -7 -18  319.16   27.32
   6   1  18  364.06   29.26
  -1   7  18  373.73   27.68
  -1   7 -18  369.55   28.34
  -7   6  18  373.24   26.37
   6   1 -18  381.40   29.73
   6   1 -19   64.83   15.07
  -1   7 -19   36.17   12.05
   1  -7 -19   41.07   13.02
  -6  -1 -19   37.04   15.38
  -1   7  19   54.05   13.49
   7  -6  19   48.57   12.11
  -1   7 -20   26.72   11.61
   1  -7 -20    7.88   10.66
   7  -6  20   29.38   12.04
   2  -7   0  586.77   21.50
  -7   5   0  692.21   27.12
   7  -5   0  665.23   31.14
   2  -7   0  573.42   27.98
  -7   5   0  508.13   28.62
  -2   7   0  565.38   26.99
  -2   7   0  625.61   23.75
   7  -5   0  631.72   25.61
   2  -7   1 1444.62   49.26
   2  -7  -1 1464.15   49.66
  -2   7   1 1623.10   57.55
   5   2  -1 1382.53   48.60
  -7   5   1 1559.08   54.79
   7  -5  -1 1550.74   59.37
   2  -7  -1 1549.11   56.65
   2  -7   1 1576.64   54.45
  -7   5   1 1456.06   57.95
  -2   7  -1 1495.50   55.15
  -7   5  -1 1509.59   58.17
  -2   7   1 1534.32   54.78
   7  -5  -1 1479.73   53.33
  -2   7   1 1567.99   51.47
  -2   7  -1 1554.41   51.35
   7  -5   1 1477.88   53.32
   2  -7   2  788.95   28.17
  -7   5   2  787.93   32.49
  -2   7   2  827.06   35.02
   7  -5  -2  815.96   36.57
   5   2  -2  812.18   27.67
   2  -7   2  866.71   32.35
   2  -7  -2  831.69   34.53
   2  -7  -2  799.57   32.28
   2  -7  -2  801.38   32.25
  -7   5   2  764.86   35.14
  -5  -2  -2  754.95   27.47
  -2   7  -2  803.06   33.33
  -7   5  -2  756.15   35.41
  -2   7   2  790.33   32.16
  -2   7  -2  741.52   29.33
  -2   7   2  753.17   29.52
   7  -5   2  792.65   31.58
   7  -5   2  818.50   32.33
   5   2   3 2847.46   95.73
  -2   7   3 2713.18   91.77
  -2   7   3 2754.11   97.48
   2  -7   3 2679.20   90.34
  -7   5   3 2940.20   95.49
   2  -7  -3 2738.06   96.42
  -7   5  -3 2802.28   99.03
   5   2  -3 2749.29   89.85
   2  -7  -3 2732.80   94.18
   2  -7  -3 2857.53   94.75
  -5  -2  -3 2669.94   90.37
   2  -7   3 2802.45   93.54
  -2   7  -3 2749.25   95.63
   7  -5  -3 2824.74   99.33
  -2   7  -3 2868.86   95.13
   7  -5   3 2702.56   93.58
   2  -7  -3 2640.11   91.70
   7  -5   3 2797.24   93.95
  -2   7   3 2715.24   94.03
  -2   7  -4  565.12   22.55
   5   2   4  558.02   25.57
  -2   7   4  543.40   22.95
   2  -7   4  545.76   22.09
  -2   7   4  515.57   26.37
  -5  -2  -4  572.11   21.59
  -2   7  -4  538.82   25.87
   7  -5  -4  555.03   28.43
   2  -7   4  541.98   23.40
  -7   5  -4  530.25   28.29
   2  -7  -4  530.71   24.91
   2  -7  -4  517.74   25.93
   2  -7  -4  549.83   24.40
   7  -5   4  509.34   23.93
  -7   5  -4  553.83   24.42
  -2   7   4  523.03   23.90
   7  -5   4  537.98   23.42
   2  -7  -4  499.00   22.52
  -5  -2  -4  515.43   27.23
  -2   7  -4  536.78   24.82
  -2   7  -5  902.03   33.15
  -2   7   5  799.41   33.10
   7  -5   5  900.66   38.75
   7  -5   5  838.31   34.69
   5   2   5  887.08   36.38
   5   2  -5  820.37   36.47
  -5  -2  -5  884.99   32.33
  -2   7   5  818.33   36.95
   2  -7   5  850.05   32.74
  -7   5  -5  859.01   39.70
  -2   7  -5  779.97   36.33
   2  -7  -5  825.61   34.37
   2  -7   5  863.14   33.14
   2  -7  -5  851.10   35.56
   2  -7  -5  809.76   36.70
   7  -5  -5  884.98   39.37
  -7   5  -5  820.80   34.27
  -5  -2  -5  873.52   38.67
   7  -5   5  805.47   32.76
  -2   7  -5  848.18   35.24
   2  -7  -5  844.14   34.85
   2  -7  -5  849.73   33.47
  -2   7  -6  629.56   24.59
  -2   7   6  586.14   24.94
   5   2   6  561.21   26.79
   7  -5   6  711.51   30.71
  -2   7  -6  515.82   23.89
   7  -5   6  640.72   26.61
  -5  -2  -6  527.19   22.84
   7  -5  -6  535.60   24.84
   2  -7  -6  486.28   23.87
   2  -7   6  612.61   24.66
   5   2  -6  566.88   27.76
   7  -5  -6  524.36   28.58
   2  -7   6  492.83   22.65
  -7   5  -6  530.74   29.96
   2  -7  -6  510.14   24.29
   2  -7  -6  456.72   24.72
  -7   5  -6  562.40   25.55
   2  -7  -6  540.55   24.77
   7  -5   6  576.59   23.29
   2  -7  -6  510.61   24.07
  -5  -2  -6  503.75   28.44
  -2   7  -7  981.04   38.34
   7  -5  -7  918.77   38.67
  -2   7   7  907.77   37.95
   7  -5   7  988.71   42.41
   5   2   7 1013.03   40.66
  -2   7  -7  972.08   37.26
   7  -5   7  927.55   39.09
   2  -7  -7  893.44   40.43
   5   2  -7  923.45   40.85
   2  -7  -7  874.33   37.94
   7  -5  -7  894.95   38.19
   2  -7   7  924.21   35.57
   2  -7  -7  940.53   40.98
   7  -5  -7  974.21   43.20
   2  -7  -7  939.75   37.68
   2  -7  -7  922.61   37.91
   2  -7  -7  930.15   37.61
  -7   5  -7  954.53   38.60
   7  -5   7  956.18   35.67
   7  -5  -8  548.01   26.78
   7  -5   8  627.38   28.17
  -2   7  -8  573.65   26.68
  -2   7   8  578.66   26.85
   5   2   8  621.72   29.05
  -2   7  -8  578.91   25.78
   7  -5  -8  550.58   31.56
   2  -7  -8  496.36   26.15
   7  -5  -8  531.54   26.63
   5   2  -8  636.27   30.08
   7  -5  -8  552.22   30.37
   2  -7  -8  580.94   25.60
   2  -7   8  555.07   23.27
   2  -7  -8  595.16   26.98
   2  -7  -8  590.78   25.61
  -7   5  -8  576.73   27.12
   5   2   8  520.27   18.67
   7  -5   9 2178.25   81.67
  -2   7   9 2241.71   80.96
  -2   7  -9 2237.20   81.10
   5   2   9 2337.59   83.09
  -2   7  -9 2283.07   79.61
   7  -5  -9 2236.75   80.93
   7  -5  -9 2130.87   80.53
   5   2  -9 2278.62   84.36
   2  -7  -9 2233.12   81.46
   7  -5  -9 2168.42   86.64
   2  -7   9 2181.39   75.64
  -7   5  -9 2159.87   80.96
   2  -7  -9 2216.75   80.45
   2  -7  -9 2244.16   78.44
   7  -5 -10  661.94   31.96
   7  -5  10  678.81   32.95
  -2   7  10  683.62   32.00
  -2   7 -10  678.14   30.94
  -2   7 -10  669.35   32.30
   5   2 -10  721.62   35.17
   2  -7 -10  649.26   32.29
   7  -5 -10  685.77   36.78
  -7   5 -10  636.70   22.44
   2  -7  10  722.86   27.17
   2  -7 -10  709.37   29.64
  -7   5 -10  734.05   32.95
   2  -7 -10  677.66   31.91
   7  -5  11  648.43   32.91
  -2   7 -11  641.03   30.84
  -2   7  11  641.42   31.91
  -2   7 -11  670.38   32.75
  -5  -2 -11  647.80   35.29
   7  -5 -11  610.12   35.53
   2  -7 -11  617.44   32.24
   5   2 -11  602.23   23.11
   2  -7  11  698.57   25.94
   2  -7 -11  621.71   31.82
   2  -7 -11  705.90   29.09
  -5  -2 -12  550.82   33.93
  -2   7  12  643.46   31.47
  -2   7 -12  591.76   30.75
   7  -5 -12  515.49   32.79
   2  -7 -12  536.80   29.95
   5   2 -12  484.67   19.19
   2  -7  12  587.45   22.51
  -7   5  12  548.86   31.17
   2  -7 -12  557.30   25.54
  -5  -2 -13  561.65   34.70
   7  -5  13  577.48   32.42
  -2   7  13  572.16   31.59
  -2   7 -13  606.22   32.76
   7  -5 -13  587.88   35.15
   2  -7 -13  589.37   32.59
  -7   5  13  580.30   32.99
   2  -7  13  608.06   23.51
   2  -7 -13  643.11   27.63
  -5  -2 -14  390.89   28.47
   7  -5  14  418.71   26.02
  -2   7  14  401.72   25.23
  -2   7 -14  407.48   25.75
   7  -5 -14  432.86   28.93
   2  -7 -14  383.77   26.07
   7  -5 -14  352.08   17.00
   2  -7  14  355.41   15.82
  -7   5  14  379.05   25.42
   2  -7 -14  396.88   20.13
  -5  -2 -15 1166.88   58.94
   7  -5  15 1186.93   55.30
  -2   7  15 1300.36   55.60
  -2   7 -15 1217.24   56.01
   2  -7 -15 1241.02   56.52
  -7   5  15 1232.98   55.83
   7  -5 -15 1183.69   44.02
   2  -7  15 1268.31   42.55
   2  -7 -15 1266.00   48.11
  -5  -2 -16  287.12   26.82
  -2   7  16  350.53   25.04
   7  -5  16  315.61   25.03
  -2   7 -16  300.65   24.61
   2  -7 -16  312.25   24.82
   5   2 -16  335.16   26.46
  -7   5  16  384.37   25.93
   2  -7 -16  334.16   18.63
   7  -5  17  179.32   19.66
  -2   7 -17  228.42   21.32
  -2   7  17  186.32   19.03
  -7   5  17  205.23   19.38
   2  -7 -17  155.68   18.95
  -5  -2 -17  172.40   20.93
   5   2 -17  204.50   21.04
   7  -5  18  143.46   18.48
  -2   7  18  133.16   18.55
  -7   5  18   88.36   14.36
  -2   7 -18   91.83   16.39
   2  -7 -18   71.49   15.38
   5   2 -18  103.63   17.82
  -7   5 -18   90.22   19.39
  -5  -2 -18   77.88   17.26
  -5  -2 -19  286.37   28.63
   2  -7 -19  267.45   25.27
  -2   7 -19  283.90   25.85
   7  -5  19  269.03   24.91
  -2   7  19  304.25   25.38
  -7   5  19  263.06   22.68
   5   2 -19  331.34   27.68
  -2   7 -20  118.01   17.91
   2  -7 -20  130.21   19.30
   7  -5  20  128.90   18.16
  -2   7  20  126.77   17.71
   4   3   0  365.59   16.21
  -7   4   0  421.39   18.41
   7  -4   0  427.26   22.91
  -7   4   0  368.13   21.18
   3  -7   0  435.32   22.29
  -3   7   0  413.71   21.12
   3  -7   0  411.13   18.75
  -3   7   0  386.90   14.43
   7  -4   0  420.48   19.71
   3  -7   1  269.26   13.18
  -3   7  -1  283.75   10.65
  -3   7   1  285.40   10.97
  -7   4   1  272.76   14.28
  -3   7   1  265.70   16.67
   7  -4  -1  246.90   17.08
   3  -7  -1  266.26   14.82
   3  -7  -1  279.96   17.29
   3  -7   1  265.14   13.86
  -3   7   1  275.79   16.68
  -7   4   1  262.42   16.99
  -7   4  -1  262.04   16.95
  -3   7  -1  255.90   16.20
  -3   7  -1  260.90   15.22
   7  -4   1  247.49   14.81
  -3   7  -1  279.98   10.84
   7  -4  -1  237.29   14.98
   4   3   2  593.56   25.40
  -3   7   2  621.40   21.92
   3  -7   2  604.05   23.96
  -3   7  -2  597.26   21.43
   3  -7  -2  555.77   24.35
  -7   4   2  643.48   25.57
  -3   7   2  597.45   28.04
   7  -4  -2  566.90   28.43
   3  -7  -2  605.71   25.65
   3  -7  -2  589.11   28.25
   3  -7   2  586.52   23.80
  -3   7  -2  563.00   27.19
   3  -7  -2  591.13   25.76
  -7   4  -2  592.02   28.58
   7  -4   2  623.37   26.61
   3  -7  -2  598.91   26.85
  -3   7  -2  581.51   21.47
  -3   7   2  585.94   26.04
  -3   7  -2  612.14   26.13
  -3   7  -3   48.49    4.38
  -3   7   3   32.97    4.53
   4   3   3   42.53    6.18
   3  -7   3   37.26    5.53
   3  -7  -3   33.71    5.53
  -3   7   3   42.17    7.48
   3  -7  -3   51.31    6.21
   3  -7  -3   32.31    6.53
   7  -4  -3   38.26    7.73
  -7   4  -3   25.61    7.32
  -3   7  -3   29.24    6.64
   3  -7  -3   44.84    6.88
   3  -7   3   38.62    4.76
  -7   4  -3   38.08    6.63
   7  -4   3   29.48    5.73
   3  -7  -3   33.88    4.37
   3  -7  -3   58.79    6.97
  -4  -3  -3   40.56    7.92
  -3   7  -3   47.04    6.67
  -3   7   3   31.31    6.35
   4   3   4  282.79   15.23
   3  -7   4  277.60   14.03
  -3   7   4  235.90   12.63
  -3   7  -4  267.40   12.36
  -3   7   4  257.55   16.76
  -4  -3  -4  275.54   13.56
   3  -7  -4  244.05   14.37
   4   3  -4  269.89   15.57
  -7   4  -4  254.15   17.54
  -3   7  -4  273.94   17.33
   3  -7  -4  266.54   15.52
   3  -7  -4  278.09   14.80
   7  -4  -4  284.34   17.86
   3  -7  -4  246.26   16.52
  -7   4  -4  281.51   16.00
  -3   7  -4  259.03   15.01
   3  -7  -4  260.95   15.23
   3  -7  -4  239.67   12.45
   7  -4   4  242.91   13.31
   7  -4   4  274.06   15.64
  -4  -3  -4  273.30   17.67
   7  -4   5  306.39   19.40
  -3   7   5  269.03   14.66
  -3   7  -5  302.87   14.51
   4   3   5  304.66   17.06
   3  -7   5  346.44   16.61
   3  -7  -5  290.63   16.48
   7  -4  -5  295.40   15.77
  -3   7   5  330.27   19.49
   4   3  -5  326.73   17.94
  -4  -3  -5  316.14   15.69
   3  -7  -5  303.75   17.98
  -3   7  -5  280.73   18.88
   3  -7  -5  286.09   16.21
  -7   4  -5  303.94   20.09
   3  -7  -5  294.69   18.85
   7  -4  -5  304.91   19.26
   7  -4   5  312.21   14.87
  -3   7  -5  303.44   16.68
   3  -7  -5  282.24   14.82
  -4  -3  -5  341.93   20.16
   7  -4   5  312.37   17.72
  -7   4  -5  310.94   17.41
   3  -7  -5  301.77   16.81
   4   3   6  152.41   11.86
   7  -4   6  149.53   13.99
  -3   7  -6  149.10    9.96
  -3   7   6  126.48    9.86
  -4  -3  -6  144.21   10.29
   4   3  -6  112.57   11.23
   3  -7   6  174.05   12.10
   7  -4  -6  119.40    9.96
   3  -7  -6  101.04   11.64
   7  -4  -6  131.56   12.80
   3  -7  -6  118.47   10.17
   3  -7  -6  131.53   11.96
   3  -7  -6  126.81    9.91
  -3   7  -6  161.49   11.77
  -7   4  -6  144.52   12.59
   7  -4   6  148.30   12.37
   7  -4   6  136.27    8.83
  -4  -3  -6  124.84   13.04
   3  -7  -6  155.22   11.35
  -3   7  -7  216.16   12.87
   4   3   7  222.21   15.06
   7  -4   7  237.68   17.34
  -3   7   7  184.38   12.82
   7  -4   7  237.78   15.64
   7  -4  -7  212.66   13.62
  -4  -3  -7  210.24   13.08
   4   3  -7  191.69   14.34
   3  -7   7  201.69   13.88
   3  -7  -7  207.10   15.28
   3  -7  -7  201.36   12.94
   3  -7  -7  203.06   15.86
   4   3  -7  209.00   10.77
   7  -4  -7  197.64   15.90
  -7   4  -7  214.56   14.92
   7  -4   7  202.98   11.03
   4   3   7  198.12    9.43
  -3   7  -7  214.95   13.89
   3  -7  -7  196.48   13.05
  -4  -3  -7  213.80   16.84
   3  -7  -7  231.97   14.14
  -3   7  -8  129.40   10.44
  -3   7  -8  134.94   12.01
   7  -4  -8  137.43   12.10
  -3   7   8  143.36   11.39
   7  -4   8  135.67   12.52
   7  -4  -8  136.59   11.08
   4   3   8  144.11   12.41
   4   3  -8  140.34   12.49
   7  -4  -8  158.43   15.36
  -4  -3  -8  132.26   10.65
   3  -7   8  146.00   11.93
   3  -7  -8  121.12    9.88
   4   3  -8  131.47    8.02
   7  -4  -8  150.24   13.58
  -7   4  -8  158.57   13.31
   3  -7  -8  137.03   11.18
  -3   7  -8  135.22   11.21
   4   3   8  133.87    6.51
   3  -7  -8  143.72   11.20
  -4  -3  -9   12.01    6.78
   7  -4  -9    1.50    4.82
   4   3   9    7.17    6.16
   7  -4  -9    4.02    6.21
   3  -7   9    9.45    6.22
  -3   7  -9    7.55    6.24
   7  -4   9   21.82    7.80
   7  -4  -9    4.51    6.08
  -3   7  -9    5.65    5.75
   3  -7  -9   -1.54    5.62
  -3   7   9   -1.60    5.48
  -3   7  -9   17.66    6.10
   4   3  -9    1.15    3.02
   3  -7  -9   10.08    5.08
   3  -7  -9    7.14    4.54
  -7   4  -9   24.03    7.41
  -4  -3 -10  282.80   20.39
   7  -4  10  263.97   19.19
  -3   7 -10  281.32   19.24
  -3   7 -10  297.36   17.67
  -3   7  10  286.16   18.26
   4   3  10  316.31   19.87
   7  -4 -10  247.63   16.96
   3  -7  10  282.26   18.65
   3  -7 -10  275.81   18.95
   7  -4 -10  314.40   22.82
   4   3 -10  294.30   12.36
   3  -7 -10  314.01   16.81
   3  -7 -10  288.54   17.23
  -7   4 -10  290.80   19.56
   3  -7 -10  316.25   18.65
   7  -4  11  228.47   17.87
  -4  -3 -11  257.15   19.63
  -3   7 -11  209.95   15.72
  -3   7 -11  225.42   17.92
  -3   7  11  204.90   16.22
   7  -4 -11  224.02   19.30
   3  -7 -11  209.15   17.32
   3  -7  11  217.28   16.99
  -7   4 -11  220.81   10.20
   3  -7 -11  216.47   13.86
   4   3 -11  184.12    8.97
   3  -7 -11  210.25   14.46
   3  -7 -11  204.33   16.29
  -4  -3 -12  148.66   16.30
  -3   7 -12  153.75   15.08
   7  -4  12  175.78   16.76
  -3   7 -12  182.29   17.11
  -3   7  12  132.94   14.73
   7  -4 -12  149.21   17.35
   3  -7 -12  139.86   15.20
   3  -7  12  142.38    5.91
  -7   4 -12  151.65    8.62
   3  -7 -12  135.06   11.83
  -4  -3 -13  148.91   17.07
   7  -4  13  157.10   16.32
  -3   7 -13  182.91   17.32
  -3   7  13  141.83   15.17
   3  -7 -13  115.70   15.08
   7  -4 -13  160.18   17.74
   4   3 -13  183.44   17.46
   3  -7  13  180.33   10.14
  -7   4 -13  176.70    9.50
   3  -7 -13  175.08   13.00
   7  -4  14  157.51   16.63
  -3   7 -14  146.85   16.21
   4   3  14  140.25   16.53
  -3   7  14  168.45   16.16
  -4  -3 -14  132.11   17.01
   7  -4 -14  144.04   17.32
   3  -7 -14  125.15   15.57
   4   3 -14  121.94   15.28
   3  -7  14  170.95    9.36
   7  -4 -14  141.35    8.82
   3  -7 -14  169.55   12.77
   4   3  15    8.01    9.15
  -3   7  15   -4.03    8.81
   7  -4  15   13.32    9.60
  -4  -3 -15   22.01   10.87
   3  -7 -15   -1.52    8.70
  -3   7 -15    9.16    9.59
   4   3 -15   -1.54    8.09
  -7   4  15   -1.47    7.72
   3  -7 -15    3.30    5.41
   3  -7  15    8.88    3.34
   4   3  16  212.57   21.62
  -4  -3 -16  228.20   22.60
   7  -4  16  184.05   19.76
  -3   7 -16  232.45   21.62
  -3   7  16  181.96   19.14
   4   3 -16  274.23   22.58
   3  -7 -16  235.11   21.61
  -7   4  16  237.12   20.84
   3  -7  16  224.54   10.79
   3  -7 -16  221.02   15.77
  -3   7  17   84.30   13.59
   4   3  17   90.75   16.04
   7  -4  17   81.84   14.40
  -4  -3 -17   55.04   15.36
   3  -7 -17   99.50   15.48
   4   3 -17   92.85   15.51
  -3   7 -17   75.89   14.37
  -7   4  17  101.16   14.80
   3  -7 -17   95.16   10.76
   7  -4  18  126.56   18.38
   4   3  18  104.52   17.33
  -3   7  18   63.39   13.91
  -7   4  18   85.07   14.63
  -4  -3 -18   73.95   16.68
  -3   7 -18  109.47   17.12
   3  -7 -18   88.87   15.82
   4   3 -18   79.67   15.97
   7  -4  19   77.99   15.38
  -3   7  19   61.64   14.19
  -7   4  19   67.00   13.16
  -4  -3 -19  102.78   18.16
  -3   7 -19   94.26   16.49
   3  -7 -19   63.34   15.56
   4   3 -19   62.15   14.67
  -3   7 -20   44.47   13.84
   3  -7 -20   50.72   14.75
   4   3 -20   31.76   12.95
  -3   7  20   65.99   14.29
  -7   3   0  397.55   17.41
   3   4   0  386.40   18.07
   4  -7   0  406.70   19.56
   7  -3   0  466.21   23.08
  -7   3   0  416.78   21.56
   4  -7   0  431.63   23.28
  -4   7   0  410.85   22.14
   7  -3   0  400.69   21.01
  -4   7   0  438.07   20.76
   3   4   0  391.04   21.79
   4  -7   0  463.88   21.48
   3   4   1  941.85   34.75
   3   4   1  864.27   35.11
   4  -7  -1  996.67   41.12
   7  -3  -1 1032.82   40.31
   4  -7   1  916.07   35.77
   4  -7  -1  963.09   37.28
  -7   3  -1  927.97   39.09
  -7   3   1  966.85   39.20
  -4   7   1  933.37   39.56
  -4   7  -1  895.64   39.25
   7  -3   1  972.55   38.65
   4  -7  -1 1005.94   38.80
   4  -7   1  983.23   38.82
  -4   7  -1 1022.66   38.08
   3   4   1  924.78   39.26
   7  -3  -1  931.02   38.53
   3   4  -1  966.85   40.07
   3   4   2    9.13    3.58
   4  -7   2   15.56    4.54
   7  -3  -2   16.33    5.91
  -4   7  -2    7.19    5.40
  -7   3  -2   11.41    5.19
   4  -7  -2    7.14    5.31
   4  -7  -2   14.78    4.86
   4  -7   2    8.35    3.48
   3   4   2   11.49    5.37
  -4   7  -2   18.99    4.65
   7  -3   2   12.88    4.80
   4  -7  -2   16.77    4.37
   3   4  -2   15.18    3.92
   4  -7   3  860.31   33.69
   3   4   3  813.48   32.23
  -4   7  -3  832.31   28.68
   3   4  -3  849.61   32.79
  -7   3  -3  867.06   36.89
   4  -7   3  887.88   31.58
   4  -7  -3  862.91   35.26
   3   4  -3  865.48   32.20
  -4   7  -3  829.89   36.80
   4  -7  -3  898.57   38.12
   7  -3  -3  881.91   36.56
   4  -7  -3  968.97   36.14
  -3  -4  -3  852.48   36.68
   7  -3   3  821.18   35.36
   3   4   3  796.34   35.99
  -4   7  -3  877.10   34.38
   4  -7  -3  768.29   29.04
  -7   3  -3  857.71   35.75
  -4   7   4   45.73    4.41
  -4   7  -4   43.23    4.14
   4  -7   4   37.38    6.06
   3   4  -4   35.05    5.66
   3   4   4   47.35    5.87
   4  -7  -4   42.55    6.81
   7  -3  -4   37.86    4.91
   4  -7   4   49.79    4.62
   7  -3  -4   31.61    6.67
   4  -7  -4   44.30    7.43
  -4   7  -4   41.76    8.05
   4  -7  -4   46.71    6.69
  -7   3  -4   42.28    7.68
  -7   3  -4   54.60    8.08
   3   4   4   38.53    7.15
   4  -7  -4   37.69    4.16
   4  -7  -4   55.64    6.80
   3   4  -4   45.57    5.05
  -4   7  -4   47.85    6.49
  -3  -4  -4   36.45    7.73
   7  -3   4   48.64    7.13
  -4   7   5 1046.91   40.41
   4  -7   5 1123.15   43.62
   3   4   5 1097.63   42.52
  -4   7  -5 1156.74   40.42
   7  -3  -5 1104.58   41.45
   3   4  -5 1240.23   43.86
  -3  -4  -5 1172.21   43.17
   4  -7  -5 1149.01   45.41
   4  -7  -5 1161.38   43.11
   4  -7   5 1104.29   38.91
  -7   3  -5 1100.73   47.10
   4  -7  -5 1137.32   45.39
   4  -7  -5 1191.88   48.29
   7  -3  -5 1179.28   47.00
  -4   7  -5 1132.20   47.77
   3   4  -5 1078.53   40.62
   4  -7  -5 1030.36   40.37
   3   4   5 1144.08   46.69
  -3  -4  -5 1184.62   47.08
  -7   3  -5 1147.73   45.73
   7  -3   5 1155.77   45.98
   3   4   5 1137.01   40.24
   7  -3   5 1139.41   40.67
   4  -7  -5 1213.12   45.10
  -4   7  -5 1109.13   43.24
  -4   7  -6  771.35   28.75
   4  -7   6  752.82   31.44
  -4   7   6  681.85   28.72
  -3  -4  -6  710.34   30.39
   4  -7  -6  692.80   32.77
   7  -3  -6  708.41   29.25
   4  -7  -6  709.81   32.53
   3   4   6  731.09   30.42
   4  -7   6  690.79   25.21
   4  -7  -6  718.49   29.86
   3   4  -6  695.61   27.31
   7  -3  -6  756.70   33.97
   4  -7  -6  725.24   34.54
   3   4   6  706.61   26.71
   4  -7  -6  733.80   31.62
  -7   3  -6  760.79   33.11
  -4   7  -6  709.91   30.42
   7  -3   6  727.38   32.91
   3   4   6  720.83   33.64
   7  -3   6  732.12   27.10
   4  -7  -6  651.63   28.38
  -3  -4  -6  732.90   33.68
  -4   7  -7  588.59   25.17
   4  -7   7  617.42   27.90
  -4   7   7  556.20   25.54
  -3  -4  -7  610.06   28.37
  -3  -4  -7  576.29   26.80
   7  -3  -7  568.57   25.45
   4  -7  -7  604.23   29.14
   4  -7  -7  612.04   29.57
   3   4   7  561.96   26.53
   4  -7  -7  573.52   25.64
   4  -7  -7  598.26   30.68
   7  -3  -7  644.07   30.34
   3   4  -7  577.87   22.97
   3   4   7  585.20   22.30
  -3  -4  -7  573.62   29.66
  -7   3  -7  622.05   29.31
  -4   7  -7  575.17   26.27
   3   4   7  639.27   30.62
   4  -7  -7  621.07   27.56
   7  -3   7  609.72   29.54
   4  -7  -7  564.89   25.33
   7  -3   7  571.49   22.46
  -3  -4  -8  154.84   13.12
  -4   7   8  156.18   11.70
   3   4   8  170.34   14.83
  -4   7  -8  172.81   11.82
   7  -3   8  172.42   13.95
   4  -7   8  180.27   13.55
   4  -7  -8  150.65   11.63
  -3  -4  -8  169.85   12.55
   4  -7  -8  152.64   13.55
   7  -3  -8  149.01   11.18
   3   4   8  184.46   13.36
   3   4  -8  165.63    8.99
   4  -7  -8  150.41   10.85
   3   4   8  163.74   11.40
   4  -7  -8  172.82   14.93
   7  -3   8  157.33    8.50
  -3  -4  -8  155.93   14.29
  -4   7  -8  165.03   11.86
  -7   3  -8  162.79   13.92
   4  -7  -8  160.83   12.15
   3   4   8  168.27    8.28
  -4   7   9  378.51   21.51
  -3  -4  -9  423.99   24.33
   7  -3  -9  418.78   23.74
  -4   7  -9  430.07   21.65
   4  -7  -9  440.14   22.28
   7  -3   9  431.26   24.73
   3   4   9  442.18   25.42
  -4   7  -9  453.64   24.88
   4  -7   9  422.10   23.24
  -3  -4  -9  440.49   22.55
   3   4   9  435.15   23.07
   3   4  -9  394.33   16.94
   4  -7  -9  431.20   20.70
  -4   7  -9  447.88   21.66
  -7   3  -9  416.38   23.92
   4  -7  -9  461.87   22.66
  -3  -4 -10    1.09    6.86
  -4   7 -10   -1.14    6.42
   4  -7  10   -1.95    6.82
   3   4  10   -2.79    5.78
   3   4 -10    1.01    5.70
  -3  -4 -10    6.59    5.28
   4  -7 -10   -1.66    5.16
   3   4  10   -1.19    5.74
   7  -3  10    1.12    6.41
  -4   7 -10   -1.53    5.52
  -4   7  10   -0.87    5.36
   4  -7 -10    4.03    4.41
   4  -7 -10   -0.62    3.69
  -4   7 -10    1.41    4.56
  -4   7 -11  468.75   23.96
   7  -3  11  440.67   26.77
  -4   7  11  446.35   24.60
  -4   7 -11  389.16   26.04
  -3  -4 -11  443.31   27.03
   4  -7 -11  470.09   24.80
   3   4  11  449.77   27.72
   3   4 -11  445.35   26.02
   3   4  11  431.04   24.96
   4  -7 -11  467.79   21.81
   4  -7 -11  448.68   23.72
  -4   7 -12  499.08   26.86
   3   4  12  505.18   30.20
   7  -3  12  541.85   30.65
  -4   7  12  468.81   27.60
  -4   7 -12  481.28   29.76
  -3  -4 -12  472.44   29.71
   3   4 -12  491.51   28.93
   4  -7 -12  509.77   24.07
  -7   3 -12  553.28   21.65
   4  -7 -12  525.75   26.12
  -4   7  13  519.87   28.63
   3   4  13  495.08   30.31
   7  -3  13  503.42   29.91
  -4   7 -13  532.24   31.33
  -3  -4 -13  481.92   30.35
   4  -7 -13  476.89   29.98
   3   4 -13  498.86   29.69
  -7   3 -13  502.91   21.32
   4  -7 -13  513.81   23.70
   4  -7 -13  528.62   26.28
   3   4  14   -6.00    9.32
   7  -3  14    4.35    7.36
  -4   7  14    3.75    7.13
  -4   7 -14    3.03    7.82
  -3  -4 -14   -4.54    8.05
   3   4 -14   11.09    8.32
   4  -7 -14   -7.48    9.50
  -7   3 -14    1.94    3.70
   4  -7 -14   -3.61    5.01
   3   4  15  305.86   24.08
  -4   7  15  294.78   22.39
  -4   7 -15  304.62   24.32
   7  -3  15  235.84   22.05
  -3  -4 -15  297.73   24.54
   3   4 -15  339.53   24.52
   4  -7 -15  292.92   23.84
  -7   3 -15  329.18   16.24
   4  -7 -15  304.19   19.39
  -4   7 -16   56.42   13.10
  -3  -4 -16   60.26   13.48
   3   4 -16   73.33   13.07
   4  -7 -16   62.25   13.81
   3   4  16   72.05   13.93
   7  -3  16   63.36   13.09
  -4   7  16   39.80   11.49
   4  -7 -16   69.18   10.08
  -4   7 -17  245.47   24.08
   3   4  17  304.22   25.55
  -4   7  17  309.33   24.12
   7  -3  17  330.25   25.88
  -3  -4 -17  251.84   24.54
  -7   3 -17  237.49   26.04
   3   4 -17  339.65   25.82
   4  -7 -17  313.79   26.15
  -7   3  17  266.15   23.63
   4  -7 -17  379.91   21.59
  -4   7 -18  231.97   23.96
  -4   7  18  219.80   21.78
   3   4  18  220.94   23.58
   7  -3  18  266.96   24.54
  -3  -4 -18  204.32   23.53
  -7   3 -18  234.00   26.30
   3   4 -18  189.28   21.46
   4  -7 -18  203.84   22.69
  -7   3  18  209.14   21.66
   4  -7 -18  268.35   18.26
  -4   7 -19  251.88   25.46
   3   4  19  276.28   25.34
  -3  -4 -19  269.78   25.66
   7  -3  19  272.59   25.11
   3   4 -19  250.65   24.56
   4  -7 -19  260.91   25.20
  -7   3  19  278.47   23.77
  -4   7 -20    2.10   11.17
  -3  -4 -20   10.62   11.31
   3   4 -20   17.80   11.59
   2   5   0 5878.33  188.97
   2   5   0 5813.62  193.79
   2   5   0 6005.85  193.48
  -5   7   0 5973.24  198.20
   5  -7   0 6130.99  200.58
  -7   2   0 6112.94  195.62
   7  -2   0 6241.32  197.66
   2   5   0 5942.99  196.38
   2   5  -1    6.26    2.40
   2   5   1   -0.20    2.88
  -7   2  -1    6.24    2.28
   2   5   1   10.79    3.68
  -7   2   1    8.18    3.78
  -5   7   1   13.87    5.35
  -7   2  -1   14.11    4.25
  -5   7  -1   13.39    5.32
   5  -7  -1    7.67    5.03
   7  -2  -1    5.64    3.64
   2   5  -1    6.51    3.14
   2   5  -1    5.15    4.31
   7  -2   1    0.75    4.08
   5  -7  -1    4.86    4.12
   7  -2  -1    7.78    4.67
   2   5   1   11.13    3.87
   2   5   1    4.29    4.14
   2   5   2  152.42   10.94
   2   5   2  154.77    8.28
   7  -2  -2  186.60   12.78
  -2  -5  -2  165.79    8.04
   5  -7  -2  205.47   15.01
   2   5  -2  177.21    7.91
   2   5   2  161.43   10.82
  -7   2  -2  179.81   12.51
  -5   7   2  164.83   11.25
  -5   7   2  162.12   13.19
   2   5  -2  167.57   10.41
  -5   7  -2  171.53   13.84
   7  -2   2  155.16   12.26
   5  -7  -2  180.25   12.41
   2   5   2  174.10   12.53
  -5   7  -2  185.68   11.96
   5  -7  -3    3.85    1.95
   5  -7   3    5.48    4.66
   2   5   3    2.58    2.62
  -5   7   3   -2.54    5.46
  -2  -5  -3    5.11    2.73
   5  -7  -3    1.97    4.46
   7  -2  -3    7.06    4.29
  -5   7  -3    1.84    5.25
  -7   2  -3    3.69    4.43
   2   5  -3    4.29    2.52
   2   5   3    6.42    3.81
   2   5   3    1.54    4.03
  -5   7  -3    8.06    4.70
   5  -7  -3    5.01    3.81
  -2  -5  -3    1.52    5.12
  -5   7  -3    6.23    1.91
   2   5  -3    1.75    2.86
   7  -2   3    2.39    4.84
   5  -7   4  189.77   13.18
   5  -7  -4  189.91    9.74
   7  -2  -4  199.24   10.20
   2   5   4  214.08   11.20
  -5   7  -4  197.61   15.32
  -7   2  -4  207.15   14.52
  -5   7   4  198.16   13.55
   2   5   4  195.74   12.26
   2   5  -4  193.80   11.14
   7  -2  -4  221.96   14.33
   5  -7  -4  203.22   15.68
  -5   7  -4  222.90    9.59
   2   5   4  203.55   14.52
   2   5   4  192.77   11.05
   7  -2   4  198.54   14.33
  -7   2  -4  219.56   15.39
   5  -7  -4  192.62   13.30
  -5   7  -4  195.91   12.72
  -2  -5  -4  177.29   13.96
   5  -7  -5    6.16    3.09
   2   5   5    2.56    4.94
   7  -2   5   -0.88    5.61
  -5   7  -5    5.83    3.10
   5  -7   5    5.31    4.50
   2   5   5    3.86    3.22
   5  -7  -5    1.82    5.12
  -2  -5  -5   -0.66    4.97
   7  -2  -5    6.74    3.20
   7  -2   5   -3.78    7.69
   7  -2  -5    8.05    4.83
   5  -7  -5    3.18    5.29
  -5   7  -5    3.16    6.10
  -7   2  -5    4.41    5.30
  -5   7   5    3.05    4.68
   5  -7  -5   17.93    5.09
  -2  -5  -5    1.68    5.54
   2   5  -5    2.80    3.25
  -5   7  -5    4.92    4.41
   2   5   5    3.28    2.97
  -7   2  -5   -1.78    6.10
   5  -7   6 3742.25  125.46
   5  -7   6 3670.79  120.62
   7  -2   6 3735.59  127.67
   5  -7  -6 3580.47  120.61
  -2  -5  -6 3456.33  122.36
   2   5   6 3679.39  121.89
   2   5  -6 3676.37  122.04
   7  -2  -6 3631.98  120.31
  -2  -5  -6 3728.74  124.06
   5  -7  -6 3584.71  127.18
   7  -2  -6 3703.58  126.18
   2   5   6 3545.15  121.87
  -5   7   6 3621.53  125.12
   5  -7  -6 3780.25  129.56
  -5   7  -6 3501.12  129.49
   2   5  -6 3563.16  119.34
   7  -2   6 3657.87  126.76
  -5   7  -6 3723.33  122.92
  -5   7  -6 3633.00  120.08
   2   5   6 3569.48  119.37
  -7   2  -6 3694.67  126.79
   2   5   6 3770.20  126.66
   5  -7  -6 3780.50  124.94
  -2  -5  -6 3708.33  126.27
   2   5   7   -0.96    5.05
  -5   7  -7   -1.56    3.89
   5  -7  -7   -4.58    5.06
   5  -7   7    6.36    4.00
   7  -2   7    6.89    4.91
   5  -7  -7    1.82    4.98
   7  -2   7    1.03    6.00
   5  -7  -7   -3.10    5.57
  -2  -5  -7   -0.75    5.03
   2   5  -7    1.99    4.20
   5  -7   7   -0.87    5.21
  -2  -5  -7    3.60    4.53
   2   5  -7    1.79    2.57
   7  -2  -7    2.71    4.73
  -5   7   7   -4.36    5.82
   5  -7  -7    3.50    5.61
  -2  -5  -7    0.94    5.51
   5  -7  -7   -0.78    3.76
  -7   2  -7   -2.89    7.09
   2   5   7   -0.37    2.78
   7  -2   7    1.03    1.99
  -5   7  -7    7.65    4.69
   2   5   7    4.76    4.09
   5  -7   8  144.56   11.07
   5  -7   8  129.88   12.49
  -2  -5  -8  139.92   11.94
   5  -7  -8  116.54   10.44
  -5   7  -8  133.56   10.32
   2   5   8  135.23   12.88
  -2  -5  -8  139.71   12.22
   5  -7  -8  125.88   12.92
   2   5  -8  149.17   11.73
   7  -2  -8  150.60   14.70
   5  -7  -8  137.83   10.26
   5  -7  -8  150.10   14.53
  -5   7  -8  126.96   10.44
   7  -2   8  135.31    6.77
   7  -2   8  159.76   13.80
   5  -7  -8  137.50   11.42
  -2  -5  -8  130.17   12.82
  -7   2  -8  160.77   14.11
  -5   7  -9    9.64    5.26
   7  -2   9   -3.32    5.89
   2   5   9    4.38    6.16
   5  -7  -9   -2.99    6.28
   5  -7   9    4.65    5.18
  -2  -5  -9    4.59    5.38
   5  -7   9    8.83    6.16
   5  -7  -9    3.43    5.99
  -2  -5  -9    8.48    5.82
   7  -2  -9    5.25    6.32
   2   5  -9    7.57    5.57
   5  -7  -9    6.09    3.74
  -5   7  -9   10.54    4.85
   5  -7  -9    7.35    4.54
   5  -7 -10   71.24   10.63
   7  -2 -10   76.86   11.96
   2   5 -10   73.22    9.55
  -2  -5 -10   65.45    9.87
  -5   7 -10   67.30    8.92
   7  -2  10   64.74   10.32
   2   5  10   47.61   10.07
   5  -7 -10   56.95    9.11
   5  -7  10   76.47    9.64
   5  -7 -10   54.41    6.77
  -5   7 -10   79.17    8.33
  -5   7 -11   11.95    6.52
   5  -7  11    4.81    6.04
   7  -2  11    3.76    7.06
   5  -7 -11   10.14    6.39
   2   5  11    3.70    6.46
   7  -2 -11    1.42    8.00
   2   5 -11    5.15    5.73
  -2  -5 -11    5.65    6.45
  -5   7 -11    2.65    7.36
  -5   7  11    1.07    6.33
  -5   7 -11    4.78    4.61
   5  -7 -11    0.62    3.91
   7  -2  12 2601.12  100.01
   2   5  12 2674.05  100.64
   5  -7  12 2667.25   97.13
  -2  -5 -12 2434.80   98.19
  -5   7 -12 2636.87   95.60
   5  -7 -12 2809.92   97.54
  -5   7 -12 2691.07  101.79
   7  -2 -12 2641.92  102.44
   2   5 -12 2824.64   98.73
  -5   7  12 2658.90   98.05
   5  -7 -12 2626.89   91.53
   7  -2  13    2.82    7.94
   2   5  13   -2.78    7.16
   5  -7  13   -2.28    6.92
  -2  -5 -13   -1.34    7.26
   7  -2 -13    9.21    7.65
   2   5 -13   -2.45    6.62
  -5   7 -13    7.67    8.76
  -7   2 -13   -1.05    4.09
  -5   7  13    2.29    7.51
   5  -7 -13    0.62    4.12
   7  -2  14   53.52   11.57
   2   5  14   37.02   10.50
   5  -7  14   65.16   11.52
   7  -2 -14   62.42   12.34
  -2  -5 -14   43.37   10.68
   2   5 -14   62.28   11.45
  -5   7 -14   50.58   12.49
  -5   7  14   70.16   11.42
  -7   2 -14   53.39    6.99
   5  -7 -14   59.00    7.16
   7  -2  15   -4.74    9.14
   2   5  15    6.25    8.05
   5  -7  15   -6.59    8.63
   2   5 -15   -1.43    8.59
  -2  -5 -15   -3.10    9.53
  -5   7 -15    3.46    9.05
  -7   2 -15    0.61    4.83
   5  -7 -15   -5.55    5.20
   2   5  16  148.03   17.86
   7  -2  16  116.33   16.74
   5  -7  16  118.00   15.46
   2   5 -16  144.34   17.27
   5  -7 -16  122.64   16.91
  -2  -5 -16  140.67   17.36
  -5   7 -16  151.22   19.32
   2   5  17   -1.72    9.17
   7  -2  17    1.75    9.14
  -2  -5 -17    1.76    8.95
   2   5 -17   -9.85   10.65
   5  -7 -17    9.24    9.68
  -5   7 -17   -3.83   12.03
  -5   7 -18 1347.40   66.79
   7  -2  18 1310.42   64.34
   2   5  18 1468.89   66.15
  -7   2 -18 1473.39   71.50
   2   5 -18 1497.02   66.02
  -2  -5 -18 1393.67   66.30
   5  -7 -18 1430.77   67.56
   7  -2  19    3.77    9.57
   2   5  19   -5.59   10.63
   2   5 -19    5.50    9.76
   5  -7 -19    2.02   10.73
  -2  -5 -19    1.97   10.96
  -5   7 -19    2.11   10.51
  -7   2  19   -3.46   10.27
  -2  -5 -20   14.47   11.48
   2   5 -20   -5.77   11.41
  -7   2  20    1.73   10.14
   1   6   0   67.69    7.45
  -6   7   0   35.01    6.15
   6  -7   0   62.53    9.63
  -7   1   0   65.51    7.16
   7  -1   0   69.34    9.42
   1   6   0   56.36    6.68
   1   6   0   61.41    7.60
  -6   7   1  490.66   24.71
   1   6   1  505.92   23.30
   6  -7  -1  526.30   27.49
   7  -1  -1  505.34   23.20
   1   6  -1  469.58   21.27
   1   6   1  476.38   21.77
  -6   7  -1  479.25   21.05
   1   6  -1  492.26   19.35
  -7   1  -1  441.62   21.74
  -6   7   1  485.05   22.58
   6  -7   1  495.70   23.67
   1   6   1  488.62   23.39
   1   6  -1  470.99   23.35
   7  -1   1  493.57   25.15
   7  -1  -1  502.05   25.95
   6  -7  -2   81.29    4.62
   6  -7   2   78.05    4.24
   1   6   2   90.77    8.69
  -6   7   2   85.32    9.39
   1   6  -2   85.72    6.32
   7  -1  -2   87.15    8.20
  -1  -6  -2   75.22    6.24
  -6   7   2   74.85    7.92
   1   6  -2   84.00    7.15
  -7   1  -2   94.71    8.49
   6  -7  -2   60.80    9.28
   1   6   2   81.69    7.53
  -6   7  -2   66.77    5.96
   6  -7   2   94.51    8.65
   6  -7  -2  105.87    9.26
   1   6   2   68.62    7.95
   7  -1   2   63.36    8.81
   1   6   2   65.93    7.23
   6  -7  -2   74.83    4.34
   1   6  -2   68.48    8.12
   1   6  -3  140.11    7.67
   6  -7  -3  179.43    8.97
   6  -7   3  161.30    8.38
  -6   7   3  194.04   14.42
   1   6   3  170.32   12.36
   1   6   3  162.95    8.37
  -7   1  -3  181.91   12.47
  -1  -6  -3  183.67   10.69
   1   6  -3  171.06   10.54
   1   6   3  153.09   11.60
   7  -1  -3  210.76   12.67
  -6   7   3  163.92   14.02
   1   6  -3  188.67   10.34
   6  -7  -3  222.87   16.56
   1   6   3  178.35   11.20
   6  -7   3  197.92   12.84
   7  -1   3  174.16   13.78
   6  -7  -3  213.95   14.26
   1   6   3  214.87   14.00
   6  -7   4   42.01    4.56
   1   6   4   37.90    6.65
   1   6  -4   47.88    4.33
   6  -7  -4   39.35    4.68
   6  -7   4   42.76    7.60
   7  -1  -4   42.97    4.08
   1   6   4   42.62    4.54
  -6   7   4   45.94    7.59
   7  -1   4   42.74    8.35
  -6   7   4   41.09    6.93
   7  -1  -4   41.32    6.15
   6  -7  -4   36.03    7.87
  -1  -6  -4   37.16    5.18
  -7   1  -4   34.35    6.61
   1   6  -4   31.22    5.09
   1   6  -4   51.98    5.69
  -1  -6  -4   38.14    7.03
   1   6   4   30.56    5.09
   1   6   4   39.14    5.77
   6  -7   4   45.20    6.65
   7  -1   4   36.68    7.31
  -7   1  -4   34.67    7.77
  -6   7  -4   39.00    4.41
   6  -7  -4   36.82    6.28
  -1  -6  -5  364.67   17.59
   7  -1   5  419.46   23.09
   6  -7  -5  385.15   17.82
   1   6  -5  387.51   17.15
   6  -7   5  442.97   22.42
   6  -7   5  387.05   17.38
   7  -1  -5  391.92   16.40
   1   6   5  401.22   17.65
  -7   1  -5  364.01   20.76
   6  -7  -5  396.14   24.21
  -1  -6  -5  368.47   18.64
   7  -1  -5  394.29   20.46
  -6   7   5  356.35   20.93
   1   6   5  377.33   17.95
  -7   1  -5  418.95   23.47
  -6   7  -5  390.39   19.68
  -6   7  -5  400.22   17.07
   1   6   5  372.10   21.18
  -1  -6  -5  360.78   20.75
   7  -1   5  416.24   22.86
   6  -7  -5  410.46   21.11
   1   6   6   28.63    7.12
   6  -7   6   14.17    4.56
   6  -7  -6   31.09    5.44
   7  -1   6   11.99    6.30
   1   6   6   15.36    5.31
   6  -7   6   21.62    6.54
  -1  -6  -6    9.84    4.89
   7  -1   6   11.70    6.47
   1   6  -6   11.87    4.04
   6  -7  -6   20.68    6.64
  -1  -6  -6   28.58    6.22
   7  -1  -6   24.96    6.16
   6  -7  -6   17.78    7.31
  -6   7   6   30.05    7.66
   6  -7  -6   15.81    5.56
  -6   7  -6   19.77    5.08
   1   6   6   21.68    4.46
  -6   7  -6   23.19    4.71
  -7   1  -6   19.03    7.27
  -1  -6  -6   19.33    6.63
   1   6   6   15.57    5.18
   6  -7   7  204.15   15.59
   6  -7  -7  206.64   12.97
  -1  -6  -7  163.17   12.07
   7  -1   7  216.25   16.05
   6  -7   7  193.97   12.42
   1   6  -7  209.58   12.82
   1   6   7  221.90   15.68
   1   6   7  184.24   12.41
  -1  -6  -7  208.97   14.89
   6  -7  -7  198.42   16.48
   6  -7  -7  181.50   16.62
  -6   7   7  181.50   14.67
  -6   7  -7  178.04   12.54
  -6   7  -7  205.70   12.40
   7  -1   7  184.43   15.50
   1   6   7  195.75   11.24
  -1  -6  -7  190.93   14.91
   1   6   8    4.94    5.50
   6  -7   8    7.56    4.77
   6  -7  -8    3.49    4.48
  -6   7  -8    5.63    4.34
   7  -1   8   -1.11    6.83
   1   6   8    4.15    4.71
  -1  -6  -8    6.84    4.72
   6  -7   8    2.02    6.07
   1   6  -8   15.22    5.17
  -1  -6  -8   -1.74    5.30
   6  -7  -8   -1.20    6.31
   7  -1  -8    2.51    6.59
  -1  -6   8   -0.75    5.27
   6  -7  -8    9.01    6.20
  -6   7   8    4.95    5.11
  -1  -6  -8    1.91    7.22
  -6   7  -8    4.51    4.05
   7  -1   8    5.82    1.68
   7  -1   9   11.68    8.32
   1   6   9   47.37    9.91
   6  -7   9   10.12    6.58
   6  -7  -9   22.55    7.77
   1   6  -9    7.10    6.11
  -6   7  -9    5.69    6.74
   1   6   9   18.04    8.48
   6  -7  -9   31.57    9.66
   1   6  -9   11.86    6.05
   7  -1  -9   22.06    9.17
  -1  -6   9   -6.84    8.87
  -1  -6  -9   33.56    8.18
   6  -7  -9   45.41   10.65
  -6   7  -9    9.04    5.53
  -6   7 -10   56.89    8.41
   7  -1  10   57.05   10.38
   1   6  10   56.11   10.24
   6  -7  10   49.56    8.30
   6  -7 -10   55.78    8.83
   1   6  10   44.52    8.02
  -1  -6 -10   46.81    8.55
   1   6 -10   36.42    7.94
   7  -1 -10   28.69    8.98
  -1  -6  10   42.95    8.51
   6  -7 -10   34.68   10.07
   6  -7 -10   38.62    9.59
   6  -7 -10   53.29    6.66
  -6   7 -10   52.49    7.05
   1   6  11  200.33   17.14
   6  -7 -11  233.12   16.38
  -1  -6 -11  183.31   15.91
   7  -1  11  203.85   17.72
   6  -7  11  189.75   15.27
   1   6 -11  198.11   15.48
   1   6  11  202.69   16.01
   6  -7 -11  197.47   18.38
   7  -1 -11  207.57   18.93
  -1  -6  11  181.16   16.17
   6  -7 -11  198.64   12.70
  -6   7 -11  185.86   12.61
  -6   7 -11  169.78   14.38
   7  -1  12   55.28   11.13
   1   6  12   67.53   11.25
   6  -7  12   36.82    8.97
  -6   7 -12   25.66    8.86
   6  -7 -12   62.34   12.19
   1   6 -12   36.85    8.84
  -1  -6  12   52.89   10.88
  -1  -6 -12   54.92   10.90
   7  -1 -12   53.25   11.41
   6  -7 -12   66.49    7.65
  -6   7  12   96.64   12.60
  -6   7 -12   46.65    7.17
   6  -7  13  357.98   23.63
   7  -1  13  414.53   27.08
  -1  -6 -13  388.94   25.49
   1   6  13  396.70   25.97
   1   6 -13  442.81   25.72
   7  -1 -13  344.78   25.86
  -6   7  13  375.61   24.40
   6  -7 -13  387.84   19.28
  -6   7 -13  355.06   19.40
   7  -1  14   30.74   10.32
   6  -7  14   32.26    8.96
   1   6  14   31.75    9.88
   7  -1 -14   17.47    9.01
  -1  -6 -14   49.23   11.02
   1   6 -14   20.52    8.46
  -7   1 -14   32.67    6.31
  -6   7  14   35.25    8.94
   6  -7 -14   40.97    6.11
   1   6  15  112.88   15.21
   7  -1  15   72.58   14.06
   6  -7  15   64.11   12.66
  -1  -6 -15   80.13   15.90
   1   6 -15   75.98   13.15
  -6   7 -15   76.81   15.25
  -6   7  15   83.98   13.91
  -7   1 -15   58.74    8.54
   6  -7 -15   92.69    9.05
   7  -1  16    3.41    9.87
   6  -7  16   14.28    8.47
   1   6  16    3.19    9.57
  -1  -6 -16    1.61    8.19
   1   6 -16   -1.48    7.90
  -6   7 -16    1.93   12.11
  -6   7  16    5.29    6.93
   6  -7 -16    4.04    3.86
   1   6  17   93.56   15.07
   7  -1  17   89.22   15.79
   6  -7  17  104.45   14.94
  -6   7  17  128.96   14.71
  -1  -6 -17   68.67   14.19
   1   6 -17   93.77   14.44
  -6   7 -17   99.37   17.58
   1   6  18   24.42   10.10
   6  -7  18   17.52   10.44
   7  -1  18   11.19   10.94
  -6   7  18   22.03    8.85
  -1  -6 -18   16.35   11.79
   1   6 -18   -1.70   10.68
   6  -7 -18   19.90   11.07
  -6   7 -18   12.77   11.50
   1   6 -19  135.56   18.60
  -1  -6 -19   93.41   16.18
   6  -7 -19  112.41   18.23
  -6   7 -19  106.51   18.49
   1   6  19  113.90   16.96
   6  -7  19  123.91   17.00
  -1  -6 -20   27.99   11.73
   1   6 -20   22.92   11.35
   6  -7  20   19.28   10.91
   7  -7   0    9.45    2.97
  -7   7   0    5.79    5.30
   0   7   0    5.97    3.77
   7  -7   0   10.36    5.75
  -7   7   0    8.67    4.71
   7  -7   0   12.60    5.05
   0   7   0   17.19    5.11
   7   0   0   15.27    6.68
   0   7   0    6.12    4.21
   7  -7   1    9.52    2.92
  -7   7   1   16.97    5.20
   0   7   1    3.90    4.48
   0   7   1   18.13    4.79
   0   7  -1   16.22    4.29
  -7   0  -1   17.21    4.13
  -7   7   1   15.25    6.32
  -7   7  -1    6.86    5.39
   7  -7  -1    9.05    6.12
  -7   7  -1   12.25    4.11
  -7   7   1   16.37    5.03
   7   0   1   15.96    5.91
   7  -7  -1   10.59    2.73
   7  -7   1   16.16    4.63
   0   7  -1   13.41    4.74
   0   7   1   10.95    4.53
   0   7   1   17.96    4.92
   7   0  -1   22.67    6.84
   7  -7  -2  100.49    6.74
   7  -7   2  102.38    6.57
  -7   7   2  113.13   10.62
   0   7   2  120.61   10.78
   0   7   2  104.47    8.85
  -7   7  -2  110.30    8.28
  -7   7   2  100.58    9.62
   0  -7  -2   96.57    8.62
   0   7  -2  107.77    8.21
   7   0  -2  103.22    8.48
  -7   7  -2  117.20   11.99
   7  -7  -2   93.99   11.62
  -7   7   2  119.82   12.04
  -7   0  -2  103.34    8.26
   7  -7   2  114.05    9.65
   7   0   2  113.81   11.41
   0   7   2   96.09    8.58
   0   7  -2  108.09    9.25
   7  -7  -2   99.28    6.53
   0   7   2   96.31    9.03
   7   0  -2  111.87   11.57
   7  -7   3  686.22   26.36
   7  -7  -3  680.34   26.66
  -7   7   3  744.15   32.71
   0   7   3  689.35   31.54
  -7   0  -3  673.54   28.75
   7   0  -3  692.73   28.84
   7  -7  -3  659.86   34.56
  -7   7  -3  710.94   27.42
   0  -7  -3  684.27   29.39
   0   7  -3  669.43   28.52
  -7   7  -3  708.25   34.84
   0   7   3  666.58   29.08
  -7   7   3  669.36   31.72
   0   7   3  707.48   29.33
   7   0   3  733.45   33.74
   0   7   3  733.53   30.72
   7  -7   3  742.16   30.96
   7  -7  -3  715.71   31.72
   7   0   4  267.75   17.87
   0  -7  -4  247.37   11.32
   7  -7   4  246.04   12.72
   7  -7  -4  256.57   13.14
   7  -7   4  273.06   17.70
   7   0  -4  254.03   10.42
  -7   7   4  254.07   16.80
   0   7   4  238.88   16.35
  -7   7  -4  251.01   19.20
   0  -7  -4  254.14   14.85
   0   7  -4  249.91   14.41
  -7   0  -4  257.12   14.90
  -7   7   4  249.22   16.83
  -7   7  -4  236.97   11.87
   7   0  -4  246.32   14.30
   7  -7  -4  273.33   19.60
   7  -7   4  286.69   15.94
   0   7   4  237.38   15.45
   0   7   4  249.60   14.17
  -7   0  -4  255.96   18.25
   7   0   4  255.94   17.63
   0  -7  -4  242.18   15.66
  -7   7  -4  277.20   13.15
   0   7   5   30.65    6.53
   7  -7  -5   30.51    4.97
   7  -7   5   31.30    5.07
   0   7  -5   31.26    4.18
   0  -7  -5   37.18    4.71
   7   0   5   27.23    7.18
   7  -7   5   33.49    7.31
   0  -7  -5   27.17    5.88
   7   0  -5   26.80    5.56
  -7   7  -5   25.73    3.23
   7  -7  -5   27.80    7.65
   0   7  -5   35.12    6.24
  -7   0  -5   21.10    5.83
  -7   7   5   31.27    7.09
   0   7   5   30.89    5.41
   7  -7   5   30.19    5.90
  -7   7  -5   32.51    5.07
   0  -7  -5   26.60    6.44
   7   0   5   35.09    7.46
   0   7   6   18.80    5.71
   7  -7  -6   20.18    4.80
   7  -7   6   23.30    5.31
   7   0   6   22.72    6.91
   7   0   6   20.51    6.93
   0  -7  -6   16.57    4.47
   0   7   6   22.43    5.09
   0  -7   6   21.93    5.47
   7  -7   6   22.74    7.47
   0   7  -6   25.76    4.70
   7   0  -6   32.22    6.16
   7  -7  -6   23.87    8.01
   0  -7  -6   21.91    5.98
  -7   7   6   31.26    7.39
  -7   7  -6   26.84    5.11
   0   7   6   24.31    4.93
   0  -7  -6   24.72    7.08
   7  -7  -7   10.37    4.85
   0   7   7   -1.75    5.64
   7   0   7   12.43    6.87
   7  -7   7   11.53    4.75
   0   7  -7   12.86    4.98
   0  -7  -7   11.79    4.57
   0   7   7    7.39    4.57
   0  -7   7    7.23    4.44
   7  -7  -7   15.21    7.88
   7   0  -7   11.94    7.09
   0  -7  -7    4.58    6.19
  -7   7   7    7.25    5.84
   7  -7  -7   11.78    7.86
   0  -7  -7    2.59    6.80
  -7   7  -7   12.28    4.76
   0   7  -8  151.20   11.27
   0   7  -8  145.17   12.72
   0  -7  -8  124.32   10.90
   7  -7  -8  155.32   12.14
   7  -7   8  124.16   10.75
   0   7   8  112.00   12.53
   0   7   8  145.91   11.72
   0  -7   8  116.83   10.80
   7   0  -8  152.82   15.01
   7  -7  -8  125.77   14.99
   7  -7  -8  119.15   14.68
  -7   7   8  138.90   13.67
   0  -7  -8  118.18   12.38
  -7   7  -8  136.85   10.97
   7   0   8  135.50   13.83
   0   7   9  967.14   41.60
   0   7  -9 1000.97   40.58
   0   7  -9  857.56   38.19
   7  -7  -9  970.24   40.05
   7  -7   9  896.63   38.84
   0  -7  -9  843.06   38.91
   0  -7   9  896.61   38.93
   7  -7  -9  912.83   44.62
   0   7   9  960.86   39.96
   7   0  -9 1024.76   45.23
   7  -7  -9  922.35   45.34
   0  -7  -9  881.46   40.47
  -7   7  -9  902.52   38.12
   7   0   9  925.35   43.55
   7   0  10   53.23   10.45
   7  -7  10   56.33    8.89
   7  -7 -10   90.24   11.05
   0   7  10   55.05    9.98
   0   7 -10   64.56    8.87
   0  -7 -10   46.27    8.78
   7  -7 -10   80.51   12.78
   7   0 -10   65.77   11.62
   0   7  10   47.61    8.86
   0  -7  10   63.36    9.82
   7  -7 -10   76.57   12.48
  -7   7 -10   58.57    7.60
  -7   7 -10   68.93    9.23
   7   0  11   -1.37    7.42
   7  -7  11    1.95    5.84
   0   7  11   -1.15    8.20
   7  -7 -11    0.97    6.01
  -7   7 -11    0.91    6.82
   0   7 -11    0.98    6.13
   7  -7 -11    4.50    7.86
   7   0 -11   -8.41    8.99
   0   7  11    5.96    6.76
   0  -7  11    3.02    6.52
   0  -7 -11   -2.09    5.72
   7  -7 -11   14.85    8.25
  -7   7 -11   -5.80    6.06
   7   0  12   -7.16    8.90
   7  -7  12   11.70    7.37
   0   7  12    1.24    7.44
   7  -7 -12   13.96    8.62
   7   0 -12    5.80    7.71
   0   7 -12   -1.08    7.61
   0  -7 -12   -1.15    7.06
   0   7  12   -2.17    7.91
   0  -7  12    3.31    8.31
   7  -7 -12    2.46    4.59
  -7   7  12    3.77    7.46
  -7   7 -12    1.94    4.45
   7   0  13   27.25    9.44
   7  -7  13   39.30    9.19
   0   7  13   18.40    7.94
  -7   7  13   44.01    9.70
   7  -7 -13   29.14    5.60
   7  -7 -13   32.33   10.08
   7   0 -13   30.26    9.95
   0   7 -13   24.79    7.62
   0  -7 -13   13.88    8.14
   7   0  14  105.86   14.79
   7  -7  14   67.33   11.49
   0   7  14   70.11   12.66
   7  -7 -14   90.14    8.60
  -7   7  14   70.61   11.73
   0   7 -14   88.49   12.89
   0  -7 -14   95.59   13.81
   7   0  15  344.87   26.61
   7  -7  15  292.78   23.10
   0   7  15  345.17   25.15
   0   7 -15  372.38   25.71
   0  -7 -15  326.75   25.41
  -7   7  15  330.39   24.49
   7  -7 -15  369.32   18.04
   0   7  16   15.41    9.04
   7   0  16    1.74    9.54
   7  -7  16   14.25    8.96
  -7   7  16   28.19    8.58
   0  -7 -16   17.38    9.83
   0   7 -16   17.80    8.92
   0   7  17   32.33   10.73
   7  -7  17   22.82    9.81
   7   0  17   31.17   11.55
  -7   7  17   34.64   10.40
   0   7 -17   34.81   10.91
   0  -7 -17   25.15   10.80
   0   7  18   -3.42    9.51
   7  -7  18   22.58   10.24
   7   0  18    5.73   10.00
  -7   7  18   26.40   10.17
   0   7 -18   -3.37   10.24
   0  -7 -18    1.77   10.65
   0   7 -19  -10.79   11.17
   0  -7 -19   11.23   10.55
   0   7  19   -8.89    9.60
   7  -7  19   -3.41    9.06
   0   7 -20   72.10   15.24
   0  -7 -20   51.49   13.98
   7  -7  20   66.07   14.64
  -1   8   0   13.47    5.71
  -8   7   0    8.91    5.21
   8  -7   0    8.11    3.20
   8  -7   0   17.28    4.94
  -1   8   0   15.02    4.99
  -1   8   0    8.76    3.91
   1  -8   0    9.07    4.25
   7   1   0   12.66    6.11
   8  -7   1    2.49    3.34
  -1   8   1    9.02    5.29
  -8   7   1    7.33    5.01
  -1   8  -1    8.53    4.52
   7   1  -1   18.54    6.63
   8  -7  -1    8.74    4.48
  -1   8  -1    7.20    4.08
  -1   8   1    5.34    3.82
  -1   8  -1   14.77    5.09
  -1   8   1    6.27    3.74
   8  -7   1    9.94    4.91
   1  -8   1   15.80    4.46
   7   1   1    9.36    5.37
   8  -7  -1    5.32    3.20
  -8   7   2  270.90   17.38
  -1   8   2  271.62   17.69
   1  -8  -2  253.53   16.09
   1  -8   2  271.55   15.79
  -7  -1  -2  254.47   13.08
  -1   8  -2  273.55   15.53
   8  -7   2  276.68   13.71
   8  -7   2  270.53   16.33
  -1   8   2  241.34   15.08
  -1   8  -2  284.06   15.10
  -1   8   2  289.76   15.39
   7   1  -2  283.55   19.63
   7   1   2  275.53   18.91
   8  -7  -2  249.68   13.33
   7   1   3  155.12   13.33
   8  -7   3  147.79    9.82
  -1   8   3  171.59   14.12
  -8   7   3  193.09   13.95
   1  -8  -3  146.23   11.89
  -7  -1  -3  139.20    9.56
   1  -8  -3  172.53   12.41
   1  -8   3  168.71   11.72
   7   1  -3  155.67    9.84
  -1   8  -3  144.00   11.46
   8  -7   3  165.87   12.16
  -1   8   3  158.33   11.37
  -1   8  -3  165.60   11.40
   7   1   3  160.11   14.13
  -1   8   3  166.25   11.72
   7   1   4  485.19   25.31
   8  -7  -4  489.93   21.16
   1  -8  -4  438.67   17.68
   8  -7   4  471.61   21.08
   8  -7   4  463.53   25.81
  -1   8   4  510.59   25.85
   1  -8   4  487.73   22.54
  -7  -1  -4  456.83   21.03
  -1   8  -4  481.78   23.04
  -8   7   4  434.83   24.97
  -8   7  -4  477.01   20.41
   7   1  -4  475.53   20.75
   1  -8  -4  418.53   23.04
  -1   8   4  453.11   22.10
   8  -7   4  484.63   23.15
  -1   8   4  457.69   22.38
   7   1   4  477.26   26.28
   1  -8  -4  443.28   22.12
   8  -7   5  142.36   10.33
   8  -7  -5  129.47   10.19
   7   1   5  122.13   12.79
   1  -8  -5  129.43    8.49
  -1   8   5  154.92   11.52
  -7  -1  -5  163.00    8.36
   1  -8   5  146.92    8.68
  -1   8  -5  136.14   11.79
  -8   7  -5  155.67    8.91
  -8   7   5  145.39   13.94
  -7  -1  -5  143.20   10.89
   1  -8  -5  150.03   12.21
   1  -8   5  160.86   11.13
   7   1  -5  142.74   10.03
  -8   7  -5  143.33   10.38
   1  -8  -5  129.89   11.32
   8  -7   5  124.19   10.62
  -1   8   5  132.16   10.64
   7   1   5  127.82   13.29
  -1   8   6    2.27    4.75
   8  -7   6   -1.29    3.83
   8  -7  -6   -0.64    3.79
   7   1   6   -2.31    5.66
  -1   8  -6   -0.66    4.49
  -7  -1  -6    2.76    3.21
   1  -8  -6   -0.49    3.13
   1  -8   6    0.47    3.50
   7   1   6   -1.95    5.72
   1  -8  -6    5.34    5.46
   7   1  -6   -0.61    3.80
  -8   7  -6    1.42    2.43
  -1   8  -6   -0.84    5.45
  -8   7   6   -4.35    6.60
  -1   8   6   -2.53    4.86
   1  -8  -6    1.51    4.98
  -8   7  -6    1.82    4.05
   1  -8   6    6.13    3.90
   8  -7   6    1.38    3.82
   7   1   7   10.78    6.97
  -1   8   7   20.45    6.78
   8  -7  -7   17.64    6.04
   8  -7   7   27.41    6.03
  -1   8  -7   23.20    6.28
  -1   8  -7   29.79    5.52
   1  -8  -7   32.45    5.42
   1  -8   7   28.63    5.67
   7   1  -7   26.02    8.09
   7   1  -7   30.62    6.19
   1  -8  -7   30.33    7.69
  -8   7  -7   25.08    2.75
  -8   7   7   27.33    7.93
   1  -8  -7   17.84    6.97
   1  -8   7   26.65    5.21
  -8   7  -7   22.71    5.89
  -1   8   8  256.37   17.34
  -1   8  -8  279.29   17.01
   8  -7   8  261.53   16.85
  -1   8  -8  272.65   15.64
   1  -8  -8  249.47   15.74
   8  -7  -8  265.82   16.69
   1  -8   8  240.91   15.35
   7   1  -8  251.38   19.49
   8  -7  -8  273.47   21.86
  -8   7   8  251.84   19.68
   1  -8   8  283.13   15.19
   1  -8  -8  269.54   18.39
   1  -8  -8  287.96   17.97
   7   1   8  283.34   20.54
  -8   7  -8  252.93   16.02
  -1   8   9  194.03   15.58
   8  -7   9  184.88   14.78
  -1   8  -9  224.37   14.45
   1  -8  -9  197.70   14.52
   8  -7  -9  203.72   15.39
  -1   8  -9  218.17   15.24
   1  -8   9  190.12   14.49
   7   1  -9  207.41   17.94
   8  -7  -9  197.41   18.90
  -8   7   9  188.25   17.44
   1  -8   9  214.12   12.54
   1  -8  -9  213.42   16.22
   7   1   9  231.76   19.01
  -8   7  -9  193.45   14.49
  -1   8  10  266.71   18.94
   8  -7  10  259.35   18.08
   8  -7 -10  288.14   18.63
  -1   8 -10  302.94   18.31
   1  -8 -10  244.89   17.67
   7   1  10  288.17   21.71
  -1   8 -10  277.80   18.21
   1  -8  10  238.38   17.42
   7   1 -10  283.42   21.65
   8  -7 -10  262.92   22.42
   1  -8  10  316.35   15.21
  -8   7 -10  300.27   18.62
  -1   8 -11   26.93    7.04
   7   1 -11   20.84    8.56
   1  -8  11   22.28    8.00
   1  -8 -11   20.31    7.13
   8  -7 -11   22.48    9.89
  -1   8  11   21.39    7.97
   8  -7  11   13.31    6.87
   7   1  11   20.02    8.71
  -1   8  11   22.20    8.12
  -8   7 -11   17.07    7.43
   8  -7  12   -1.10    6.02
   7   1  12    7.50    8.90
  -1   8  12    1.19    7.15
  -1   8 -12    1.07    6.55
   7   1 -12    1.43    7.28
   8  -7 -12    1.66    7.86
   1  -8  12   -3.19    7.30
   1  -8 -12   -2.24    6.63
   8  -7  13   35.79    9.35
   7   1  13   18.79    9.44
  -1   8  13   20.04    8.72
  -8   7  13   29.56    9.53
   8  -7 -13   37.59    6.11
   7   1 -13   19.43    9.53
   8  -7 -13   15.38    9.66
   1  -8 -13   29.28    8.93
  -1   8 -13   17.54    7.62
   7   1  14  180.20   19.48
   1  -8 -14  182.48   18.05
  -1   8 -14  185.15   17.11
  -1   8  14  209.63   18.62
   8  -7  14  187.30   17.51
   8  -7 -14  218.34   21.46
   8  -7 -14  198.06   12.75
  -8   7  14  183.75   18.43
  -1   8  15   65.84   11.87
   8  -7  15   73.35   12.38
   7   1  15   72.01   13.55
  -1   8 -15   75.33   12.23
   1  -8 -15   71.47   12.39
   8  -7 -15   86.29   13.98
  -8   7  15   51.93   11.70
   8  -7 -15   66.28    7.52
  -1   8  16  119.79   15.61
   8  -7  16  104.36   14.28
   7   1  16  118.20   17.24
  -8   7  16  114.49   15.64
   1  -8 -16   98.00   14.97
  -1   8 -16   88.28   14.61
  -1   8  17   17.30    8.92
   8  -7  17   58.36   12.36
   7   1  17   35.46   11.76
  -8   7  17   38.42   10.51
  -1   8 -17   23.59   10.45
   1  -8 -17   29.45   10.76
  -1   8 -18    8.39   10.07
   1  -8 -18    6.95   10.68
   7   1 -18   15.11   10.35
  -1   8  18    1.65    9.44
   8  -7  18   12.94    9.48
  -1   8 -19   -1.77   10.13
   1  -8 -19    1.86   10.31
  -1   8  19    6.96    9.80
   8  -7  19   22.20   11.51
  -1   8 -20   74.83   16.33
   1  -8 -20   75.78   16.27
  -8   6   0 1929.99   68.51
   8  -6   0 1986.36   74.62
  -2   8   0 1872.25   68.13
  -8   6   0 1855.49   72.06
   2  -8   0 1842.45   67.52
   8  -6   0 1846.11   65.81
  -2   8   0 1869.58   68.03
  -2   8   0 1923.40   64.66
   6   2   0 1803.21   71.71
  -2   8   1   16.91    4.24
  -2   8   1   23.35    6.74
  -8   6   1   18.25    5.67
  -8   6   1   19.26    7.28
  -2   8  -1   29.03    6.59
  -8   6  -1   20.92    7.64
   8  -6  -1   19.21    7.65
   2  -8  -1   29.17    6.89
  -2   8  -1   19.35    4.73
   8  -6   1   21.62    5.29
  -2   8   1   33.79    6.50
   8  -6  -1   19.15    5.01
   2  -8   1   33.43    6.11
   6   2   1   19.80    6.45
   8  -6   1   17.53    4.74
  -2   8   2  831.57   35.35
  -8   6   2  783.11   32.72
   2  -8  -2  689.81   25.86
   6   2  -2  687.04   24.81
   8  -6  -2  758.74   36.66
   2  -8  -2  739.94   33.70
  -8   6  -2  766.42   35.61
  -8   6   2  762.21   35.32
  -2   8  -2  805.93   33.08
   2  -8   2  797.53   31.75
  -6  -2  -2  749.28   26.42
  -2   8   2  795.73   29.37
   8  -6   2  771.04   30.63
  -2   8  -2  758.66   29.03
   8  -6  -2  716.80   30.12
  -2   8   2  806.88   32.11
   6   2   2  770.45   35.62
   8  -6   2  795.07   32.31
   6   2   3  150.72   11.91
  -2   8   3  139.46    9.38
  -2   8   3  149.37   12.78
  -8   6   3  141.65   11.52
   2  -8  -3  114.10    7.40
   8  -6  -3  133.71   13.59
   6   2  -3  134.19    7.81
   2  -8  -3  122.96   10.45
   2  -8  -3  145.20   11.30
  -6  -2  -3  128.01    7.68
   2  -8   3  146.90   10.57
  -8   6  -3  139.12   13.94
  -2   8  -3  130.70   11.11
   2  -8  -3  145.66   12.13
   8  -6   3  135.01   10.45
   8  -6   3  126.47    9.90
   6   2   3  163.08   13.69
  -2   8   3  144.38   10.80
   6   2   4  473.18   23.39
  -2   8   4  436.29   20.00
  -2   8   4  405.87   23.59
   2  -8  -4  418.50   18.55
   2  -8  -4  466.95   22.69
  -2   8  -4  428.24   22.85
  -6  -2  -4  392.97   18.59
   8  -6  -4  474.14   26.58
   2  -8  -4  437.57   22.00
   2  -8  -4  464.43   23.78
   2  -8   4  464.08   21.31
   6   2  -4  438.19   18.37
   8  -6   4  468.40   21.67
   8  -6   4  438.65   21.27
   6   2   4  433.67   24.87
  -8   6  -4  400.79   20.69
   2  -8  -4  435.90   20.25
  -2   8   4  471.71   21.86
  -2   8   5  288.20   16.22
  -2   8  -5  325.09   16.17
   6   2   5  334.17   19.47
   8  -6   5  309.96   17.35
  -2   8   5  308.76   19.96
   2  -8  -5  271.90   14.97
  -6  -2  -5  343.18   14.92
   6   2  -5  317.13   15.24
   2  -8  -5  313.92   17.67
   2  -8   5  293.30   16.28
   2  -8  -5  330.82   19.75
   8  -6  -5  369.56   22.98
  -2   8  -5  319.24   19.10
   6   2   5  289.70   19.95
  -8   6  -5  314.23   17.41
   2  -8  -5  331.55   16.91
  -2   8   5  325.30   17.34
   8  -6   5  328.94   17.17
  -2   8   6 1366.76   51.82
   8  -6  -6 1399.28   52.57
   6   2   6 1427.44   55.07
   8  -6   6 1335.36   52.72
  -2   8  -6 1448.50   51.29
  -6  -2  -6 1425.63   49.84
   6   2  -6 1366.81   55.74
   2  -8  -6 1338.75   50.92
  -2   8  -6 1306.54   54.69
   2  -8   6 1389.68   51.24
   2  -8  -6 1272.76   55.11
   8  -6  -6 1489.59   59.80
   2  -8  -6 1449.95   53.42
   8  -6   6 1427.26   51.47
  -8   6  -6 1335.05   52.27
   6   2   6 1345.89   56.99
   2  -8  -6 1394.25   52.13
   8  -6  -7  124.31   11.65
  -2   8   7  126.39   11.05
   6   2   7  146.96   13.17
  -2   8  -7  171.62   11.59
   8  -6   7  142.74   12.17
   6   2  -7  125.23   12.80
  -6  -2  -7  130.56    9.71
   8  -6  -7  115.13   11.35
   2  -8  -7  142.95   10.96
   2  -8  -7  148.76   11.46
   2  -8  -7  137.44   13.37
   2  -8   7  141.06   10.03
   8  -6  -7  166.49   15.83
   2  -8  -7  134.54   11.15
   8  -6   7  161.57   10.68
  -8   6  -7  132.83   11.57
   6   2   7  135.62   14.13
  -2   8  -8  574.30   26.14
   8  -6   8  536.33   27.07
  -2   8   8  577.77   26.85
  -2   8  -8  521.07   25.13
   6   2   8  556.15   28.73
   8  -6  -8  542.36   26.85
   8  -6  -8  549.17   32.32
   6   2  -8  507.93   28.75
   8  -6  -8  525.96   26.61
   2  -8  -8  500.05   25.47
   2  -8   8  561.25   23.96
   2  -8  -8  525.59   25.67
   2  -8  -8  567.74   29.75
   8  -6  -8  547.68   31.46
   6   2   8  521.51   19.00
   2  -8  -8  600.38   26.64
   2  -8  -8  521.77   25.90
   6   2   8  514.17   30.15
  -8   6  -8  545.93   26.46
   6   2   9   -2.55    8.51
  -2   8  -9    0.76    5.07
   8  -6  -9    4.41    6.33
   8  -6   9    1.90    5.48
  -2   8   9    4.41    5.54
   6   2  -9    1.16    6.29
   2  -8  -9    5.99    5.31
   8  -6  -9    5.97    7.94
  -2   8  -9   -0.83    5.12
   8  -6  -9    8.25    6.62
   2  -8  -9    1.71    5.36
  -8   6  -9    0.85    5.48
   2  -8  -9   -1.49    4.26
   2  -8   9    1.06    3.88
   8  -6  10  744.83   34.32
  -2   8 -10  687.75   32.40
  -2   8  10  655.00   32.25
  -2   8 -10  680.52   31.29
   6   2  10  681.69   36.22
   6   2 -10  672.76   34.99
   2  -8 -10  619.08   31.92
   8  -6 -10  680.32   38.03
   2  -8  10  711.81   28.21
   8  -6 -10  657.55   36.50
   2  -8 -10  737.94   31.08
  -8   6 -10  682.36   32.63
   2  -8 -10  657.02   32.18
  -2   8 -11   72.90    9.76
   6   2  11   53.49   10.88
   8  -6  11   55.50   10.29
  -2   8  11   78.50   10.43
   6   2 -11   65.21   11.12
   8  -6 -11   78.51   13.36
   2  -8 -11   62.35    9.77
  -2   8 -11   67.33    9.73
   8  -6 -11   68.50   11.88
   2  -8  11   64.88    6.61
   2  -8 -11   81.89    8.82
   8  -6  12 1113.12   49.52
  -2   8 -12 1149.58   49.03
  -2   8  12 1170.69   48.97
   6   2  12 1175.28   52.85
   8  -6 -12 1102.06   53.81
   2  -8 -12 1078.93   48.83
  -8   6  12 1157.01   52.16
   2  -8  12 1071.69   41.18
   2  -8 -12 1145.32   44.79
  -2   8  13   72.78   10.92
   6   2  13   75.85   13.09
   8  -6  13   88.14   12.78
  -2   8 -13   79.52   11.96
   8  -6 -13   77.21   14.10
   2  -8 -13   87.96   12.32
  -8   6  13   91.79   13.34
   2  -8  13   86.96    7.07
   2  -8 -13   87.47    9.38
   6   2  14  304.14   24.36
   2  -8 -14  279.47   21.96
   8  -6  14  297.88   22.20
  -2   8 -14  319.19   22.81
  -2   8  14  296.93   22.05
   8  -6 -14  312.63   25.43
  -8   6  14  330.22   24.13
   2  -8  14  321.83   14.46
   8  -6 -14  267.10   15.38
   2  -8 -14  300.25   17.54
   8  -6  15   61.01   12.24
  -2   8  15   48.99   11.05
   6   2  15   73.03   13.64
   8  -6 -15   67.24   14.19
  -2   8 -15   69.78   12.70
   2  -8 -15   36.59   11.55
  -8   6  15   67.04   12.89
   2  -8 -15   44.02    7.73
   6   2  16  262.38   23.87
  -2   8 -16  250.00   21.98
   8  -6  16  254.38   21.80
  -2   8  16  250.26   21.59
   2  -8 -16  233.73   21.65
  -8   6  16  244.32   21.86
   8  -6  17    7.93    8.95
  -2   8  17   26.10    9.66
   6   2  17   31.60   11.43
  -8   6  17   25.35   10.29
  -2   8 -17    3.25    8.67
   2  -8 -17   16.55    9.83
   6   2 -17   39.25   12.60
  -6  -2 -17   21.01   13.07
   6   2 -18  375.72   29.14
  -2   8  18  348.72   26.86
  -2   8 -18  391.70   29.03
   8  -6  18  315.35   26.50
   2  -8 -18  397.81   29.52
  -6  -2 -18  412.51   33.24
  -2   8 -19   52.96   13.47
   2  -8 -19   29.42   12.10
   6   2 -19   29.18   12.92
   8  -6  19   33.57   12.30
  -2   8  19   42.58   12.07
  -2   8 -20  151.94   19.91
   2  -8 -20  126.10   18.83
   3  -8   0  311.08   14.24
  -8   5   0  328.30   16.89
   8  -5   0  342.74   21.42
  -8   5   0  311.52   19.76
  -3   8   0  339.31   19.10
   3  -8   0  338.89   17.10
  -3   8   0  323.29   13.11
   8  -5   0  300.85   16.96
  -3   8   1   34.17    3.87
   3  -8   1   45.84    4.77
  -3   8   1   46.65    7.97
   3  -8  -1   33.17    4.72
   5   3  -1   33.35    3.93
  -8   5   1   48.30    6.33
  -3   8   1   44.29    7.29
  -8   5   1   43.20    8.12
   3  -8   1   31.88    5.72
  -3   8  -1   37.98    7.37
  -8   5  -1   25.02    6.47
   3  -8  -1   45.91    6.67
   3  -8   1   37.12    5.71
   8  -5  -1   32.25    7.24
   3  -8  -1   44.73    7.32
   8  -5  -1   39.99    6.45
  -3   8   1   30.89    6.29
   8  -5   1   45.25    6.50
  -3   8  -1   37.42    3.80
  -3   8   2    5.40    2.96
  -3   8  -2    1.78    2.59
   3  -8   2    4.33    3.26
   5   3   2    2.55    4.34
   3  -8  -2    2.92    3.53
  -3   8   2    0.91    4.53
  -8   5   2    0.60    4.11
   3  -8   2    9.74    4.18
  -3   8  -2    4.66    5.19
  -8   5  -2    7.65    5.81
   3  -8  -2    7.22    5.84
   8  -5  -2    3.10    5.67
   3  -8  -2    1.82    5.27
   3  -8   2   12.79    4.37
   8  -5  -2    6.47    4.40
  -3   8   2    4.66    5.65
   8  -5   2    7.17    4.40
  -3   8  -2    3.39    4.69
  -3   8  -2    4.99    2.68
   3  -8  -2    3.92    4.36
  -3   8  -3 1961.87   62.65
  -3   8   3 1909.39   63.20
   5   3   3 1864.41   67.31
   3  -8   3 1858.39   63.82
  -3   8   3 1985.76   71.45
   3  -8  -3 1751.42   64.40
  -3   8  -3 1897.18   69.45
  -8   5  -3 1876.09   71.85
   3  -8   3 1920.27   66.72
   3  -8  -3 1883.44   67.48
   3  -8  -3 1878.16   67.89
   8  -5  -3 1949.97   72.75
   3  -8  -3 1888.17   70.68
  -5  -3  -3 1759.32   60.53
   5   3  -3 1846.04   60.38
  -3   8  -3 1868.73   67.60
  -3   8   3 1916.86   67.62
   8  -5   3 1901.88   67.77
   8  -5   3 1896.29   66.73
  -3   8  -4   42.48    4.91
  -3   8   4   33.65    4.94
   8  -5   4   47.83    7.22
   3  -8  -4   36.46    5.33
   5   3   4   46.85    7.10
   3  -8   4   41.02    5.43
  -3   8   4   48.72    7.92
   5   3  -4   40.74    3.95
   3  -8  -4   53.18    8.26
   8  -5  -4   51.10    8.69
  -8   5  -4   37.19    8.62
   3  -8  -4   36.67    6.63
  -3   8  -4   36.44    7.69
   3  -8   4   42.34    6.01
   3  -8  -4   32.71    4.79
  -8   5  -4   39.65    7.47
  -3   8  -4   50.77    7.09
   8  -5   4   51.37    6.28
   3  -8  -4   35.50    6.27
   3  -8  -4   49.92    7.09
  -5  -3  -4   55.44    9.52
   8  -5   5    9.24    4.78
  -3   8  -5    4.68    3.46
  -3   8   5    5.45    3.22
   5   3   5    5.24    4.21
   3  -8   5    2.65    3.54
   5   3  -5    3.29    4.24
  -3   8   5    2.97    4.85
  -5  -3  -5    2.82    3.51
   8  -5  -5    7.76    5.71
   3  -8  -5    5.96    4.78
   3  -8   5   -4.04    3.86
   3  -8  -5    4.01    4.76
  -8   5  -5    6.71    6.87
  -3   8  -5    4.68    5.34
  -8   5  -5    3.01    5.02
   3  -8  -5    0.69    3.49
   8  -5   5    0.55    3.20
   3  -8  -5    3.07    3.83
   3  -8  -5    6.76    3.61
  -3   8   6   93.58    8.32
  -3   8  -6  102.80    8.13
   5   3   6  103.65   10.35
   8  -5   6   99.93   10.21
   8  -5  -6   84.80    8.92
   3  -8   6   90.34    8.76
   5   3  -6  106.75   10.78
  -5  -3  -6   94.47    8.17
   3  -8  -6  120.11   11.88
   3  -8   6   89.57    8.16
  -3   8  -6   84.38   11.04
   8  -5  -6  105.38   12.23
   3  -8  -6  102.19    9.15
   8  -5   6  109.89    8.36
   3  -8  -6  106.10    9.65
   3  -8  -6   80.93    7.96
  -8   5  -6   97.84   10.03
   8  -5   7   38.97    7.80
  -3   8   7   51.27    7.14
  -3   8  -7   52.18    6.35
  -5  -3  -7   39.30    6.32
   8  -5  -7   40.68    6.94
   5   3   7   52.19    8.31
   5   3  -7   51.33    8.47
   3  -8   7   49.19    7.06
   3  -8  -7   52.89    8.91
   8  -5  -7   39.95    8.81
   3  -8   7   39.46    6.08
   3  -8  -7   54.37    7.26
   8  -5   7   75.76    6.61
   5   3   7   48.85    4.33
   3  -8  -7   39.14    6.63
   3  -8  -7   42.89    6.64
  -8   5  -7   54.68    8.50
  -3   8   8   60.37    7.60
   8  -5   8   57.68    9.17
   8  -5  -8   53.32    8.82
  -3   8  -8   60.61    7.70
   5   3  -8   63.97    9.09
   5   3   8   46.95    8.24
   8  -5  -8   39.52    7.24
   3  -8   8   59.05    8.02
  -5  -3  -8   51.96    7.46
   3  -8   8   65.40    6.83
   3  -8  -8   36.15    8.67
   8  -5  -8   61.25   10.56
   5   3   8   55.18    4.13
  -8   5  -8   50.32    8.78
   3  -8  -8   64.83    8.14
   3  -8  -8   51.82    7.57
   8  -5   8   44.47    5.73
   3  -8  -8   58.26    7.58
   5   3   9 1235.71   50.97
   8  -5   9 1230.50   51.18
   8  -5  -9 1220.81   50.49
  -3   8  -9 1226.10   47.85
  -3   8   9 1254.30   49.13
  -3   8  -9 1239.44   50.50
   8  -5  -9 1174.15   48.73
   3  -8  -9 1169.70   50.14
   5   3  -9 1283.41   52.34
  -5  -3  -9 1249.37   47.91
   3  -8   9 1196.68   49.11
   8  -5  -9 1259.63   56.87
   3  -8   9 1247.17   45.80
   3  -8  -9 1238.60   53.58
   5   3  -9 1217.72   43.37
   8  -5  -9 1257.22   54.72
   3  -8  -9 1251.79   48.45
   3  -8  -9 1260.41   49.03
  -8   5  -9 1231.00   50.44
   3  -8  -9 1237.00   48.82
  -3   8  10    8.10    5.96
   8  -5  10    5.47    6.32
  -3   8 -10    7.04    6.02
   3  -8 -10    5.21    6.12
  -3   8 -10    6.12    6.68
   8  -5 -10    3.05    7.05
   3  -8 -10    6.17    6.17
   3  -8  10    3.63    4.02
   8  -5 -10    4.00    6.53
   3  -8 -10    6.35    5.10
   3  -8 -10    1.51    4.74
   5   3 -10    0.97    2.98
  -3   8  11   10.81    6.12
   8  -5  11    4.67    7.19
  -3   8 -11   12.81    6.49
   3  -8 -11   14.12    6.48
   8  -5 -11    7.94    7.80
   3  -8 -11   28.03    7.85
  -3   8 -11    7.76    6.91
   3  -8  11   19.54    4.15
  -8   5 -11   15.11    2.85
   3  -8 -11   20.21    5.96
   5   3 -11   13.39    3.10
  -3   8  12   50.39    9.36
   8  -5  12   35.22   10.04
   8  -5 -12   32.61   10.97
   3  -8 -12   39.89    9.52
  -3   8 -12   44.59   10.01
  -8   5 -12   43.50    4.08
   3  -8 -12   35.31    7.29
   3  -8  12   44.59    5.68
  -3   8 -13   10.42    7.44
   8  -5 -13   -3.40    8.78
   3  -8 -13   11.79    7.38
  -5  -3 -13    3.16    9.25
  -3   8  13    8.13    6.80
   8  -5  13   -5.34    8.48
   3  -8 -13    1.67    5.24
   3  -8  13    6.90    3.91
   8  -5  14    9.95    8.65
  -3   8  14   12.52    7.88
  -3   8 -14    9.77    8.69
   8  -5 -14   13.88    8.67
   3  -8 -14   23.70    9.59
  -5  -3 -14   16.90    9.54
  -8   5  14   15.22    9.88
   3  -8  14   21.30    4.33
   3  -8 -14   21.99    6.76
  -5  -3 -15  628.32   39.12
  -3   8 -15  655.64   37.12
   8  -5  15  684.02   37.69
  -3   8  15  657.51   35.74
   3  -8 -15  654.66   37.07
   8  -5 -15  646.84   39.44
   5   3 -15  701.66   39.03
  -8   5  15  666.93   38.15
   3  -8  15  670.00   26.24
   3  -8 -15  733.59   32.04
   8  -5  16   -3.13    9.51
  -3   8  16   14.27    8.97
   3  -8 -16    3.19    8.85
   5   3 -16    1.66    8.86
  -5  -3 -16    5.73   10.77
  -3   8 -16    7.96    9.21
  -8   5  16   11.18    9.35
   3  -8 -16    6.89    6.48
   8  -5  17    1.64    8.44
  -3   8  17   -7.61    8.92
  -8   5  17   -9.78    9.67
  -3   8 -17   -1.69    9.26
   3  -8 -17   -6.77   10.97
   5   3 -17   -5.24   10.73
  -5  -3 -17   -8.05   14.19
   8  -5  18   62.52   13.88
  -3   8  18   59.58   12.90
  -8   5  18   57.22   12.53
   3  -8 -18   66.48   14.26
   5   3 -18   56.50   13.96
  -3   8 -18   80.50   14.67
  -5  -3 -18   65.44   16.48
   3  -8 -19    7.61   11.00
   5   3 -19   11.45   11.18
  -3   8 -19    3.77   10.19
  -5  -3 -19   -2.21   10.83
   8  -5  19    5.42    9.76
  -3   8  19    1.69    9.80
  -3   8 -20    1.99   11.03
  -3   8  20    1.77    9.86
  -8   4   0   46.85    5.88
   4   4   0   39.23    5.43
  -4   8   0   69.20    9.24
  -8   4   0   56.51    8.35
   4  -8   0   53.00    7.36
   4  -8   0   61.54    9.30
   8  -4   0   78.38    9.87
   4   4   0   48.02    8.63
   8  -4   0   54.84    7.23
   4   4   1  133.61    9.38
   4  -8   1  146.38    9.69
  -8   4   1  131.42    9.13
   4   4   1  123.04    8.73
  -8   4  -1  140.89    9.30
   4   4  -1  120.99    8.49
  -4   8   1  140.35   12.29
  -8   4  -1  140.03   12.32
   4  -8  -1  117.22   10.17
   4  -8  -1  140.16   12.86
   8  -4  -1  153.05   13.10
   4  -8   1  132.75    9.71
  -4   8   1  130.23   11.49
  -8   4   1  109.99   11.15
  -4   8  -1  139.31   12.12
   8  -4  -1  122.84   10.78
   8  -4   1  130.88   10.92
   4  -8  -1  135.17   11.22
   4   4  -1  133.76   12.68
   4   4   1  138.92   12.22
  -4   8  -1  139.17   10.86
   4  -8   2  219.63   12.67
   4   4   2  231.09   12.86
  -4   8   2  222.31   15.76
   4  -8  -2  225.53   13.81
   4  -8  -2  222.23   16.60
   8  -4  -2  239.57   16.47
   4  -8  -2  215.02   14.10
   4  -8   2  213.71   12.23
  -4   8  -2  202.18   15.16
  -8   4  -2  253.75   16.77
  -4   8  -2  227.85   14.26
   8  -4   2  233.21   14.93
   4   4   2  220.86   15.95
   4  -8  -2  220.84   14.75
   8  -4  -2  190.53   13.87
   4   4  -2  206.28   16.08
   4   4   3  378.08   17.65
   4  -8   3  339.20   17.21
  -4   8  -3  350.53   13.16
  -4   8   3  321.06   13.41
  -4   8   3  332.79   20.55
   4  -8  -3  340.50   18.24
   4   4  -3  337.22   17.59
  -4   8  -3  320.85   20.08
   4  -8  -3  347.24   18.21
   4  -8  -3  373.20   21.76
  -8   4  -3  332.10   20.67
   8  -4  -3  371.24   21.37
   4  -8  -3  350.90   19.24
   4  -8   3  343.85   15.99
  -4   8  -3  359.34   18.86
   4  -8  -3  368.18   19.71
   4   4   3  332.88   20.38
   8  -4   3  342.08   19.29
   4  -8   4  210.25   12.92
   4   4   4  228.19   13.34
  -4   8  -4  220.68   10.15
  -4   8   4  210.85   10.32
   4   4  -4  212.25   13.51
   4  -8  -4  220.22   14.06
  -4   8   4  241.77   16.42
  -8   4  -4  188.61   15.45
   4  -8  -4  217.77   14.67
   4  -8  -4  210.34   13.48
  -4   8  -4  221.78   15.97
   4   4  -4  201.68   11.84
   8  -4  -4  199.72   15.29
   4  -8  -4  196.80   15.42
   4  -8   4  201.45   11.00
   4  -8  -4  219.39   14.48
   8  -4   4  212.13   14.83
   4  -8  -4  185.47    9.97
  -8   4  -4  205.74   14.69
  -4  -4  -4  220.86   16.46
  -4   8  -4  224.94   14.03
   4   4   4  216.40   15.94
  -4   8  -5   70.83    6.08
   4   4   5   81.42    8.27
  -4   8   5   76.35    6.27
   8  -4   5   71.58    8.85
   4  -8   5   77.44    8.02
  -4   8   5   78.59    9.90
   4  -8  -5   78.03    8.50
   4   4  -5   82.20    8.56
   4   4  -5   69.64    6.56
   4  -8  -5   77.09    7.90
   4  -8  -5   73.68   10.02
   8  -4  -5   77.92    9.92
  -4   8  -5   58.96    9.47
  -8   4  -5   76.27   10.32
   4  -8   5   72.33    5.80
   4  -8  -5   74.63    9.26
  -4  -4  -5   80.11   10.64
   4  -8  -5   74.51    8.45
   4   4   5   91.10   10.34
  -8   4  -5   67.46    9.24
   4  -8  -5   71.45    6.24
  -4   8  -5   71.94    8.36
   8  -4   5   88.57    7.26
  -4   8  -6    1.33    3.51
  -4   8   6    0.99    3.57
   4   4   6    4.19    5.90
   8  -4   6    9.92    6.02
   8  -4  -6    2.90    3.83
   4  -8  -6    7.96    4.55
  -4  -4  -6   13.03    5.42
   4   4  -6    2.28    4.50
   4  -8   6   -2.08    4.85
   4   4   6    4.85    4.58
   4  -8  -6    6.72    5.68
   8  -4  -6    5.38    5.55
   4  -8   6    3.50    2.76
  -4   8  -6    3.27    6.23
  -8   4  -6    4.50    7.44
  -8   4  -6    7.83    5.87
   4   4   6    2.52    2.96
   4  -8  -6    5.41    4.02
   4  -8  -6    2.41    3.64
   4  -8  -6    4.79    4.25
   4   4  -6    1.73    3.25
   8  -4   6    7.22    3.50
   8  -4   7   51.47    8.50
  -4   8  -7   46.03    6.26
  -4   8   7   45.05    6.51
   4  -8  -7   45.66    6.40
   4   4   7   48.82    9.42
   4  -8  -7   41.99    7.42
   4   4  -7   40.23    7.44
   4  -8   7   38.00    7.05
   4   4   7   48.36    7.55
   8  -4  -7   53.21    7.02
  -4  -4  -7   47.41    7.38
   4  -8   7   43.10    4.07
   4  -8  -7   62.29    9.72
   8  -4  -7   39.49    8.16
  -4   8  -7   58.66   10.52
   8  -4   7   48.26    5.26
   4  -8  -7   48.74    7.25
   4  -8  -7   59.12    7.00
  -8   4  -7   38.03    8.17
   4   4  -7   48.78    5.37
   4   4   7   45.33    4.57
  -4   8  -8  191.56   12.10
   8  -4   8  171.08   14.92
  -4   8   8  171.30   12.27
   8  -4  -8  184.39   13.11
  -4  -4  -8  191.80   13.37
   4  -8   8  175.61   13.58
   4   4   8  195.63   14.29
   8  -4  -8  200.45   16.51
   4  -8   8  187.50    8.08
   4  -8  -8  174.51   16.11
   4  -8  -8  188.55   12.69
   4   4  -8  165.60    9.75
  -8   4  -8  185.34   15.18
   4  -8  -8  220.75   14.43
   8  -4   8  182.60   10.02
   4   4   8  178.96   16.00
   4  -8  -8  165.67   12.10
   4   4   8  174.05    8.81
  -4   8  -9  159.07   12.10
   8  -4   9  146.74   14.14
   4   4   9  192.83   16.41
  -4   8   9  150.11   12.20
   4   4   9  151.00   13.21
   8  -4  -9  138.24   11.63
  -4  -4  -9  168.67   13.11
   4  -8   9  129.14   12.80
   8  -4  -9  150.06   16.29
   4  -8  -9  142.75   11.27
   4  -8  -9  106.60   13.30
   4   4  -9  133.76    8.50
   8  -4  -9  161.44   15.46
   4  -8  -9  143.32   12.23
   4  -8  -9  136.36   11.93
  -4   8 -10  304.09   17.78
   8  -4  10  268.70   19.92
  -4  -4 -10  316.02   21.13
   4   4  10  341.90   22.93
  -4   8  10  327.70   19.08
   8  -4 -10  277.44   17.49
  -4  -4 -10  304.66   18.39
   4  -8  10  285.31   19.40
   4   4  10  287.78   19.19
   8  -4 -10  313.97   23.88
   4   4 -10  280.15   13.13
   4  -8 -10  316.28   17.52
   4  -8 -10  324.00   19.06
   4  -8 -10  311.67   18.44
   8  -4 -11   51.91   11.82
  -4   8 -11   49.42   10.25
  -4  -4 -11   53.85   10.23
   4   4  11   38.02    9.75
   8  -4  11   40.41    9.30
  -4   8 -11   43.72    8.04
  -4   8  11   39.31    8.14
   4  -8 -11   29.14    7.79
   4  -8 -11   43.05    7.95
   4  -8 -11   38.56    6.85
   4   4  12   44.36   10.64
  -4   8 -12   21.48    7.37
   8  -4  12   33.87    9.61
  -4   8  12   26.35    7.73
   8  -4 -12   29.02    9.71
   4   4 -12   16.17    7.60
   4  -8 -12   32.13    8.95
  -4   8 -12   23.59    8.36
  -4  -4 -12   16.62    7.64
  -8   4 -12   31.16    4.50
   4  -8 -12   26.65    6.67
   4  -8 -12   29.59    7.15
   4   4  13   42.03   11.42
   8  -4  13   31.82    9.30
  -4   8  13   53.93    9.77
   8  -4 -13   53.87   12.39
   4   4 -13   42.98   10.54
   4  -8 -13   70.73   11.75
  -4   8 -13   65.94   11.00
  -4  -4 -13   40.01   10.32
  -8   4 -13   56.17    5.59
   4  -8 -13   64.88    9.07
   4  -8 -13   62.23    8.03
   8  -4 -14  108.13   16.12
   4   4 -14  117.50   15.30
   4  -8 -14  100.57   14.20
  -4  -4 -14  133.34   16.54
  -4   8 -14   97.25   14.49
   4   4  14  117.14   15.35
   8  -4  14  104.75   14.81
  -4   8  14  101.77   13.07
   4  -8 -14  127.54   12.24
  -4   8  15  205.14   18.17
   4   4  15  147.70   18.50
   8  -4  15  144.42   17.76
   4  -8 -15  154.95   18.01
   8  -4 -15  152.76   19.29
   4   4 -15  147.01   17.54
  -4   8 -15  161.01   18.37
  -4  -4 -15  165.99   19.05
   4  -8  15  155.42   10.00
   4  -8 -15  198.41   15.36
   4   4  16   76.85   15.26
   8  -4  16   83.83   13.88
  -4   8  16   82.19   13.12
   4   4 -16   77.22   13.76
   4  -8 -16   56.52   12.71
  -4   8 -16   62.63   13.49
  -4  -4 -16   87.99   15.50
   4  -8  16   67.80    6.69
  -8   4  16   72.49   14.41
   4  -8 -16   73.34   10.70
   4   4  17   32.99   12.15
  -4   8  17   37.43   10.77
   8  -4  17   20.42   10.72
  -4  -4 -17   20.90   11.96
   4   4 -17   27.06   11.00
   4  -8 -17   35.08   11.97
  -4   8 -17   16.12    9.85
  -8   4  17   20.57    9.82
   4  -8 -17   30.31    7.40
   8  -4  18   10.68    9.76
   4   4  18   36.27   12.26
  -4   8  18   29.98   10.85
  -8   4  18   13.78    9.85
  -4  -4 -18    4.00   11.28
   4   4 -18   21.23   11.13
   4  -8 -18   14.64   10.46
  -4   8 -18   20.78   11.75
  -4  -4 -19    2.10   10.83
   4   4 -19    1.87    9.64
   4  -8 -19    3.87   10.46
  -4   8 -19   23.83   12.06
   8  -4  19    3.70    9.70
  -4   8  19    1.66   10.18
   3   5   0  825.70   29.58
   3   5   0  767.41   31.71
   5  -8   0  785.85   37.87
   3   5   0  828.31   32.39
  -8   3   0  776.85   34.70
  -5   8   0  785.64   35.94
   5  -8   0  854.78   35.09
   8  -3   0  779.23   34.67
   3   5   0  764.19   35.11
   3   5   1  110.29    7.45
   3   5   1  110.29    9.14
  -8   3  -1  116.89    7.43
   8  -3  -1  132.95   11.71
   5  -8  -1  119.05   12.28
   3   5  -1  111.02    8.82
  -8   3   1  121.81   11.09
  -5   8   1  104.47   11.37
  -8   3  -1  120.87   11.00
  -5   8  -1  111.39   11.67
   3   5   1  132.75    9.48
   8  -3   1  120.52   10.82
   3   5   1  119.50   10.95
   5  -8  -1  135.48   11.00
   3   5  -1  117.50   11.76
   8  -3  -1  124.72   11.36
  -5   8  -1  125.23   10.49
   3   5   2  169.09    9.41
   5  -8   2  139.28   10.89
   3   5  -2  160.12    9.48
   3   5   2  147.54   10.57
   3   5   2  159.06   10.79
   5  -8  -2  161.80   14.72
   8  -3  -2  130.87   12.06
  -8   3  -2  163.70   12.92
  -5   8  -2  146.17   12.97
   3   5  -2  176.70   10.81
   5  -8  -2  178.39   12.80
   3   5   2  171.53   13.33
   8  -3   2  165.70   12.71
   8  -3  -2  160.09   12.83
   3   5  -2  143.71   13.18
  -5   8  -2  160.70   11.83
   5  -8   3  103.88    9.61
   3   5   3  107.96    7.80
   3   5  -3  110.68    8.14
  -5   8  -3   93.21   11.27
   5  -8  -3  107.77   12.24
   8  -3  -3  125.44   11.32
   3   5   3   96.87    9.05
  -8   3  -3  109.58   11.26
   3   5  -3  124.03    8.91
  -3  -5  -3   96.38    5.38
   3   5  -3  104.20    5.28
   5  -8  -3  106.61   10.13
   3   5   3  102.10   10.87
   8  -3   3  115.10   11.07
  -5   8  -3   93.38    9.50
   3   5  -4   54.88    6.04
   5  -8   4   45.73    7.19
   3   5   4   54.16    6.18
  -3  -5  -4   37.53    4.37
   5  -8  -4   51.70    8.70
  -5   8  -4   28.65    7.60
  -8   3  -4   52.66    8.72
   8  -3  -4   54.47    8.35
  -3  -5  -4   39.85    7.86
   3   5  -4   40.92    5.68
  -5   8  -4   48.07    3.75
  -5   8  -4   66.81    7.94
   5  -8  -4   43.83    7.20
   3   5   4   52.60    8.24
   5  -8  -4   42.24    4.15
   8  -3   4   45.90    7.67
  -8   3  -4   45.25    8.34
   3   5   5   26.29    6.60
   5  -8  -5   18.37    3.53
   8  -3   5   29.77    6.88
  -5   8  -5   22.58    3.68
   5  -8   5   26.21    6.17
   3   5   5   26.55    4.99
   5  -8  -5   25.20    6.55
   8  -3  -5   24.57    4.42
   5  -8  -5   25.10    6.96
  -5   8  -5   13.02    6.55
  -8   3  -5   29.75    7.27
   8  -3  -5   21.63    6.14
  -3  -5  -5   18.49    6.96
  -5   8  -5   26.54    5.68
   3   5   5   20.38    4.02
   3   5  -5   24.93    4.34
  -8   3  -5   25.16    7.20
   5  -8  -5   18.22    5.58
   5  -8   6  250.40   16.67
  -3  -5  -6  318.42   17.61
   5  -8  -6  288.98   18.60
   3   5   6  263.82   15.40
   8  -3  -6  282.82   14.70
   8  -3  -6  256.43   18.24
   5  -8  -6  277.97   15.96
  -8   3  -6  276.02   19.54
   3   5  -6  274.28   14.11
   5  -8  -6  302.56   20.40
  -5   8  -6  274.27   16.47
   8  -3   6  271.29   18.46
   3   5   6  282.46   13.70
  -5   8  -6  291.12   13.84
   5  -8  -6  293.22   14.20
  -3  -5  -6  272.56   18.93
   5  -8  -6  303.03   17.86
  -8   3  -6  281.87   19.04
   3   5   6  303.24   19.41
   8  -3   6  284.36   13.71
   5  -8   7  103.47   10.49
  -5   8  -7   97.61    7.97
   8  -3   7   76.06   10.51
   8  -3  -7   73.16    7.94
   5  -8  -7  114.81   11.70
  -3  -5  -7   92.94    9.70
   3   5   7   85.26    8.83
   8  -3  -7   88.85   11.14
   5  -8  -7  115.28    9.41
   3   5  -7   91.80    7.26
   5  -8  -7  102.54   12.45
   5  -8  -7   98.30    9.79
   3   5   7   98.41    6.97
   8  -3   7   97.33    6.63
  -8   3  -7  100.03   11.40
   5  -8  -7   97.20    8.25
   3   5   7  113.67   12.04
   3   5   8    1.13    5.55
   5  -8  -8   -0.63    4.02
   8  -3   8    1.08    5.75
  -5   8  -8    1.75    4.08
   5  -8  -8   -8.51    5.66
   5  -8   8    5.45    5.45
   3   5   8    6.09    5.55
  -3  -5  -8    5.58    5.17
   8  -3  -8    5.48    4.48
   8  -3  -8   -1.09    6.64
   5  -8  -8   -1.30    6.38
   3   5  -8    0.38    3.02
   5  -8  -8    2.73    3.80
   3   5   8    2.76    2.75
   5  -8  -8    1.73    4.38
   8  -3   8    3.39    2.51
   5  -8  -9   37.30    8.19
   3   5   9   54.80   10.39
   8  -3   9   49.35    9.85
  -5   8  -9   23.98    7.89
   5  -8  -9   39.37    9.72
   5  -8   9   43.02    9.74
   3   5  -9   38.57    8.52
   3   5   9   43.70    8.37
   8  -3  -9   73.28    9.02
  -3  -5  -9   62.29    9.63
  -3  -5  -9   41.62    8.97
   8  -3  -9   72.65   10.67
   5  -8  -9   65.45   12.84
   5  -8  -9   57.65    8.82
   5  -8  -9   38.30    6.89
   5  -8 -10   37.95    7.67
  -5   8 -10   26.82    6.89
   3   5  10   31.62    9.36
   8  -3  10   36.37    9.05
   8  -3 -10   30.57    6.90
   3   5 -10   35.60    8.27
  -3  -5 -10   34.62    8.34
   5  -8 -10   44.02    9.99
   5  -8 -10   43.80    7.78
   5  -8 -10   41.87    6.67
  -3  -5 -11  147.95   15.09
  -5   8 -11  149.58   13.01
   5  -8 -11  165.68   14.02
   3   5  11  175.21   16.74
   8  -3  11  136.28   14.84
   3   5 -11  167.52   14.86
   5  -8 -11  152.56   11.60
   5  -8 -11  149.02   13.10
   8  -3  12  221.54   19.07
  -3  -5 -12  231.35   19.19
  -5   8 -12  216.92   16.35
   3   5  12  209.82   19.31
   3   5 -12  234.52   18.69
   5  -8 -12  251.91   15.10
   5  -8 -12  265.69   17.74
   3   5  13    1.48    8.65
   8  -3  13   -2.87    8.41
  -3  -5 -13   15.24    8.70
  -5   8 -13    4.50    7.97
   3   5 -13   15.15    8.10
  -8   3 -13    1.43    4.67
   5  -8 -13    4.95    5.88
   5  -8 -13   11.59    5.20
   3   5  14   49.74   11.81
   8  -3  14   63.60   12.17
   3   5 -14   51.30   10.80
  -3  -5 -14   49.16   11.74
  -5   8 -14   54.38   12.67
  -8   3 -14   57.85    6.67
   5  -8 -14   47.78    9.03
   5  -8 -14   44.36    7.20
  -3  -5 -15   63.75   13.19
  -5   8 -15   78.50   14.52
   3   5 -15   94.11   14.71
   5  -8 -15   80.70   14.76
   3   5  15   89.89   14.88
   8  -3  15   77.06   13.93
   5  -8 -15   76.19   10.74
  -3  -5 -16   52.63   13.02
   3   5 -16   32.47   10.30
   5  -8 -16   15.68   10.27
  -5   8 -16   30.76   11.18
   3   5  16   39.72   11.37
   8  -3  16   38.76   11.94
   5  -8 -16   59.69   10.14
  -3  -5 -17   23.43   11.20
   3   5 -17   19.73   10.55
   5  -8 -17   12.86   10.21
  -5   8 -17   11.44   11.04
   3   5  17   10.81   11.32
   8  -3  17    8.83   10.48
   5  -8 -17    4.35    8.06
   8  -3  18  199.49   21.62
   3   5  18  173.84   21.07
  -3  -5 -18  194.25   21.44
   3   5 -18  183.25   20.11
   5  -8 -18  173.86   21.14
  -5   8 -18  196.32   22.78
  -8   3  18  171.03   20.30
   5  -8 -18  190.57   16.55
  -3  -5 -19   76.07   15.28
   3   5 -19   47.98   14.30
   5  -8 -19   52.10   14.00
  -5   8 -19   50.27   14.75
   3   5 -20    3.86   10.72
   2   6   0  873.64   34.89
   6  -8   0  857.41   40.39
  -6   8   0  793.79   37.55
  -8   2   0  853.22   35.37
   2   6   0  833.31   33.76
   8  -2   0  839.27   37.39
   2   6   0  822.87   36.06
  -6   8   1   20.13    6.26
   2   6   1   17.07    4.67
  -6   8   1   21.84    6.90
  -8   2  -1   31.91    6.15
  -6   8  -1   17.48    6.88
   6  -8  -1   24.29    7.05
   8  -2  -1   19.24    5.78
   2   6   1   24.86    6.02
   8  -2  -1   19.44    6.50
   2   6  -1   13.96    5.57
   6  -8  -1    8.91    4.84
   2   6   1   23.77    4.95
   8  -2   1   10.79    5.62
   2   6  -1   22.78    4.64
  -6   8   2   43.50    7.81
   2   6   2   39.24    6.72
  -8   2  -2   45.54    3.55
   2   6  -2   48.58    3.30
   2   6  -2   26.95    3.51
  -6   8   2   33.54    6.30
  -8   2  -2   30.29    6.95
  -6   8  -2   40.80    8.29
   6  -8  -2   41.43    8.21
   8  -2  -2   32.79    6.47
  -6   8   2   40.67    8.17
   8  -2   2   42.42    7.76
   2   6   2   40.49    6.39
   6  -8  -2   51.91    7.88
   2   6  -2   39.05    6.03
   6  -8   2   43.36    7.22
   2   6   2   35.75    7.01
   2   6  -2   38.09    7.94
   8  -2  -2   38.71    7.97
   6  -8   3  289.43   17.74
   2   6  -3  285.82   12.28
  -6   8   3  308.56   19.17
   2   6   3  293.24   16.64
  -6   8   3  280.10   16.54
  -2  -6  -3  283.00   13.07
   6  -8  -3  305.50   20.67
   8  -2  -3  297.86   17.62
   2   6  -3  271.90   12.56
   2   6  -3  296.97   15.23
  -8   2  -3  288.46   17.59
  -6   8  -3  285.97   19.60
  -6   8  -3  317.48   17.33
   6  -8  -3  316.40   18.38
   6  -8   3  298.60   17.63
   2   6   3  283.08   15.35
   8  -2   3  343.32   19.69
   2   6   3  284.87   18.15
   6  -8  -4   21.29    3.24
   6  -8   4   32.66    6.80
   2   6  -4   22.62    3.98
  -6   8   4   16.55    6.28
  -2  -6  -4   16.25    3.86
  -6   8   4   22.30    5.74
   8  -2  -4   16.12    5.47
   6  -8  -4   18.88    7.28
  -8   2  -4   28.76    7.63
   2   6  -4   16.18    3.60
  -6   8  -4   23.08    3.11
   2   6   4   33.91    7.47
   2   6   4   18.71    4.91
  -6   8  -4   36.14    6.26
   8  -2   4   24.08    6.83
   2   6  -4   21.48    4.64
   6  -8  -4   30.13    6.33
  -2  -6  -4   14.97    6.35
   6  -8  -5   21.91    3.79
   2   6   5    9.35    6.08
   8  -2  -5   13.20    3.71
   2   6  -5   18.05    4.07
  -6   8   5   19.27    6.79
   6  -8   5   15.33    6.03
  -2  -6  -5   10.21    4.03
  -6   8   5   11.63    5.67
   8  -2  -5   15.38    5.89
   6  -8  -5    4.91    6.44
  -8   2  -5   13.76    5.97
   2   6  -5   20.40    4.53
  -8   2  -5   15.19    6.65
  -2  -6  -5   13.97    6.36
  -6   8  -5   14.34    5.54
   6  -8  -5    9.34    5.30
   2   6   5   19.63    4.53
   8  -2   5   11.01    6.37
  -6   8  -5   18.73    3.51
   6  -8   6  170.07   14.05
   6  -8  -6  164.32   10.24
   8  -2  -6  170.08   10.38
   2   6  -6  179.59   11.17
   6  -8  -6  181.54   15.49
   2   6  -6  168.57   10.53
  -8   2  -6  157.90   14.39
   8  -2  -6  183.72   14.06
  -6   8   6  143.50   13.28
   6  -8  -6  152.01   15.34
   2   6   6  140.60   10.12
   6  -8  -6  168.89   13.23
  -2  -6  -6  164.84   14.65
  -6   8  -6  175.60    9.96
   2   6   6  175.40   14.87
   8  -2   6  193.52   15.97
  -6   8  -6  186.33   12.91
   2   6   7   21.79    7.29
   6  -8  -7   32.79    5.48
  -6   8  -7   26.55    4.97
   8  -2   7   26.45    8.07
   6  -8   7   38.87    8.13
   6  -8  -7   25.04    7.64
   2   6  -7   17.22    5.08
   8  -2  -7   27.59    4.88
  -2  -6  -7   11.66    6.26
  -2  -6  -7   18.89    5.23
   8  -2  -7   15.43    5.97
   6  -8  -7   21.12    7.67
  -6   8   7   26.53    6.78
   8  -2   7   24.91    3.67
   6  -8  -7   20.44    5.98
   2   6   7   20.52    4.24
  -2  -6  -7   30.19    8.26
   2   6   8   15.34    7.12
   6  -8  -8   13.48    5.16
   6  -8   8   21.35    6.09
  -6   8  -8   17.95    5.66
   8  -2   8   42.60   10.12
  -2  -6  -8   14.01    6.70
   6  -8   8   26.00    7.70
  -2  -6  -8    7.17    6.05
   6  -8  -8    9.62    7.31
   2   6  -8   11.90    5.77
   8  -2  -8   22.35    8.69
   8  -2  -8    9.78    5.05
   8  -2  -8    3.05    5.66
   6  -8  -8    4.13    7.97
  -6   8   8   -1.00    6.06
   6  -8  -8   12.54    4.62
   6  -8  -8    9.08    4.77
   8  -2   8   19.03    3.41
   2   6   8    4.66    3.76
  -2  -6  -9  187.88   14.51
   6  -8   9  202.60   14.12
   8  -2   9  191.77   17.27
   2   6   9  214.33   17.51
   6  -8  -9  187.77   13.69
   8  -2  -9  195.00   18.23
   6  -8  -9  179.12   17.19
   2   6  -9  211.45   14.62
   6  -8  -9  203.32   13.53
   6  -8  -9  223.70   19.00
  -6   8   9  223.38   16.69
  -6   8  -9  193.66   13.51
   6  -8  -9  194.43   14.85
   8  -2  10   38.29   10.98
   2   6  10   17.12    8.64
   6  -8 -10   15.64    7.01
   6  -8  10   23.51    8.36
  -6   8 -10   25.50    7.01
  -2  -6 -10    9.93    7.09
   6  -8 -10   18.38    8.96
   2   6 -10   19.74    7.32
   8  -2 -10   14.81    8.14
   6  -8 -10   11.84    8.02
   6  -8 -10   25.71    5.93
   6  -8 -10   16.01    6.55
   8  -2  11   54.96   10.75
   6  -8 -11   58.35    9.10
  -6   8 -11   56.38    8.76
   2   6  11   47.89   10.11
   6  -8  11   67.09    9.57
  -2  -6 -11   52.77    9.71
   6  -8 -11   67.35   11.66
   8  -2 -11   60.34   11.86
   2   6 -11   59.60    9.50
   6  -8 -11   68.87   12.40
   6  -8 -11   43.44    8.33
   6  -8 -11   47.34    6.89
   2   6  12  239.00   20.59
   6  -8  12  225.95   17.53
  -2  -6 -12  169.12   17.13
   8  -2 -12  198.22   20.15
   2   6 -12  228.45   17.74
   6  -8 -12  230.86   14.48
  -6   8 -12  229.11   17.34
   6  -8 -12  209.63   16.59
   8  -2  13   19.29    8.91
   2   6  13   12.98    8.13
   6  -8  13    7.78    6.83
  -2  -6 -13   13.15    8.36
   8  -2 -13    6.59    8.50
   2   6 -13   20.33    7.27
  -6   8  13    8.57    6.52
   6  -8 -13    6.94    4.02
   6  -8 -13    7.15    6.35
   8  -2  14   20.34   10.15
   2   6  14    7.60    9.13
   6  -8  14   26.35    9.02
  -2  -6 -14    2.84    8.44
   8  -2 -14   18.54    9.76
   2   6 -14   19.52    8.27
  -6   8  14    8.87    7.25
  -8   2 -14   10.23    4.94
   6  -8 -14    6.29    5.92
   6  -8 -14   14.68    4.99
   8  -2  15   85.20   15.05
   2   6  15  119.20   16.10
   8  -2 -15   73.22   14.15
  -2  -6 -15   99.25   15.29
   2   6 -15  111.92   14.77
   6  -8 -15  113.00   10.09
   6  -8 -15   95.81   12.13
  -2  -6 -16    4.90    8.55
   2   6 -16   11.96    8.98
   8  -2  16   24.22   10.98
   2   6  16    6.74    9.49
   6  -8 -16   24.30    8.06
   6  -8 -16   -4.78    5.66
  -2  -6 -17    8.68    9.78
   2   6 -17   -9.55   11.80
   6  -8 -17  -13.29   13.05
   8  -2  17  -12.67   14.13
   2   6  17   -1.77   10.77
   6  -8 -17   -4.52    8.44
  -2  -6 -18  130.49   18.58
   2   6 -18  154.96   18.88
   6  -8 -18  133.38   19.86
  -6   8 -18  125.59   20.01
   8  -2  18  188.61   20.87
   2   6  18  124.13   18.23
   6  -8 -18  160.23   15.66
  -2  -6 -19   44.57   13.62
   2   6 -19   44.53   12.31
  -6   8 -19   30.61   14.24
   6  -8 -19   50.33   10.32
  -2  -6 -20   -6.10   12.78
   2   6 -20   -1.89   11.85
   1   7   0    0.77    5.05
  -7   8   0   -0.92    5.55
  -7   8   0    5.36    4.16
   1   7   0    4.62    3.78
   7  -8   0    1.26    5.82
   1   7   0   -0.75    4.87
  -7   8   1  441.94   23.97
   1   7   1  403.94   22.03
  -8   1  -1  421.88   20.92
   7  -8  -1  438.31   26.37
   1   7  -1  420.48   20.19
  -7   8   1  427.19   21.04
  -7   8  -1  455.57   20.01
   1   7   1  432.47   21.32
   1   7   1  423.21   22.15
   8  -1  -1  417.18   24.74
   1   7  -1  415.29   22.04
   7  -8   1  458.31   23.05
   8  -1   1  422.66   24.26
   7  -8  -2  296.04   11.28
  -7   8   2  332.81   20.01
   1   7   2  358.16   19.42
   1   7  -2  345.81   16.64
   8  -1  -2  347.93   18.29
   7  -8  -2  385.04   23.42
  -1  -7  -2  339.67   15.84
  -7   8   2  292.15   17.39
  -7   8  -2  329.20   15.40
   1   7  -2  328.50   14.82
  -8   1  -2  324.33   17.48
   8  -1   2  335.19   20.66
   7  -8   2  360.59   19.29
   1   7   2  330.52   17.25
   7  -8  -2  268.84   11.18
   1   7  -2  333.86   19.02
   1   7   2  315.70   18.51
   8  -1  -2  352.33   21.70
   7  -8   3 1606.91   55.79
   7  -8  -3 1684.65   56.39
  -7   8   3 1841.23   66.65
   1   7   3 1698.35   63.79
   1   7  -3 1744.76   60.66
   7  -8  -3 1747.39   69.54
  -1  -7  -3 1693.42   59.93
   8  -1  -3 1742.46   62.88
   1   7  -3 1676.33   58.99
  -7   8   3 1700.83   63.51
  -8   1  -3 1734.65   62.52
   1   7   3 1751.25   64.24
   1   7   3 1695.55   61.16
   7  -8   3 1737.88   64.00
   8  -1   3 1781.63   66.61
   7  -8  -3 1667.61   56.11
   1   7  -3 1815.85   64.45
   7  -8  -3 1795.51   64.91
   7  -8   4  365.00   21.61
   7  -8  -4  353.98   15.29
   1   7  -4  341.94   13.53
   7  -8   4  358.87   14.99
   1   7   4  353.27   14.47
  -7   8   4  351.65   21.46
   1   7  -4  334.09   16.69
  -8   1  -4  374.74   19.94
   7  -8  -4  367.67   24.08
  -1  -7  -4  372.34   17.69
  -7   8   4  323.92   19.98
   8  -1  -4  367.40   19.43
   1   7   4  353.50   17.90
   7  -8   4  333.70   19.51
   1   7   4  355.99   20.32
   8  -1   4  349.99   21.99
   7  -8  -4  364.98   20.59
   1   7  -5  389.19   16.63
   7  -8  -5  414.58   18.09
   7  -8   5  431.93   23.39
   7  -8   5  407.51   17.61
   1   7   5  424.67   17.68
   8  -1  -5  386.36   16.13
  -7   8   5  396.20   22.42
  -8   1  -5  361.87   21.28
   1   7  -5  400.75   19.44
  -1  -7  -5  396.89   19.71
   8  -1  -5  454.82   22.00
   7  -8  -5  429.97   26.25
   1   7   5  401.16   19.23
   8  -1   5  389.95   23.71
   1   7   5  410.17   22.54
  -7   8  -5  394.60   17.07
   7  -8  -5  380.41   22.05
  -1  -7  -5  415.80   22.79
   7  -8  -6  342.13   16.91
   7  -8   6  377.40   21.97
   1   7  -6  357.92   16.28
   7  -8   6  321.52   16.39
  -1  -7  -6  317.91   16.50
   8  -1  -6  341.65   15.32
   1   7   6  344.78   16.76
   8  -1  -6  358.22   20.10
  -1  -7  -6  351.79   18.59
  -8   1  -6  344.32   20.56
   7  -8  -6  350.20   24.14
  -7   8   6  328.67   20.51
   1   7   6  366.08   17.44
  -7   8  -6  362.20   16.33
   1   7   6  354.31   21.00
   8  -1   6  380.44   22.97
  -1  -7  -6  319.74   20.76
   7  -8  -6  335.31   20.02
   7  -8  -7  459.86   20.84
  -1  -7  -7  398.38   20.18
   1   7   7  423.45   23.84
   7  -8   7  410.89   20.05
   1   7  -7  465.38   20.16
   1   7   7  400.06   19.98
   7  -8  -7  382.10   25.38
   8  -1  -7  425.76   23.02
   7  -8  -7  430.66   27.59
  -7   8   7  427.88   24.29
   8  -1   7  432.60   25.69
  -7   8  -7  399.47   19.32
   1   7   7  419.93   19.64
  -1  -7  -7  406.59   23.92
   7  -8  -7  444.50   23.58
   1   7  -8  529.76   24.39
   7  -8  -8  511.77   24.62
  -1  -7  -8  495.78   24.76
   7  -8   8  515.36   24.57
   1   7   8  462.09   27.42
   1   7   8  546.20   25.04
   7  -8  -8  575.24   31.69
   8  -1  -8  569.16   32.10
   8  -1  -8  584.66   28.23
   7  -8  -8  583.41   32.59
  -7   8   8  507.30   28.45
  -7   8  -8  550.80   24.21
   8  -1   8  516.53   29.61
   7  -8  -8  529.43   27.40
   8  -1   8  527.50   19.58
   7  -8  -9 1342.05   50.18
   1   7  -9 1386.28   49.79
  -1  -7  -9 1295.92   50.33
   7  -8   9 1301.32   49.51
   1   7   9 1320.36   53.93
   7  -8  -9 1456.76   58.11
   1   7   9 1289.26   49.65
   8  -1  -9 1324.68   57.48
   7  -8  -9 1377.85   58.73
  -7   8   9 1168.35   52.48
  -7   8  -9 1331.74   48.81
   8  -1   9 1173.69   40.75
   8  -1   9 1409.32   56.60
   7  -8 -10  447.13   23.10
   1   7 -10  401.95   21.99
  -1  -7 -10  404.89   23.21
   8  -1  10  421.49   26.29
   7  -8  10  388.19   21.94
   1   7  10  380.12   24.70
   1   7  10  383.35   22.12
   7  -8 -10  423.07   27.64
   8  -1 -10  414.76   27.61
   7  -8 -10  418.42   28.05
  -7   8  10  403.90   25.27
  -7   8 -10  412.86   21.79
   1   7  11  197.45   17.36
   7  -8 -11  183.47   15.20
   1   7 -11  174.53   14.68
  -1  -7 -11  182.16   15.42
   8  -1  11  201.08   18.53
   7  -8  11  204.39   15.62
   8  -1 -11  183.63   18.52
   7  -8 -11  187.29   18.52
   1   7  11  169.38   14.92
   7  -8 -11  213.65   13.71
   7  -8 -11  208.01   19.52
  -7   8 -11  172.91   14.29
   8  -1  12   55.61   11.60
   1   7  12   56.90   11.07
   7  -8  12   52.73    9.41
  -7   8 -12   49.36    9.01
   7  -8 -12   48.98   12.47
   7  -8 -12   43.14    6.84
   7  -8 -12   40.35   10.77
   8  -1 -12   50.29   11.28
   1   7 -12   51.86    9.29
  -1  -7  12   52.63   10.17
  -1  -7 -12   42.64    9.18
   7  -8  13  198.92   16.49
   1   7 -13  214.11   17.15
   1   7  13  183.72   18.20
  -1  -7 -13  159.54   16.25
   8  -1  13  172.76   18.07
   7  -8 -13  191.93   13.19
   7  -8 -13  225.80   20.99
  -7   8  13  190.17   17.16
   7  -8 -13  129.15   17.15
   8  -1 -13  165.07   18.02
   1   7 -14  155.48   15.62
   7  -8  14  154.12   15.88
   8  -1  14  141.38   17.22
   1   7  14  133.66   16.70
  -7   8  14  143.17   15.77
   7  -8 -14  161.99   11.84
   8  -1 -14  123.79   17.27
  -1  -7 -14  106.08   15.14
   8  -1  15  902.61   45.26
   7  -8  15  749.33   39.42
   1   7  15  823.77   42.77
  -1  -7 -15  758.65   40.87
   1   7 -15  845.80   41.12
   7  -8 -15  763.96   33.13
  -7   8  15  840.66   41.30
   8  -1 -15  762.77   43.65
   7  -8  16  181.78   17.97
  -1  -7 -16  183.50   19.07
   1   7  16  177.25   18.98
   8  -1  16  155.28   19.27
   1   7 -16  185.95   19.02
  -7   8  16  205.56   18.46
   1   7  17   85.01   15.13
   8  -1  17   94.57   16.00
   7  -8  17   87.79   13.98
  -7   8  17  103.84   14.05
  -1  -7 -17   92.04   14.66
   1   7 -17   85.63   14.12
  -1  -7 -18   21.28   10.66
   1   7 -18   20.01   10.71
   7  -8 -18    8.13   11.31
   7  -8  18   20.05   10.02
   1   7  18   19.53   11.40
  -1  -7 -19  103.25   17.08
   1   7 -19  129.60   17.56
   7  -8  19  121.35   17.22
  -1  -7 -20  148.34   20.44
   1   7 -20  173.09   20.93
  -8   8   0 1428.54   53.27
   0   8   0 1309.02   52.14
   8  -8   0 1436.04   58.29
  -8   8   0 1373.15   49.79
   8  -8   0 1327.37   51.82
   0   8   0 1257.66   49.67
   8   0   0 1344.04   54.68
   8  -8   0 1187.68   43.40
   8  -8  -1  139.83    7.72
   8  -8   1  116.60    7.62
  -8   8   1  184.90   14.46
   0   8   1  192.58   14.30
  -8   8  -1  168.82   11.65
  -8   8   1  143.25   11.75
   8  -8  -1  130.14   14.73
   8  -8   1  168.91   12.99
   8   0  -1  127.70   14.37
   8  -8  -1  147.47    7.77
   0   8   1  132.90   11.72
   0   8   1  154.97   11.89
   8  -8  -1  138.76   12.26
   0   8  -1  146.60   12.08
   8   0   1  165.33   14.37
   8  -8  -2  470.68   19.10
   8  -8   2  447.46   18.61
   0   8   2  503.48   25.96
  -8   8   2  527.02   26.70
  -8   8   2  478.32   24.53
   8  -8  -2  502.40   29.67
   0  -8  -2  483.62   22.92
   8   0  -2  498.38   22.74
  -8   0  -2  466.66   21.84
   0   8  -2  480.85   21.72
  -8   8  -2  522.61   22.24
   8  -8   2  522.53   25.25
   0   8   2  465.25   22.93
   8   0   2  552.32   28.37
   8   0  -2  479.68   28.15
   0   8  -2  498.66   23.99
   0   8   2  447.28   23.47
   8  -8  -2  477.24   18.96
   8  -8   3   99.23    7.02
   8  -8  -3  119.22    7.63
  -8   8   3  115.52   11.61
   0   8   3  107.20   11.26
   0  -8  -3  111.10    9.63
  -8   8   3  101.13   10.60
   8   0  -3  114.14    9.50
   8  -8  -3  114.85   13.56
   0   8  -3  104.09    8.85
  -8   0  -3   89.65    8.70
  -8   8  -3  113.80    8.31
   0   8   3   97.08    9.43
   8   0   3  112.28   12.19
   8  -8   3  107.58   10.43
   0   8   3   97.25   10.13
   0   8  -3  104.71   10.16
   8  -8  -3  107.49    7.28
   8   0  -3  107.02   12.82
   8  -8   4  474.93   19.81
   8  -8  -4  471.19   20.18
  -8   8   4  491.32   26.00
   0   8   4  477.63   25.16
   0  -8  -4  425.35   22.35
  -8   0  -4  451.72   22.28
   8   0  -4  449.04   22.06
   8  -8  -4  523.51   30.02
  -8   8   4  480.64   25.35
  -8   8  -4  464.81   19.54
   0   8  -4  470.31   22.00
   8  -8   4  498.61   24.25
   0   8   4  488.53   24.33
   8   0   4  459.81   26.79
   8  -8  -4  430.60   24.17
   0   8   4  462.79   22.31
   8  -8   5   63.55    6.52
   0   8   5   51.03    7.85
   8  -8  -5   64.99    6.72
   8   0  -5   53.46    4.23
  -8   0  -5   56.46    4.66
   0  -8  -5   68.42    8.21
   8   0  -5   58.88    7.32
   8  -8  -5   63.30   11.26
   0   8  -5   62.38    7.67
  -8   0  -5   51.85    7.95
  -8   8   5   39.04    8.13
   0  -8  -5   68.87    9.18
   8  -8   5   70.85    8.38
   0   8   5   55.52    7.32
   8   0   5   74.00   10.81
  -8   8  -5   68.91    6.68
   8  -8  -5   48.37    7.78
   0   8  -6  909.44   33.63
   0  -8  -6  890.06   34.12
   8  -8   6  891.15   35.41
   8  -8  -6  904.48   35.91
   0   8   6  932.25   39.77
   0  -8  -6  924.93   38.59
  -8   8   6  904.28   41.31
  -8   0  -6  857.74   38.25
   0   8  -6  925.81   37.97
   8   0  -6  968.70   38.17
   8  -8  -6 1021.44   46.72
   0  -8  -6  854.22   39.06
   8   0   6  933.79   43.08
  -8   8  -6  941.92   35.43
   0   8   6  871.95   36.36
   8  -8   7   56.92    7.16
   0   8   7   76.99    9.82
   8   0   7   79.29   11.20
   8  -8  -7   74.59    8.30
   0   8  -7   64.15    6.92
   0  -8  -7   63.07    7.07
   0  -8  -7   76.37    9.53
   8   0  -7   72.98    8.84
   8  -8  -7   77.50   12.58
  -8   8   7   76.37   10.85
   0   8  -7   49.81    8.39
   0   8   7   58.11    7.65
   0  -8  -7   71.88   10.45
  -8   8  -7   61.68    7.52
   0   8  -8  397.52   22.02
   8  -8  -8  377.24   20.88
   8  -8   8  348.15   20.10
   0   8  -8  393.88   19.46
   0  -8  -8  377.93   19.93
   0   8   8  371.17   22.71
   8  -8  -8  444.88   28.05
   8   0  -8  410.63   26.60
   0   8   8  401.78   20.56
   0  -8  -8  352.28   21.62
   8   0  -8  413.28   22.17
  -8   8   8  426.35   24.96
   8  -8  -8  414.66   27.50
  -8   8  -8  384.28   19.89
   8   0   8  427.20   26.22
   0  -8  -8  415.01   23.80
   0   8   9  170.12   15.03
   8  -8  -9  171.66   13.72
   8  -8   9  155.00   13.30
   0   8  -9  170.22   12.58
   0  -8  -9  175.05   13.07
   8  -8  -9  141.02   16.66
   0   8   9  147.38   12.67
   8   0  -9  169.86   16.64
   0  -8   9  134.15   12.25
  -8   8   9  179.93   16.06
   8  -8  -9  219.88   19.47
   8   0   9  200.70   17.60
  -8   8  -9  164.87   12.65
   0  -8 -10  395.70   22.97
   0   8  10  431.95   25.49
   8  -8 -10  435.20   23.52
   8  -8  10  434.52   23.02
   8   0  10  446.05   27.68
   0   8 -10  412.20   22.14
   8  -8 -10  486.91   30.09
   8   0 -10  424.73   27.75
   0   8  10  415.51   23.12
   0  -8  10  332.30   21.55
  -8   8  10  410.17   25.90
   8  -8 -10  446.41   29.47
  -8   8 -10  403.62   22.00
   8   0  11   16.05    8.78
   8  -8  11   22.89    6.93
   0   8  11   23.93    8.31
   8  -8 -11   30.10    7.97
   0  -8 -11   18.11    7.24
   0   8 -11   16.55    6.34
   8  -8 -11   16.07    8.57
   8   0 -11   19.44    9.10
   0   8  11   17.42    7.25
   8  -8 -11   14.78    8.63
  -8   8 -11   22.05    7.29
   0   8 -12  731.89   35.67
   0  -8 -12  725.16   36.42
   0   8  12  823.61   39.06
   8   0  12  776.08   40.61
   8  -8  12  730.15   35.74
   8  -8 -12  770.35   42.10
   8  -8 -12  790.56   32.97
   0   8  12  747.93   36.47
   8  -8 -12  716.48   41.32
   8   0 -12  741.90   40.69
   8   0  13   28.69   10.67
   8  -8  13   23.73    8.07
   0   8  13   12.18    8.53
   8  -8 -13   35.57    6.31
   8  -8 -13   25.92   11.11
   8  -8 -13   15.41    9.54
   8   0 -13   33.39   10.95
   0   8 -13   11.27    7.42
   0  -8 -13   25.65    8.65
   8   0  14  139.96   17.44
   8  -8  14  110.74   14.15
   0   8  14  141.51   16.43
   8  -8 -14  150.75   18.36
   0   8 -14  118.01   14.05
   0  -8 -14  107.45   14.36
   8   0 -14  154.76   17.90
   8  -8 -14  114.90   16.12
   8  -8 -14  136.08   11.21
  -8   8  14  124.47   15.01
   8   0  15   53.81   13.00
   8  -8  15   35.13   10.12
   0   8  15   85.14   13.12
   0   8 -15   63.90   11.92
   0  -8 -15   74.47   12.59
   8  -8 -15   52.34   13.51
  -8   8  15   64.05   12.14
   8  -8 -15   67.49    8.23
   0   8 -16  382.27   26.28
   8   0  16  390.21   29.23
   0  -8 -16  385.05   27.47
   0   8  16  347.48   26.97
   8  -8  16  366.62   26.21
  -8   8  16  378.69   27.10
   0   8 -17   45.93   11.34
   0  -8 -17   37.56   11.70
   0   8  17   52.27   12.55
   8  -8  17   41.49   10.89
   0  -8 -18  250.91   24.22
   8  -8  18  233.19   22.15
   0   8  18  261.53   24.37
   0   8 -19   24.03   11.94
   8  -8  19   42.83   12.25
   0   8 -20  101.44   16.99
  -1   9   0  718.68   34.28
  -9   8   0  773.52   34.37
  -9   8   0  673.93   31.72
   1  -9   0  750.69   32.38
   9  -8   0  682.32   27.45
  -1   9   0  694.38   30.22
   8   1   0  763.45   36.79
   9  -8   0  687.67   32.64
  -1   9   1  119.37   12.30
  -9   8   1  138.04   12.24
  -9   8  -1   96.50    9.86
   1  -9   1  111.92   10.40
  -9   8   1  102.44   11.03
  -1   9  -1   99.46    9.58
   1  -9  -1  110.08   10.66
  -1   9   1   82.82    9.00
   8   1   1  120.00   13.22
   9  -8   1  105.37    7.71
   9  -8  -1  108.73    7.85
   8   1  -1  108.57   12.93
   9  -8  -1  114.06   11.31
  -1   9  -1   91.24    9.07
   9  -8   1   87.92    9.98
   9  -8   2   50.04    6.04
  -1   9   2   57.58    7.46
  -9   8   2   59.48    8.95
  -1   9   2   59.82    9.70
  -9   8   2   54.02    8.90
  -1   9  -2   54.92    7.65
   1  -9  -2   61.11    8.76
  -9   8  -2   71.35    8.16
   8   1  -2   60.70   11.38
   8   1   2   60.67   10.61
   9  -8  -2   54.80    6.07
   9  -8  -2   67.80    9.01
   9  -8   2   61.25    8.20
  -1   9  -2   61.58    7.75
   1  -9   2   62.71    8.07
   9  -8   3    5.65    4.12
   9  -8  -3   -1.41    3.56
  -1   9   3   13.78    5.88
  -9   8   3    0.97    5.98
   8   1   3    3.95    6.28
  -1   9   3   12.69    7.13
  -8  -1  -3    2.86    3.50
  -1   9  -3    1.40    5.30
   1  -9  -3    2.54    5.15
   8   1  -3   -0.51    3.74
  -9   8  -3    1.76    4.28
  -9   8   3    0.99    6.18
   9  -8  -3   -0.96    3.78
  -1   9  -3    8.73    5.20
   9  -8   3    8.46    5.43
   8   1   3   -9.48    7.36
   8   1  -3   -6.40    7.40
   1  -9   3   12.84    5.51
  -1   9   4    1.45    4.54
   9  -8   4    1.55    3.77
   9  -8  -4    0.53    3.58
  -1   9   4   -2.13    6.82
  -8  -1  -4    1.06    4.29
  -1   9  -4    1.45    4.83
   1  -9  -4    0.87    5.59
   8   1  -4   -0.53    3.77
  -9   8  -4    0.51    3.33
  -9   8   4   -3.15    7.01
  -1   9  -4    1.41    4.66
   8   1   4    7.30    6.95
   9  -8   4    0.82    5.10
   1  -9   4    9.61    4.74
   9  -8   5  260.13   14.63
   1  -9  -5  248.22   11.32
  -1   9   5  266.66   16.40
   9  -8  -5  240.37   14.34
  -1   9  -5  280.65   17.06
  -9   8  -5  270.44   13.30
  -8  -1  -5  236.76   14.56
  -9   8   5  227.71   17.88
   1  -9   5  266.89   15.91
   1  -9  -5  274.60   17.95
   8   1  -5  252.48   14.36
   9  -8   5  282.54   16.95
   8   1   5  293.47   20.79
   9  -8   6  211.22   13.74
   1  -9  -6  212.84   11.87
   9  -8  -6  223.08   14.21
  -1   9   6  233.49   15.52
  -8  -1  -6  228.74   11.08
  -1   9  -6  243.01   16.11
  -8  -1  -6  208.67   14.33
   1  -9  -6  252.28   16.89
  -9   8   6  183.51   17.01
  -9   8  -6  231.83   11.09
   1  -9   6  236.46   14.77
   8   1  -6  231.03   13.94
   8   1   6  189.37   17.79
   9  -8   6  250.18   15.73
  -9   8  -6  234.67   14.25
   1  -9  -6  238.46   16.25
  -1   9  -7  255.79   16.09
   9  -8   7  241.64   15.25
   9  -8  -7  241.07   15.31
  -1   9   7  209.42   15.75
   1  -9  -7  227.95   13.28
  -8  -1  -7  232.02   12.61
   8   1  -7  228.40   18.97
   1  -9   7  210.11   12.88
  -1   9  -7  259.91   17.49
  -9   8   7  217.18   18.62
  -8  -1  -7  205.83   15.25
   8   1  -7  216.87   14.22
   1  -9   7  266.63   15.32
   1  -9  -7  246.08   17.31
  -9   8  -7  242.16   14.98
   1  -9  -7  231.49   16.45
   8   1   7  229.30   19.27
   9  -8  -8    1.56    6.67
  -1   9   8   -0.93    5.85
  -1   9  -8    8.16    5.95
   9  -8   8   -4.69    7.06
   8   1   8   11.00    7.96
   1  -9  -8    9.07    4.88
   8   1  -8   10.77    7.38
   9  -8  -8   15.88    8.83
  -8  -1  -8   17.54    4.54
   8   1  -8    2.31    5.38
   1  -9  -8   11.71    6.54
  -1   9  -8   -6.03    9.08
  -9   8   8   13.88    7.58
   1  -9  -8    3.66    6.00
  -9   8  -8   12.17    5.59
   9  -8  -9   11.81    6.64
  -1   9   9   18.92    7.15
  -1   9  -9   10.34    6.03
   9  -8   9   28.07    7.68
   8   1   9   18.43    8.72
   1  -9  -9    3.05    6.28
   8   1  -9    2.77    7.14
   9  -8  -9   -1.64    8.46
  -1   9  -9   17.76    4.89
   8   1  -9    3.35    5.16
   1  -9  -9    9.02    6.78
  -9   8   9    5.27    7.02
  -9   8  -9    9.48    6.71
   9  -8 -10   14.68    6.97
   8   1  10    7.36    7.72
  -1   9  10    9.64    6.59
   9  -8  10   15.71    7.02
  -1   9 -10   16.19    5.92
   1  -9 -10    5.25    6.34
   8   1 -10    7.16    7.51
   9  -8 -10   18.42    9.44
   1  -9 -10    7.23    6.42
  -9   8  10   24.71    8.91
  -9   8 -10   16.17    7.01
   9  -8  11  100.71   12.77
   8   1  11  129.88   16.18
  -1   9  11  136.33   14.37
  -1   9 -11  134.32   12.62
   1  -9 -11  131.90   13.15
  -9   8  11  151.77   16.41
   1  -9 -11  166.52   15.48
   8   1 -11  114.14   15.11
   9  -8 -11  163.92   18.81
  -1   9  12  388.53   24.37
  -1   9 -12  341.09   21.36
   9  -8  12  306.36   21.24
   1  -9 -12  318.35   21.53
   8   1  12  372.52   26.70
   8   1 -12  345.09   25.34
   9  -8 -12  399.76   29.16
   8   1  13   34.70   11.50
   9  -8  13   26.67    8.98
  -1   9  13   45.10   10.79
  -1   9 -13   28.84    9.02
   8   1 -13   39.37   11.53
   9  -8 -13   36.88   12.59
   1  -9 -13   29.68    9.26
   8   1  14   -6.91    9.99
   9  -8  14    6.20    7.95
  -1   9  14   -1.35    7.93
   9  -8 -14    1.39    4.68
  -1   9 -14    1.21    7.19
   9  -8 -14   11.22   10.67
   1  -9 -14    1.30    7.61
  -1   9  15   18.53    9.25
   8   1  15   17.93   10.77
   9  -8  15   26.51   10.71
  -9   8  15   -4.66   10.28
  -1   9 -15   13.14    8.61
   9  -8 -15   23.10   12.36
   1  -9 -15    9.80    8.99
  -1   9 -16   22.62   10.17
  -1   9  16   28.55   10.07
   9  -8  16   28.20   10.56
  -1   9 -17   89.24   14.47
  -1   9  17  102.92   15.54
   9  -8  17   99.98   14.94
  -1   9 -18  125.64   17.59
  -1   9  18  152.23   18.43
   9  -8  18  131.87   17.17
  -1   9 -19   59.69   13.98
  -2   9   0  447.72   25.04
  -9   7   0  420.93   22.82
   9  -7   0  471.87   28.18
   2  -9   0  424.94   22.22
   9  -7   0  397.72   19.95
   7   2   0  447.99   26.29
   9  -7   0  433.20   22.83
  -2   9   0  448.78   19.75
  -9   7   1  329.57   19.87
  -9   7  -1  378.44   20.74
  -2   9   1  348.66   21.79
   9  -7  -1  378.69   24.77
   2  -9   1  372.40   19.55
  -2   9  -1  335.40   19.42
   9  -7  -1  328.59   17.51
   7   2  -1  374.51   23.69
  -2   9  -1  360.48   16.94
  -2   9   1  366.70   17.05
   7   2   1  329.19   22.37
   9  -7   1  366.54   20.15
   9  -7   1  328.48   17.66
   9  -7   2   35.74    6.03
  -2   9   2   41.26    5.93
  -9   7   2   33.50    6.90
  -2   9   2   50.95    8.62
  -2   9  -2   42.66    7.82
   9  -7  -2   49.79    9.88
   2  -9  -2   44.57    8.05
   7   2   2   49.07    9.01
   9  -7   2   47.22    7.05
   9  -7  -2   38.97    6.01
  -2   9  -2   48.97    6.31
   7   2  -2   52.37    9.87
   2  -9   2   60.29    7.47
  -2   9   3   21.34    4.72
   9  -7   3   22.48    5.27
  -2   9   3   27.73    7.56
   2  -9  -3   20.93    2.41
  -9   7   3   31.96    7.19
   7   2   3   17.62    6.47
  -7  -2  -3   25.32    3.89
  -2   9  -3   31.28    6.83
   9  -7  -3   29.06    8.24
   2  -9  -3   29.97    6.93
   9  -7  -3   14.45    4.82
  -2   9  -3   23.58    4.91
   9  -7   3   30.71    6.04
   7   2   3   34.13    8.46
   2  -9   3   26.39    5.62
   2  -9  -3   26.70    5.75
   7   2  -3   32.01    7.85
   9  -7   4    7.73    4.47
  -2   9   4    6.35    3.60
   7   2   4    7.18    5.82
   2  -9   4    8.89    3.01
   2  -9  -4    6.11    2.72
  -2   9   4   10.65    5.76
  -7  -2  -4    9.55    3.39
  -2   9  -4    7.38    4.69
   2  -9  -4   10.65    5.39
   9  -7  -4    1.35    6.73
   7   2  -4    9.08    3.18
   7   2   4   10.54    7.03
   9  -7   4    2.25    4.18
   2  -9   4    9.06    4.43
   2  -9  -4   11.45    4.92
  -2   9  -5  317.54   15.85
   7   2   5  291.06   18.61
   9  -7   5  305.17   16.88
  -2   9   5  303.33   16.19
   2  -9  -5  258.93   13.37
   2  -9   5  247.68   12.95
  -2   9   5  251.34   18.81
  -2   9  -5  291.39   18.07
   2  -9   5  286.70   16.38
  -7  -2  -5  255.96   14.25
   2  -9  -5  283.81   17.43
   7   2  -5  283.51   14.02
   2  -9  -5  310.16   19.31
   9  -7  -5  262.11   21.29
   9  -7   5  311.29   17.04
   2  -9  -5  275.42   15.92
   7   2   5  327.20   21.37
  -2   9  -6  569.98   25.46
  -2   9   6  583.84   26.53
   2  -9  -6  534.04   23.91
   9  -7  -6  586.27   26.79
   7   2   6  623.90   29.85
   9  -7   6  559.32   26.73
   7   2  -6  567.23   30.51
  -7  -2  -6  592.78   23.36
   2  -9   6  525.99   23.44
  -2   9  -6  551.47   28.44
   2  -9   6  584.48   26.23
   2  -9  -6  583.04   27.84
   7   2  -6  573.97   24.40
   2  -9  -6  636.68   30.48
   9  -7  -6  627.36   34.08
   9  -7   6  558.36   26.04
   7   2   6  516.84   30.64
  -9   7  -6  585.08   26.88
   2  -9  -6  568.60   26.35
   2  -9  -7  257.12   15.52
   9  -7   7  275.11   17.51
   9  -7  -7  285.57   17.53
  -2   9   7  285.78   17.60
  -2   9  -7  302.30   17.04
  -7  -2  -7  309.62   15.41
   2  -9   7  255.20   15.04
   7   2  -7  283.94   20.33
   2  -9   7  310.78   16.72
  -2   9  -7  290.83   19.51
   7   2  -7  284.51   15.68
   2  -9  -7  293.54   20.02
   9  -7  -7  320.08   23.19
   9  -7   7  305.09   16.87
  -9   7  -7  310.03   17.76
   2  -9  -7  272.88   17.15
   7   2   7  307.19   22.06
  -2   9  -8   30.31    6.76
   9  -7   8   27.23    7.17
   9  -7  -8   11.67    7.11
  -2   9   8   28.50    7.32
   7   2   8   36.09    9.96
   2  -9   8   28.51    6.08
   2  -9  -8   35.28    6.65
   7   2  -8   27.70    8.63
  -7  -2  -8   40.78    6.22
  -9   7  -8   43.47    3.93
   2  -9  -8   39.14    9.04
   9  -7  -8   26.82    8.90
  -9   7  -8   23.36    7.15
   2  -9   8   45.77    6.40
   2  -9  -8   27.91    7.86
  -2   9  -9   16.29    6.15
   9  -7  -9    8.07    6.28
   9  -7   9    5.71    5.93
  -2   9   9   10.90    6.36
   7   2   9    4.16    7.49
   2  -9   9   19.65    6.11
   7   2  -9   10.02    7.53
   2  -9  -9   10.71    5.19
   9  -7  -9   21.24   10.27
  -7  -2  -9   20.58    5.73
   2  -9  -9   17.02    6.95
   9  -7  -9   23.01    7.79
  -9   7   9    9.47    8.13
   2  -9  -9   12.30    6.21
   2  -9   9   15.56    5.04
   7   2   9   11.70    1.57
  -9   7  -9    9.62    6.18
   7   2  10   10.07    8.39
  -2   9 -10   37.90    8.14
   9  -7  10   45.29    8.75
  -2   9  10   41.56    8.76
   2  -9  10   37.27    7.44
   7   2 -10   30.18    9.32
   2  -9 -10   30.50    7.69
   9  -7 -10   46.72   11.72
  -2   9 -10   45.74    8.62
  -9   7  10   26.96    9.45
   2  -9 -10   36.13    9.40
   9  -7 -10   42.57    9.53
   2  -9  10   37.47    6.16
  -2   9 -11  186.71   15.35
   2  -9 -11  172.98   15.25
   9  -7  11  192.25   16.41
  -2   9  11  213.55   16.49
   7   2  11  188.57   18.52
   9  -7 -11  180.50   19.00
   2  -9  11  207.02   12.66
   2  -9 -11  212.87   18.50
   7   2 -11  171.73   17.25
   9  -7 -11  167.03   19.14
  -2   9 -12  225.94   18.02
   9  -7  12  232.31   19.05
  -2   9  12  237.91   18.57
   7   2  12  232.50   21.70
   2  -9 -12  238.65   18.51
   9  -7 -12  260.85   22.30
   2  -9  12  280.57   14.49
   7   2 -12  262.87   21.29
   9  -7 -12  307.74   25.23
  -2   9 -13  162.13   15.65
   9  -7  13  194.87   17.45
   2  -9 -13  152.36   15.46
  -2   9  13  155.00   15.47
   7   2  13  188.63   19.47
   2  -9  13  160.62   10.62
   9  -7 -13  199.58   19.52
   9  -7 -13  171.96   20.30
   9  -7  14   -7.92    8.20
  -2   9  14   -2.58    8.11
   7   2  14    8.52    9.47
   9  -7 -14   10.41    6.62
  -9   7  14   -1.58    8.75
  -2   9 -14   -2.55    7.29
   9  -7 -14    3.73    9.62
   2  -9 -14   -1.32    7.21
   9  -7  15   14.05    8.43
  -2   9  15   -2.72    8.07
   7   2  15   -1.77    8.80
   9  -7 -15   -3.56    9.60
  -9   7  15   -4.82    8.80
  -2   9 -15   -5.50    7.95
   9  -7 -15    1.92   10.53
   2  -9 -15   -1.41    8.65
   9  -7  16    8.93    8.95
  -2   9  16   11.57    8.38
   7   2  16   16.63   10.42
   9  -7 -16   18.21   10.68
  -9   7  16   18.05    9.62
  -2   9 -16   14.73    9.94
   9  -7 -16   21.81   11.77
   2  -9 -16   10.53    9.46
  -2   9 -17  105.24   15.24
   2  -9 -17   52.86   12.47
   9  -7  17   75.14   13.81
  -2   9  17   88.75   14.38
  -2   9 -18  128.48   18.26
   2  -9 -18  129.59   18.83
   7   2 -18  171.84   20.67
   9  -7  18  143.59   18.01
  -2   9  18  158.22   18.75
  -2   9 -19   82.97   15.23
   9  -7  19   83.19   14.61
  -2   9  19   94.32   15.83
  -2   9 -20   -5.58   11.43
   3  -9   0  255.85   11.59
   3  -9   0  252.05   11.87
  -9   6   0  291.70   16.69
   9  -6   0  288.57   20.76
   3  -9   0  282.71   16.73
  -3   9   0  283.47   17.61
   3  -9   0  283.29   16.23
   9  -6   0  293.99   16.30
  -3   9   0  272.86   12.30
  -3   9   1   14.76    3.51
  -9   6   1   12.75    5.04
  -3   9   1   21.47    6.59
   3  -9  -1   16.51    3.80
   3  -9   1   21.38    3.30
  -9   6  -1   22.08    5.85
   3  -9  -1   16.59    3.37
  -3   9  -1   23.17    6.16
   3  -9   1   26.35    5.45
   3  -9  -1   19.61    6.12
   9  -6  -1   31.86    8.05
   3  -9  -1   22.54    7.19
   9  -6   1   25.94    5.71
  -3   9  -1   21.19    3.77
   9  -6  -1   29.26    5.93
   3  -9   1   19.33    5.30
   3  -9   2   81.43    6.41
  -3   9   2   73.81    6.83
   6   3   2   91.86    9.72
  -9   6   2   98.03    9.49
   6   3  -2   95.04    5.78
  -3   9   2  100.08   11.39
   3  -9  -2   84.08    9.69
   3  -9   2  120.84   10.08
   9  -6  -2   98.18   12.23
   3  -9  -2   92.71   11.65
  -3   9  -2   93.77   10.57
  -3   9  -2  104.31    6.86
   9  -6  -2   88.80    9.17
   9  -6   2   92.66    9.38
   9  -6   2  102.98    9.40
  -3   9   3   12.98    4.11
  -3   9  -3    5.90    3.77
   9  -6   3   12.93    5.61
   6   3   3   -0.76    5.36
   3  -9   3    5.52    3.58
  -3   9   3    4.27    6.34
  -3   9  -3   10.27    6.14
   3  -9  -3   18.94    7.67
   9  -6  -3   17.17    7.10
   3  -9  -3   10.28    6.32
  -3   9  -3    3.32    3.34
   3  -9  -3   19.71    5.84
   9  -6   3   17.02    5.46
   3  -9   3   12.42    5.43
   9  -6  -3   19.16    6.21
  -3   9   4  184.47   10.97
   6   3   4  192.31   14.03
  -3   9  -4  181.39   10.35
  -3   9   4  205.67   16.12
   3  -9   4  173.57   10.43
  -6  -3  -4  173.03    8.94
   3  -9  -4  220.32   16.28
  -3   9  -4  179.78   14.25
   9  -6  -4  182.74   16.76
   3  -9  -4  201.13   13.61
   3  -9   4  204.43   13.14
   6   3  -4  184.65    8.74
   9  -6   4  193.69   12.84
   9  -6   4  181.75   13.24
   9  -6   5   -0.80    5.05
  -3   9  -5    5.85    3.33
  -3   9   5    4.76    3.98
   6   3   5   -0.83    5.49
  -3   9   5   -1.10    5.48
   3  -9   5    0.99    3.53
   6   3  -5    1.87    5.68
   6   3  -5    2.66    2.58
   3  -9  -5    1.07    5.33
   9  -6  -5    1.27    5.76
  -3   9  -5   -2.86    5.38
   3  -9  -5   -2.61    5.12
   9  -6   5    1.96    3.82
   3  -9   5    1.32    3.51
   3  -9  -5    2.36    3.99
  -9   6  -5   -0.77    5.73
   6   3   6  100.41   10.96
  -3   9  -6   94.32    8.53
   9  -6   6   96.32   10.37
  -3   9   6   71.68    7.98
   6   3  -6   88.79   10.70
  -6  -3  -6  111.37    8.69
   3  -9   6   97.77    8.93
   3  -9  -6   84.25    8.73
   3  -9  -6   97.69   10.27
   3  -9  -6   93.46   11.92
   3  -9   6   88.83    9.19
   9  -6  -6  106.97   13.49
  -3   9  -6   74.28   10.76
   9  -6   6   97.51    8.88
  -9   6  -6   86.84   10.63
   3  -9  -6   97.05    8.95
  -3   9  -7    3.42    4.13
   9  -6   7   -2.72    6.65
   9  -6  -7    2.48  260.99
  -3   9   7    3.35    4.60
   6   3   7    2.79    5.84
   6   3  -7    7.26    6.08
  -6  -3  -7    0.57    4.05
   3  -9  -7   -0.72    4.16
   3  -9  -7    4.68    5.83
   9  -6  -7    1.36    6.78
   3  -9  -7    1.31    4.65
  -9   6  -7    0.85    5.52
   9  -6   7    2.37    3.79
   3  -9  -7   -6.61    5.57
   3  -9  -7   -0.87    5.28
   3  -9   7    0.64    4.73
   9  -6  -8  111.91   12.11
  -3   9   8   94.49    9.89
  -3   9  -8  112.09   10.22
   6   3   8  136.20   13.33
   9  -6   8  105.77   12.02
  -6  -3  -8  114.96   10.14
   9  -6  -8  112.25   11.48
   6   3  -8  125.73   13.01
   3  -9  -8  109.43   10.91
   3  -9   8  121.63   10.17
   3  -9  -8  116.01   13.29
   3  -9  -8  127.16   11.23
   9  -6  -8  140.42   15.23
   6   3   8  100.74    6.42
   9  -6   8  107.16    8.95
   3  -9  -8  108.53   10.67
  -9   6  -8  108.28   11.96
   3  -9  -8  101.82   10.92
  -3   9   9    9.03    6.90
   9  -6   9   14.45    7.41
  -3   9  -9    4.25    6.23
   6   3  -9    3.42    7.48
   3  -9  -9    7.17    6.75
  -6  -3  -9   -1.41    6.32
   9  -6  -9   32.46   11.65
   3  -9  -9   35.02   10.05
   9  -6  -9   31.89    9.68
   3  -9   9   41.67    7.14
   6   3   9    5.44    2.18
   3  -9  -9   13.96    7.14
  -9   6  -9    7.64    6.91
   3  -9  -9   22.82    7.80
   3  -9  -9   15.93    7.35
  -3   9  10   61.82    9.63
   9  -6  10   66.49   11.11
  -3   9 -10   63.00    9.57
   6   3 -10   58.72    9.91
  -6  -3 -10   52.31    8.79
   3  -9 -10   57.30    9.81
   9  -6 -10   76.51   12.74
   3  -9 -10   56.17   10.99
   9  -6 -10   60.94   11.25
   3  -9  10   62.71    7.62
   3  -9 -10   48.23    8.86
   3  -9 -10   52.98    8.48
   3  -9 -10   71.71    9.20
   6   3 -10   52.53    6.17
  -3   9  11   24.85    7.72
   9  -6  11    4.72    7.11
  -3   9 -11   20.48    6.45
  -6  -3 -11    4.12    8.31
   9  -6 -11   30.74   10.15
   3  -9 -11   23.83    7.66
  -3   9 -11   26.92    8.00
   3  -9 -11   28.84    9.46
   9  -6 -11   27.49    8.97
  -9   6 -11   19.53    2.28
   3  -9  11   15.64    4.71
   3  -9 -11   21.88    6.61
  -3   9  12  105.31   13.08
   9  -6  12   91.23   13.12
   9  -6 -12  104.19   15.83
   3  -9 -12  110.24   13.48
  -3   9 -12   90.93   12.76
   3  -9  12   93.52    8.65
   9  -6 -12  117.38   14.97
   3  -9 -12  101.88   10.75
  -3   9  13   -5.80    6.71
   9  -6  13   -4.02    7.76
   9  -6 -13    3.63    8.56
   3  -9 -13   -1.27    7.05
  -3   9 -13    3.82    7.46
   9  -6 -13    1.61    7.88
  -9   6  13   -6.30    9.68
   3  -9 -13    0.88    5.04
   3  -9  13    0.52    3.52
  -3   9  14  114.65   13.99
   9  -6  14   99.61   14.15
   9  -6 -14   84.01   15.08
   3  -9 -14   79.14   13.00
  -3   9 -14  103.89   14.14
   3  -9  14  101.84    8.63
   9  -6 -14   93.98   14.65
  -9   6  14   84.54   14.13
   3  -9 -14  104.50   11.18
  -3   9  15   10.68    9.34
   9  -6  15    5.94    9.34
   9  -6 -15   17.19   12.51
   3  -9 -15    5.85    9.48
  -3   9 -15    1.46    8.80
  -9   6  15   44.49   11.92
   3  -9 -15   15.09    7.08
   3  -9  15    5.99    4.74
   9  -6  16   14.07   10.19
  -3   9  16   31.11   10.37
  -9   6  16   69.05   13.99
   9  -6 -16   43.15   13.14
   3  -9 -16   15.65   10.20
   6   3 -16   47.12   11.92
  -3   9 -16   46.91   12.25
   3  -9 -17   -8.33   11.01
   6   3 -17    7.07    9.54
  -3   9 -17    9.95   10.31
   9  -6  17    4.92    9.36
  -3   9  17    1.50    8.13
   3  -9 -18   59.68   14.04
   6   3 -18   38.84   12.99
  -3   9 -18   43.89   13.56
   9  -6  18   27.64   11.49
  -3   9  18   35.04   12.32
   3  -9 -19   -5.54   11.21
  -3   9 -19   11.11   10.71
  -3   9  19    1.68    9.57
  -9   5   0 1202.97   44.68
   5   4   0 1075.43   41.24
   4  -9   0 1271.59   45.91
  -4   9   0 1178.34   48.32
  -9   5   0 1157.77   49.32
   5   4   0 1191.29   50.11
   9  -5   0 1193.70   46.79
   4  -9   1   93.54    7.93
   5   4   1   92.77    8.92
   5   4  -1   88.57    7.28
  -9   5   1   89.28    8.88
  -9   5  -1   96.96    9.04
  -4   9   1  132.14   12.53
   4  -9  -1   97.81   10.13
   4  -9   1   81.61    9.34
   9  -5  -1  106.77   11.97
   4  -9  -1  109.57   12.21
  -4   9   1   88.41   10.64
  -9   5   1   86.38   10.69
  -4   9  -1   97.59   11.02
  -9   5  -1  114.20   12.33
   4  -9   1  109.46    9.31
   5   4   1   95.63   11.26
   5   4  -1  103.74   12.35
   9  -5   1  103.29   10.40
   9  -5  -1  108.29   10.49
  -4   9   2   29.98    2.82
   5   4   2   33.58    6.75
   4  -9   2   29.92    5.92
  -4   9   2   42.28    8.82
   4  -9  -2   15.75    5.76
   5   4  -2   35.46    5.01
   4  -9   2   31.09    6.49
   4  -9  -2   64.50    8.59
  -4   9  -2   29.87    7.94
  -9   5  -2   42.34    9.72
   4  -9   2   40.06    6.86
   9  -5  -2   57.20   10.07
   4  -9  -2   47.14    9.69
   4  -9  -2   45.97    8.81
   5   4  -2   41.31    8.84
   9  -5   2   29.66    7.66
   9  -5  -2   43.35    8.52
   5   4   2   47.97    8.76
  -4   9  -3 1919.92   63.83
   4  -9   3 1911.21   68.05
   5   4   3 1981.01   70.12
  -4   9   3 1940.07   64.34
  -4   9   3 2010.58   75.52
   4  -9  -3 1898.72   69.10
   4  -9   3 2006.06   70.71
   4  -9  -3 2048.82   76.07
   9  -5  -3 1993.09   76.10
   4  -9  -3 2076.51   72.47
   4  -9  -3 1957.71   71.03
   4  -9   3 2008.73   68.36
  -4   9  -3 1934.69   73.42
  -9   5  -3 1815.47   74.44
   9  -5   3 1976.94   72.09
  -4   9  -3 1940.81   63.86
   4  -9  -3 2082.25   73.83
   5   4   3 2013.99   75.26
  -4   9   4   21.13    4.05
  -4   9  -4   14.06    3.78
   9  -5   4   15.26    6.45
   5   4   4   18.47    6.26
   4  -9  -4   26.86    6.18
   4  -9   4   19.74    5.31
   5   4  -4   18.79    6.40
  -4   9   4   20.40    7.72
   4  -9   4   25.08    5.05
   4  -9  -4    9.04    6.56
   9  -5  -4   16.19    7.59
  -4   9  -4   21.69    7.98
  -5  -4  -4   10.82    2.39
   4  -9   4   21.77    5.77
   4  -9  -4   17.15    3.90
   9  -5   4   21.91    5.88
   5   4   4   26.18    8.04
   4  -9  -4   38.24    7.21
   4  -9  -4   27.48    7.18
  -4   9   5    4.92    3.49
  -4   9  -5   10.19    3.51
   9  -5   5   16.97    6.08
  -4   9   5    8.81    6.54
   4  -9  -5    7.55    4.63
   5   4   5    8.08    5.10
   4  -9   5    8.51    4.48
   5   4  -5   10.36    5.63
   4  -9  -5   17.22    7.06
   9  -5  -5    7.06    6.45
   4  -9   5    6.30    3.51
  -4   9  -5    9.38    6.69
   4  -9   5    7.43    4.11
  -9   5  -5    1.74    5.40
   5   4   5   12.33    6.15
   9  -5   5   10.60    3.50
   4  -9  -5   11.74    3.72
   4  -9  -5   10.60    4.56
   4  -9  -5    2.29    3.95
  -4   9  -6  392.32   18.61
   5   4   6  424.88   22.03
  -4   9   6  395.01   19.28
   5   4  -6  434.32   23.09
   4  -9   6  384.81   20.39
   5   4  -6  402.04   19.03
   4  -9   6  429.06   17.80
   4  -9   6  438.91   21.27
   4  -9  -6  481.26   23.28
   4  -9  -6  426.96   25.81
   9  -5  -6  441.78   26.44
   9  -5   6  387.87   19.38
   4  -9  -6  376.76   18.94
   4  -9  -6  423.47   23.30
   5   4   6  448.06   26.08
   9  -5   6  385.89   22.61
  -9   5  -6  370.21   22.67
   9  -5   7   83.88   10.87
  -4   9  -7  109.51    8.66
  -4   9   7  100.75    8.98
   5   4   7  104.73   12.96
   5   4   7  101.93   10.79
   9  -5  -7   95.11    9.65
   5   4  -7  119.49   11.78
  -5  -4  -7  109.80    9.87
   4  -9   7   94.62   10.15
   5   4  -7  111.48    8.07
   4  -9  -7  131.16   13.77
   4  -9  -7   88.41    9.55
   9  -5  -7  124.71   13.82
   4  -9   7   95.74    6.84
   4  -9   7  101.00    9.29
   9  -5   7  105.16    8.32
   4  -9  -7  109.51   10.79
   5   4   7  101.67    7.11
  -9   5  -7   84.68   11.65
   4  -9  -7  110.84    9.14
   9  -5   8    1.05    6.69
  -4   9   8   23.10    7.07
  -4   9  -8    2.37    5.24
   5   4   8   11.38    7.60
   5   4  -8    9.68    7.24
   9  -5  -8    8.10    6.03
   5   4   8    0.89    5.90
   4  -9   8   12.95    6.33
  -5  -4  -8   15.05    6.58
   4  -9  -8   30.19    8.77
   9  -5  -8   21.14    8.75
   4  -9   8   13.96    3.56
   4  -9   8   33.50    6.68
   4  -9  -8   34.91    7.96
   5   4   8    4.33    3.26
   4  -9  -8   24.29    7.51
   9  -5   8    1.94    3.91
   4  -9  -8   13.72    6.35
   5   4  -8   12.43    4.88
  -4   9  -9 2123.34   77.07
  -4   9   9 2225.34   78.83
   9  -5   9 2188.58   82.96
  -5  -4  -9 2269.50   79.15
   5   4   9 2283.07   81.40
   4  -9   9 2147.91   79.95
   9  -5  -9 2177.72   78.86
   9  -5  -9 2262.11   89.42
   5   4  -9 2185.34   74.04
   4  -9  -9 2353.31   80.13
   4  -9   9 2325.75   77.42
   4  -9  -9 2220.03   86.35
   9  -5  -9 2241.14   86.23
   4  -9   9 2071.27   71.20
   4  -9  -9 2068.00   77.85
   4  -9  -9 2348.82   81.24
   5   4   9 2235.91   85.70
   5   4   9 2159.24   71.47
   5   4  10    2.76    7.25
   9  -5  10   15.34    8.12
  -4   9 -10    7.38    6.82
  -4   9  10   33.53    8.95
   4  -9 -10   11.42    7.57
  -5  -4 -10    9.12    7.13
   9  -5 -10   28.20   10.76
   4  -9  10   23.11    7.74
   4  -9  10   21.94    6.43
   4  -9 -10   31.79   10.38
   9  -5 -10    7.02    8.73
   4  -9 -10   26.63    7.64
   4  -9 -10   18.49    6.97
   5   4 -10    7.88    4.42
   9  -5  11  143.89   15.29
  -4   9 -11  151.64   13.13
   5   4  11  157.31   17.42
  -4   9  11  157.11   14.05
   9  -5 -11  177.81   19.33
   4  -9 -11  163.73   15.88
   4  -9  11  184.43   11.71
   4  -9 -11  185.85   17.63
   9  -5 -11  181.74   17.67
   4  -9 -11  162.08   12.99
   4  -9 -11  177.76   14.35
   4  -9 -11  153.69   13.79
  -4   9 -12  515.31   27.16
   9  -5  12  502.97   30.25
   5   4  12  499.45   31.96
  -4   9  12  550.83   28.99
   9  -5 -12  497.79   33.72
   4  -9 -12  585.22   31.24
   4  -9  12  525.55   23.82
   4  -9 -12  574.65   27.33
  -9   5 -12  504.59   20.32
   4  -9 -12  572.72   33.67
   9  -5 -12  520.01   32.03
   4  -9 -12  587.09   28.58
   5   4  13    1.59    7.94
   9  -5  13   -4.22    7.94
  -4   9  13   11.36    7.22
   9  -5 -13   14.38    8.97
   4  -9 -13    5.41    7.63
  -4   9 -13    8.18    8.09
   9  -5 -13   13.74    8.95
   4  -9  13   11.10    4.16
   4  -9 -13   19.37    6.54
   9  -5 -14    5.55    9.39
   4  -9 -14   -1.44    8.52
   5   4 -14    1.46    7.90
  -4   9 -14   14.65    9.88
   5   4  14    9.95   10.19
  -4   9  14   14.71    8.94
   9  -5  14   -2.99    9.28
   4  -9 -14   14.74    6.87
   4  -9  14   12.10    4.97
  -4   9 -15  877.71   45.47
   5   4  15  828.06   46.36
  -4   9  15  872.10   42.88
   9  -5  15  827.35   44.71
  -5  -4 -15  836.97   46.76
   5   4 -15  948.74   46.42
   9  -5 -15  824.04   47.38
   4  -9 -15  883.93   45.16
  -9   5  15  908.56   47.13
   4  -9  15  921.93   34.61
   4  -9 -15  946.75   40.51
   5   4  16    5.43   10.49
  -4   9  16   26.69   11.20
   9  -5  16    4.92   10.09
   9  -5 -16   11.66   11.53
   4  -9 -16    8.08    9.82
   5   4 -16   11.45   10.06
  -5  -4 -16    9.36   12.39
  -4   9 -16   20.01   11.14
  -9   5  16   36.93   11.98
   4  -9 -16   11.02    7.08
   5   4  17   -3.79   10.96
  -4   9  17   -4.46    8.02
   9  -5  17   -1.71    9.77
  -9   5  17   -5.34    9.89
   4  -9 -17    1.71    8.84
   5   4 -17   -5.13   10.38
  -5  -4 -17   -7.91   11.59
  -4   9 -17   -5.29   10.70
   4  -9 -18  196.92   21.75
   5   4 -18  225.88   22.83
  -5  -4 -18  193.91   23.27
  -4   9 -18  211.58   23.07
  -4   9  18  219.76   21.56
   9  -5  18  194.02   21.33
   4  -9 -19   22.85   11.97
   5   4 -19   20.36   10.85
  -5  -4 -19    8.74   11.45
  -4   9 -19   23.42   12.53
  -4   9  19    9.80    9.21
   4   5   0 2281.21   78.76
   4   5   0 2164.07   79.44
  -9   4   0 2474.91   79.06
   5  -9   0 2360.46   82.24
  -9   4   0 2338.42   85.21
  -5   9   0 2334.13   85.68
   4   5   0 2360.51   86.27
   9  -4   0 2334.60   84.21
   4   5   1  141.77    9.43
   4   5   1  111.23    9.77
   4   5  -1  119.58    9.87
  -9   4  -1  142.14    9.73
   5  -9  -1  187.25   15.63
   9  -4  -1  155.29   13.98
   5  -9   1  151.25   11.28
   5  -9  -1  146.05   12.29
   4   5  -1  166.12   10.95
  -9   4   1  140.78   13.03
  -5   9   1  141.74   13.43
  -9   4  -1  157.19   13.69
  -5   9  -1  143.40   13.68
   4   5   1  166.94   13.88
   5  -9  -1  169.44   13.61
   9  -4   1  142.86   12.35
   4   5  -1  136.38   14.27
   9  -4  -1  149.48   12.98
   5  -9   2  873.22   35.76
   4   5   2  866.04   34.06
   4   5  -2  908.30   34.83
   4   5  -2  913.43   35.61
   5  -9  -2  915.66   42.28
   9  -4  -2  891.34   40.53
   5  -9   2  884.40   35.43
   5  -9  -2  924.19   38.14
  -9   4  -2  862.07   39.55
  -5   9  -2  851.79   39.56
   5  -9  -2  966.57   39.80
   4   5   2  942.26   40.56
   9  -4   2  839.59   38.28
   9  -4  -2  896.81   39.09
   4   5  -2  911.77   41.54
   5  -9   3   16.87    5.59
   4   5   3   29.64    5.51
   4   5  -3   25.45    5.43
   5  -9  -3   18.27    6.92
  -5   9  -3   23.22    7.80
  -9   4  -3   24.84    8.01
   5  -9  -3   23.76    7.42
   9  -4  -3   28.17    7.46
   5  -9   3   21.18    5.01
   5  -9  -3   21.43    5.44
   5  -9  -3   24.10    6.34
   9  -4   3   22.47    6.60
   4   5  -3   29.88    5.33
   4   5   3   37.62    7.86
   4   5  -3   17.26    7.78
   4   5   4  733.73   29.02
   5  -9   4  763.59   30.74
   4   5  -4  796.17   30.11
   5  -9  -4  701.06   31.75
   5  -9  -4  750.22   36.13
   9  -4  -4  742.15   34.78
  -9   4  -4  780.03   35.26
   5  -9  -4  759.66   31.24
   5  -9   4  736.46   27.96
   4   5  -4  762.30   28.99
  -4  -5  -4  656.89   23.55
  -5   9  -4  608.59   23.11
   9  -4   4  742.71   33.18
   5  -9  -4  821.28   33.95
   5  -9  -4  661.68   24.28
   4   5   4  770.78   35.02
   9  -4   5   28.95    7.67
  -5   9  -5   42.30    4.24
   4   5  -5   32.57    6.11
   5  -9   5   30.80    6.89
   4   5   5   35.39    6.07
   5  -9  -5   33.05    7.73
   5  -9  -5   38.87    6.49
   9  -4  -5   39.13    8.56
   5  -9  -5   45.35    8.94
  -9   4  -5   39.71    8.98
   5  -9  -5   33.27    4.29
   9  -4   5   43.30    5.77
   4   5  -5   36.96    5.42
   4   5   5   39.15    8.45
   5  -9  -5   38.78    7.42
  -9   4  -5   37.35    8.31
   5  -9   6 2336.97   83.10
  -5   9  -6 2335.75   77.81
   5  -9  -6 2186.96   84.23
   4   5   6 2399.16   82.09
   4   5  -6 2337.86   79.48
   5  -9  -6 2308.81   82.80
   5  -9  -6 2427.55   89.76
   9  -4  -6 2458.50   88.27
   5  -9  -6 2415.54   85.37
   4   5   6 2257.29   78.48
   9  -4   6 2300.28   85.84
   5  -9  -6 2201.53   78.20
   9  -4   6 2348.37   79.64
   4   5   6 2410.72   88.10
  -9   4  -6 2385.74   86.44
   5  -9   7  106.44   11.16
  -5   9  -7  105.54    8.29
   4   5   7  110.71   13.08
   9  -4   7  108.58   12.19
   4   5   7   96.31    9.98
   5  -9  -7  112.52   11.65
   9  -4  -7  101.74    9.24
  -4  -5  -7   84.66    9.51
   9  -4  -7   98.32   12.11
   5  -9  -7  101.99   12.98
   5  -9  -7  107.47    9.94
   4   5  -7  107.23    8.12
   5  -9  -7   91.05    8.15
   5  -9  -7  114.71   11.30
   4   5   7  113.63    7.63
   9  -4   7  107.92    8.00
   5  -9   8  762.17   34.83
  -5   9   8  784.68   31.82
  -5   9  -8  757.92   31.10
   9  -4   8  754.31   36.88
   5  -9  -8  766.43   36.09
  -4  -5  -8  810.48   34.51
   4   5   8  744.24   33.78
   9  -4  -8  737.21   32.24
   4   5  -8  808.03   30.21
   5  -9  -8  718.17   33.27
   9  -4  -8  814.10   39.00
   5  -9  -8  811.22   40.48
   5  -9  -8  800.01   35.87
   9  -4   8  799.49   29.62
   4   5   8  770.70   38.44
   4   5   8  739.78   28.58
   5  -9  -8  746.72   31.57
   4   5   9   46.68   10.25
   9  -4   9   66.50   11.35
  -5   9  -9   57.23    7.99
  -5   9   9   69.49    8.62
   5  -9  -9   62.94    8.28
   5  -9   9   55.41    9.83
  -4  -5  -9   73.84    9.67
   4   5   9   59.67    9.45
   9  -4  -9   72.49    8.80
   9  -4  -9   84.50   11.74
   5  -9  -9   95.41   12.58
   9  -4   9   62.95    5.94
   4   5  -9   59.35    6.29
   5  -9  -9   63.97    9.38
   5  -9  -9   83.94    9.39
   4   5   9   65.33    5.46
   4   5  10  861.28   41.40
  -5   9  10  827.99   35.21
  -5   9 -10  782.68   33.97
   9  -4  10  816.14   39.39
   9  -4 -10  754.91   34.42
   4   5  10  810.89   36.91
   4   5 -10  740.80   29.87
   9  -4 -10  884.63   41.45
   5  -9 -10  883.49   43.06
   5  -9 -10  841.94   35.32
   5  -9 -10  857.23   37.68
   5  -9 -10  800.95   35.13
   4   5  11   77.08   13.12
   9  -4  11   83.02   12.47
  -5   9  11   94.00   10.80
  -5   9 -11  105.12   10.50
   5  -9 -11   78.93   10.08
   4   5 -11   72.11   10.86
   5  -9 -11   97.97   10.07
   5  -9 -11  102.19   13.64
   9  -4 -11  113.53   13.10
   5  -9 -11   84.18   10.99
   9  -4  12 1330.67   59.38
  -5   9  12 1334.70   55.13
  -5   9 -12 1353.44   53.98
   4   5  12 1496.45   62.25
  -4  -5 -12 1244.47   57.96
   4   5 -12 1428.66   58.77
   5  -9 -12 1375.15   62.27
   5  -9 -12 1441.95   53.92
   9  -4 -12 1327.11   59.71
   5  -9 -12 1386.54   56.06
   4   5  13   26.62    9.98
   9  -4  13   24.86    9.61
  -5   9  13   27.09    8.32
   4   5 -13   15.67    7.79
  -4  -5 -13   27.74    9.79
   5  -9 -13   46.99   11.66
   5  -9 -13   37.45    8.49
   5  -9 -13   21.30    6.62
  -4  -5 -14  434.25   28.74
   4   5  14  386.46   27.71
   9  -4  14  335.30   25.76
  -5   9  14  357.10   23.74
   4   5 -14  407.78   26.94
   5  -9 -14  351.75   26.53
   5  -9 -14  377.88   20.92
   5  -9 -14  394.88   23.32
   4   5 -15   34.01   10.59
   5  -9 -15   43.79   11.50
  -4  -5 -15   31.83   11.36
   4   5  15   51.43   12.56
   9  -4  15   37.44   11.04
   5  -9 -15   34.50    8.32
   4   5 -16  477.67   31.19
   5  -9 -16  450.38   32.21
  -4  -5 -16  445.95   32.15
   4   5  16  476.12   32.93
   9  -4  16  497.12   32.76
  -5   9 -16  505.67   33.64
   5  -9 -16  561.96   29.11
   4   5 -17   26.44   11.48
   5  -9 -17   28.67   11.99
  -5   9 -17   25.95   12.64
  -4  -5 -17   20.65   11.30
   4   5  17   24.49   11.20
   9  -4  17   24.98   11.48
   5  -9 -17   24.44    7.39
   4   5 -18  694.04   39.98
   5  -9 -18  649.99   40.31
  -4  -5 -18  610.94   40.68
   9  -4  18  614.65   39.09
  -5   9 -18  661.39   41.27
   4   5 -19   58.63   15.07
   5  -9 -19   40.84   13.21
  -5   9 -19   59.30   15.12
  -4  -5 -19   49.82   14.73
   3   6   0   19.32    3.34
   3   6   0   25.77    5.79
   3   6   0   17.79    3.38
  -9   3   0   21.78    7.01
   6  -9   0   29.48    8.50
   9  -3   0   14.01    6.39
   3   6   0   16.92    6.77
   3   6  -1   50.97    4.43
   3   6   1   54.01    4.52
   3   6   1   50.17    6.86
   3   6  -1   59.72    4.87
   3   6  -1   55.80    7.21
  -9   3  -1   46.09    8.21
   6  -9  -1   69.59   10.62
   9  -3  -1   69.50    9.49
   3   6   1   50.92    8.28
   9  -3  -1   55.82    8.99
   3   6  -1   57.81    8.73
   6  -9  -1   72.96    9.07
   9  -3   1   51.20    8.33
   3   6   2  342.80   14.80
   6  -9   2  338.67   19.35
   3   6  -2  351.71   14.94
   3   6   2  335.52   18.36
  -9   3  -2  370.72   14.81
   6  -9  -2  346.05   23.33
   9  -3  -2  385.98   21.82
  -9   3  -2  352.87   20.60
   3   6  -2  331.43   17.60
   6  -9  -2  377.75   21.24
   9  -3   2  351.94   21.13
   3   6   2  341.75   20.84
   9  -3  -2  348.00   21.63
   3   6  -2  392.98   22.44
   6  -9   3  154.61   12.36
   3   6   3  132.35    8.48
   6  -9  -3  171.22   16.03
   9  -3  -3  162.49   13.45
   3   6  -3  144.43   10.39
  -9   3  -3  148.70   13.27
   6  -9  -3  152.68   12.98
   9  -3   3  139.86   13.05
   3   6   3  145.13   13.30
   3   6  -3  159.08   14.21
   6  -9   4  350.25   19.94
   3   6   4  355.00   16.54
   9  -3  -4  392.07   21.97
  -9   3  -4  362.86   21.73
   3   6  -4  341.47   17.43
  -3  -6  -4  366.52   14.59
   3   6  -4  356.94   14.11
   3   6   4  363.97   22.05
   6  -9  -4  393.69   21.64
   3   6   4  339.88   17.46
   6  -9  -4  324.70   12.57
   9  -3   4  350.66   21.62
   9  -3   5   23.06    7.02
   3   6   5   11.67    6.46
   6  -9   5   17.71    6.23
   3   6   5   14.53    4.49
   6  -9  -5   27.83    7.10
  -3  -6  -5   18.98    4.00
   9  -3  -5   19.90    6.73
   6  -9  -5   24.76    8.64
  -9   3  -5   20.57    7.09
   3   6  -5   15.35    3.99
   6  -9  -5   13.80    3.14
  -6   9  -5   17.43    2.83
   6  -9  -5   24.53    6.85
   3   6   5   22.39    4.76
   3   6  -5   20.00    4.63
   6  -9   6  256.07   17.04
   3   6  -6  250.79   14.58
   9  -3  -6  254.47   13.28
   6  -9  -6  213.32   17.31
   3   6   6  215.20   13.77
  -9   3  -6  246.37   18.52
   3   6  -6  266.76   13.96
   9  -3  -6  260.64   18.38
   6  -9  -6  306.26   21.61
   6  -9  -6  248.75   15.71
  -6   9  -6  220.54   11.62
   3   6   6  239.53   13.42
   6  -9  -6  297.06   18.58
   6  -9  -6  239.16   12.65
   9  -3   6  254.29   18.46
   3   6   6  270.04   19.07
  -6   9  -7   58.04    6.25
   6  -9  -7   55.62    6.25
   9  -3   7   52.43    9.87
   3   6   7   55.26    9.97
   6  -9   7   34.59    8.33
   9  -3  -7   48.31    6.78
   6  -9  -7   38.49    9.47
   3   6  -7   47.74    7.53
   6  -9  -7   61.74    8.03
   9  -3  -7   67.04   10.11
   6  -9  -7   61.67   11.44
   3   6  -7   49.82    6.05
   6  -9  -7   34.82    7.93
   3   6   7   53.56    5.99
   9  -3   7   68.96    6.05
   6  -9   8  388.59   23.20
   9  -3  -8  357.12   18.99
  -3  -6  -8  441.03   23.38
   6  -9  -8  422.92   25.58
   3   6  -8  377.35   21.04
   3   6  -8  389.82   18.20
   6  -9  -8  388.44   21.18
   9  -3  -8  380.96   24.47
   6  -9  -8  419.67   27.40
   6  -9  -8  424.94   23.32
   9  -3   8  410.06   17.09
  -6   9  -8  412.83   19.21
   6  -9  -8  416.90   19.83
   3   6   8  390.51   24.80
   9  -3   8  404.07   24.98
   3   6   8  391.31   17.68
   9  -3   9  173.13   16.01
   3   6   9  174.50   16.93
   9  -3  -9  183.21   12.53
   6  -9  -9  208.87   17.08
   3   6  -9  179.44   14.05
   9  -3  -9  185.14   18.78
   6  -9  -9  174.68   13.13
   9  -3  -9  163.11   15.73
   6  -9  -9  194.36   18.54
   6  -9  -9  186.02   14.79
   6  -9  -9  148.26   12.16
  -6   9  -9  184.71   12.51
   9  -3   9  186.20    9.30
   6  -9 -10  522.84   26.02
   9  -3  10  488.70   29.89
   3   6  10  582.41   32.10
  -3  -6 -10  514.18   28.12
   9  -3 -10  518.08   24.82
   6  -9 -10  562.14   31.07
   3   6 -10  607.78   28.71
   9  -3 -10  533.37   33.33
   6  -9 -10  550.40   26.29
   9  -3 -10  581.42   31.29
   6  -9 -10  501.91   31.96
   6  -9 -10  537.03   28.24
  -6   9 -10  506.72   25.31
  -6   9 -11   15.01    6.26
   9  -3  11    8.23    7.42
   3   6  11   19.49    9.30
   9  -3 -11    8.35    8.62
   3   6 -11   15.42    6.74
  -3  -6 -11    8.14    7.08
   9  -3 -11   16.82    7.00
   6  -9 -11   13.07    8.01
   6  -9 -11    9.55    5.23
   6  -9 -11   11.42    6.17
  -6   9 -12   15.62    8.54
   9  -3  12   21.71    9.79
   3   6  12   36.66   10.89
   9  -3 -12   18.94    9.74
   3   6 -12   15.50    8.31
  -3  -6 -12   23.96    9.01
   6  -9 -12   47.16   11.49
   6  -9 -12   31.93    7.99
   6  -9 -12   30.74    7.59
   9  -3  13   27.20   10.02
   3   6  13   18.39    9.23
   9  -3 -13   45.91   12.48
   3   6 -13   15.76    8.28
  -3  -6 -13   25.87    9.21
   6  -9 -13   32.93   10.55
   6  -9 -13   22.93    7.81
   6  -9 -13   21.35    5.77
   9  -3  14  213.46   20.75
   3   6  14  196.49   20.30
  -3  -6 -14  198.10   19.34
   9  -3 -14  221.58   22.75
   3   6 -14  261.54   20.51
   6  -9 -14  228.23   15.25
   6  -9 -14  208.87   20.79
   6  -9 -14  194.37   16.75
   9  -3 -15   57.53   13.57
   3   6 -15   50.54   11.51
  -3  -6 -15   69.04   13.23
   9  -3  15   70.03   13.43
   3   6  15   62.33   13.39
   6  -9 -15   61.37    8.55
   6  -9 -15   78.79   11.07
  -3  -6 -16   93.62   15.24
   9  -3 -16  114.29   17.87
   3   6 -16  136.91   16.97
   6  -9 -16  127.34   17.82
   9  -3  16  131.62   18.13
   3   6  16  113.50   17.40
   6  -9 -16  130.53   14.69
  -3  -6 -17    8.88    9.87
   6  -9 -17   -7.53   12.33
   9  -3  17   -1.83   10.31
   3   6  17  -11.07    9.36
   6  -9 -17   -1.19    7.45
  -3  -6 -18    3.76   10.72
   3   6 -18   -3.38   11.08
   6  -9 -18   21.70   12.39
   6  -9 -18    7.20    7.46
  -3  -6 -19   39.55   13.87
   3   6 -19   28.47   11.81
  -7   9   0 1005.22   43.68
   2   7   0  961.34   40.32
   7  -9   0  989.17   46.77
  -9   2   0  925.70   39.82
   2   7   0 1026.86   42.24
   9  -2   0  937.69   42.89
  -7   9   1   68.31    9.83
   2   7  -1   50.59    8.35
   2   7   1   46.41    8.61
  -9   2  -1   66.21    8.42
   7  -9  -1   72.99   11.50
   2   7   1   75.52    9.72
   9  -2  -1   67.06   10.47
   2   7  -1   61.04    9.57
   9  -2   1   61.64    9.73
  -7   9   2  728.42   35.04
   2   7   2  658.66   31.36
   7  -9  -2  730.45   37.92
   9  -2  -2  744.17   33.36
  -7   9   2  739.04   31.28
  -9   2  -2  647.99   31.28
   7  -9  -2  821.25   34.77
   9  -2   2  714.76   34.69
   7  -9   2  716.88   33.13
   2   7   2  698.90   33.16
   9  -2  -2  677.65   34.66
   2   7  -2  676.53   33.63
   7  -9   3  181.57   14.51
  -7   9   3  197.23   15.99
   2   7   3  165.79    7.40
   2   7   3  185.60   13.56
  -9   2  -3  175.65    7.21
   7  -9  -3  173.26   16.50
   9  -2  -3  198.87   14.46
  -2  -7  -3  191.83   10.06
  -7   9   3  168.24   12.97
   2   7  -3  180.72    9.16
  -9   2  -3  174.55   13.71
   2   7   3  162.16   11.99
   7  -9   3  202.76   14.62
   9  -2   3  168.50   14.93
   9  -2  -3  175.14   15.53
   2   7  -3  166.18   14.02
   7  -9  -3  167.83   13.86
   2   7   3  181.79   14.36
   7  -9   4  628.07   29.97
   2   7  -4  608.11   21.61
  -7   9   4  639.16   31.80
   2   7   4  580.21   22.17
   7  -9  -4  621.72   33.92
  -2  -7  -4  593.33   24.04
   2   7  -4  638.61   26.11
  -7   9   4  585.45   28.21
   9  -2  -4  648.18   29.58
   2   7  -4  595.16   23.30
  -9   2  -4  611.55   29.15
   7  -9  -4  643.52   30.25
   2   7   4  628.71   26.27
   2   7   4  674.46   31.09
   9  -2   4  595.72   31.06
   7  -9  -4  518.72   20.45
   2   7  -5   92.28    6.69
   2   7   5   75.50   10.45
   7  -9   5   76.77   10.29
  -7   9   5   86.01   11.38
   2   7   5   82.92    6.78
   2   7  -5  102.94    8.39
   2   7  -5   88.83    7.44
   9  -2  -5   84.13    9.96
   7  -9  -5   93.70   13.07
  -9   2  -5   50.08    9.36
  -7   9   5   88.25   10.06
  -2  -7  -5   76.97    7.19
   2   7   5   78.55    7.84
   7  -9  -5   76.55    9.84
  -7   9  -5   79.75    5.48
   9  -2   5   92.35   11.61
   7  -9  -5   75.43    5.84
  -2  -7  -5   72.79   10.55
   7  -9   6 1556.14   62.03
   7  -9  -6 1495.95   54.73
   2   7  -6 1555.73   55.60
   2   7   6 1556.45   55.72
   9  -2  -6 1577.43   54.46
   7  -9  -6 1591.07   65.07
  -9   2  -6 1575.40   62.20
   2   7  -6 1630.14   57.00
  -7   9   6 1554.43   61.50
  -2  -7  -6 1582.25   57.29
   9  -2  -6 1708.38   62.64
   7  -9  -6 1666.81   68.04
   7  -9  -6 1624.21   62.26
  -7   9  -6 1552.20   53.99
   2   7   6 1560.81   56.72
   9  -2   6 1616.99   64.48
   2   7   6 1662.26   63.78
   2   7   7   26.70    8.97
   7  -9  -7   39.66    5.73
   9  -2   7   20.69    7.94
   2   7   7   20.70    5.43
   2   7  -7   30.49    5.72
   7  -9  -7   19.00    8.26
   9  -2  -7   32.15    5.32
  -2  -7  -7   16.53    5.82
   9  -2  -7   43.31    7.97
  -7   9   7   36.27    7.97
   7  -9  -7   22.10    9.20
  -9   2  -7   23.77    8.30
   7  -9  -7   40.47    8.23
   2   7   7   35.77    5.67
  -7   9  -7   28.31    5.10
   2   7  -8  818.86   33.17
   2   7   8  778.72   38.27
   7  -9  -8  775.61   32.14
   9  -2  -8  743.95   30.92
   2   7   8  742.53   32.62
   7  -9  -8  816.24   39.97
  -7   9   8  747.78   36.52
   9  -2  -8  769.33   37.13
   7  -9  -8  879.80   43.06
   2   7   8  776.39   31.07
  -7   9  -8  820.50   31.66
   9  -2   8  813.81   39.35
   7  -9  -8  785.90   36.58
   9  -2   8  800.94   28.76
   2   7  -9  169.46   12.84
   2   7   9  167.69   16.02
   7  -9  -9  172.06   12.68
  -2  -7  -9  158.63   13.50
   9  -2  -9  166.06   11.44
   2   7   9  183.74   13.53
   7  -9  -9  161.23   16.79
   9  -2  -9  175.91   18.25
   7  -9  -9  178.95   13.25
  -7   9   9  166.31   15.26
   9  -2  -9  164.47   15.31
   7  -9  -9  174.12   18.29
   9  -2   9  156.69   16.05
   9  -2   9  158.54    8.05
  -7   9  -9  169.70   12.00
   7  -9  -9  175.27   14.48
  -2  -7 -10  612.49   32.23
   2   7 -10  656.63   32.14
   9  -2  10  769.90   38.41
   2   7  10  714.84   36.70
   2   7  10  716.36   32.42
   7  -9 -10  700.63   38.02
   9  -2 -10  721.32   39.70
   7  -9 -10  706.03   31.57
   9  -2 -10  755.28   36.12
  -7   9  10  700.60   35.24
   7  -9 -10  757.34   40.68
  -7   9 -10  683.35   30.78
   7  -9 -10  755.94   35.07
   9  -2  11   51.98   11.64
   2   7  11   80.05   12.25
  -7   9 -11   55.76    8.73
   2   7  11   55.77    9.56
   7  -9 -11   48.65   11.64
   2   7 -11   45.46    8.56
   9  -2 -11   48.05   11.92
  -2  -7 -11   55.48    9.94
   9  -2 -11   54.98   10.40
   7  -9 -11   67.47   13.28
  -7   9  11   64.05   10.88
   7  -9 -11   53.88    9.27
   7  -9 -11   70.94    8.88
   2   7  12  798.06   40.80
  -2  -7 -12  755.52   37.73
   2   7 -12  730.41   36.16
   9  -2  12  803.30   41.42
   7  -9 -12  790.38   41.88
   9  -2 -12  819.71   43.66
   7  -9 -12  867.70   44.77
   7  -9 -12  763.15   33.91
  -7   9 -12  762.88   35.40
   7  -9 -12  793.10   37.50
   9  -2  13   25.21   10.27
   2   7  13   40.39   11.88
  -2  -7 -13   19.05    9.17
   9  -2 -13   43.76   12.39
   2   7 -13   46.83    9.40
   7  -9 -13   37.42   11.36
   7  -9 -13   34.89    8.47
   7  -9 -13   31.42    6.83
   9  -2  14  381.69   28.65
   2   7  14  410.75   28.93
  -2  -7 -14  417.49   27.31
   2   7 -14  418.17   26.35
   9  -2 -14  438.62   31.13
   7  -9 -14  444.93   31.35
   7  -9 -14  437.49   22.44
   7  -9 -14  487.27   26.76
   9  -2  15   46.41   12.92
   2   7  15   41.37   11.86
  -2  -7 -15   42.85   11.21
   9  -2 -15   53.17   12.90
   2   7 -15   47.98   10.43
   7  -9 -15   37.15   12.61
   7  -9 -15   50.67    9.93
   7  -9 -15   50.56    8.22
   9  -2  16  266.74   24.39
   2   7  16  270.90   24.19
  -2  -7 -16  234.10   22.23
   2   7 -16  251.94   21.67
   9  -2 -16  256.90   24.67
   7  -9 -16  273.35   16.78
   7  -9 -16  233.51   23.79
   7  -9 -16  290.10   21.00
  -2  -7 -17   23.57   10.49
   2   7 -17    6.12    8.77
   9  -2  17   41.28   13.03
   2   7  17   36.09   12.19
   7  -9 -17   35.60    9.06
  -2  -7 -18  308.67   27.81
   2   7 -18  376.91   28.65
   2   7 -19   43.32   13.17
   7  -9 -19   26.72    9.11
   2   7 -20  190.20   21.18
  -8   9   0 1227.34   50.26
   1   8   0 1119.20   47.43
   8  -9   0 1174.96   53.85
  -8   9   0 1098.37   44.55
   8  -9   0 1239.77   49.05
   1   8   0 1150.73   47.37
   9  -1   0 1137.36   50.18
   1   8   1  407.31   23.11
   1   8  -1  430.21   23.72
  -8   9   1  408.09   24.25
   8  -9  -1  368.72   26.48
  -8   9   1  407.66   21.01
  -9   1  -1  369.71   20.25
  -8   9  -1  421.22   19.77
   9  -1   1  386.58   24.23
   9  -1  -1  409.74   25.54
   1   8   1  370.36   22.10
   8  -9   1  424.24   23.32
   1   8  -1  431.57   23.02
   1   8   2   33.82    9.41
  -8   9   2   20.63    7.62
  -9   1  -2    8.43    6.07
  -8   9   2   19.71    6.14
   8  -9  -2   27.33    9.44
   9  -1  -2   33.07    7.25
   9  -1  -2   14.39    8.63
   9  -1   2   15.90    7.16
   1   8  -2   12.83    7.29
   8  -9   2   20.18    6.67
   1   8   2   43.62    8.88
   8  -9  -3 2491.31   89.07
  -8   9   3 3168.22  103.83
   1   8   3 2898.83  100.01
   8  -9  -3 3104.27  108.12
   9  -1  -3 3161.56   99.17
  -1  -8  -3 2856.91   95.00
   1   8  -3 3025.15   94.03
  -9   1  -3 2951.53   97.72
  -8   9   3 2932.12   99.55
   8  -9  -3 3022.08  101.03
   8  -9  -3 2606.83   89.14
   1   8   3 2966.64  100.05
   8  -9   3 3223.62  101.40
   9  -1   3 3128.49  104.06
   9  -1  -3 3063.40  105.08
   1   8  -3 3064.20  100.35
   8  -9  -4  183.10    9.11
   8  -9   4  175.58    8.76
  -8   9   4  193.47   16.28
   8  -9  -4  218.54   18.86
   9  -1  -4  217.08   14.63
  -1  -8  -4  174.16   11.96
  -8   9   4  177.63   14.20
   1   8  -4  181.68   11.29
  -9   1  -4  171.97   13.64
   8  -9   4  200.88   14.96
   1   8   4  190.50   12.77
   8  -9  -4  179.69    9.03
   1   8  -4  203.08   15.09
   1   8   4  183.60   14.87
   9  -1   4  176.93   16.05
   8  -9  -4  199.28   14.99
   8  -9  -5  242.33   12.06
   8  -9   5  226.04   11.63
   1   8  -5  227.09   13.64
  -9   1  -5  266.57   16.99
  -8   9   5  233.86   16.94
  -1  -8  -5  231.72   14.35
   9  -1  -5  224.70   15.56
   8  -9  -5  249.99   20.86
   9  -1   5  244.49   18.92
   1   8   5  237.30   14.50
   1   8   5  256.14   17.55
   8  -9  -5  263.25   17.87
   8  -9  -6 1372.49   48.21
   1   8  -6 1347.49   46.28
   8  -9   6 1286.58   47.48
   9  -1  -6 1234.42   45.30
  -9   1  -6 1325.90   53.45
   1   8  -6 1310.19   49.91
  -8   9   6 1329.41   54.67
  -1  -8  -6 1326.25   50.93
   8  -9  -6 1406.90   60.73
   9  -1  -6 1366.83   53.12
   1   8   6 1349.28   50.01
  -8   9  -6 1392.21   47.44
   9  -1   6 1388.24   57.67
   8  -9  -6 1349.46   54.57
   1   8   6 1390.16   55.07
   8  -9  -7  386.15   18.44
   1   8  -7  381.16   17.37
   1   8   7  372.04   22.72
   8  -9   7  355.87   17.99
   9  -1  -7  350.19   16.17
   1   8   7  369.88   18.09
   8  -9  -7  337.99   24.98
  -9   1  -7  338.55   21.78
   1   8  -7  372.16   19.82
  -1  -8  -7  372.52   20.38
   9  -1  -7  394.19   21.86
  -8   9   7  399.61   23.59
   8  -9  -7  371.46   26.59
   1   8   7  371.37   18.75
   9  -1   7  405.47   25.21
  -8   9  -7  340.26   17.26
   8  -9  -7  391.80   22.67
   1   8  -8   77.99    7.88
   1   8   8   79.73   11.69
   8  -9  -8   67.79    8.20
   8  -9   8   55.99    7.82
   9  -1   8   68.39   11.98
   1   8   8   75.68    8.47
   8  -9  -8   66.84   12.00
   9  -1  -8   84.09   13.38
  -1  -8  -8   67.46    8.21
  -1  -8  -8   60.25    8.91
   9  -1  -8   60.68    9.62
   8  -9  -8   78.32   13.89
  -8   9   8   70.32   10.51
  -9   1  -8   73.54   11.45
  -8   9  -8   59.93    7.47
   8  -9  -8   82.01   10.17
  -1  -8  -9 2357.29   86.34
   1   8  -9 2494.47   85.80
   1   8   9 2434.65   91.73
   8  -9   9 2397.46   85.98
   1   8   9 2436.57   86.36
   8  -9  -9 2465.47   96.18
   9  -1  -9 2585.94   97.51
   9  -1  -9 2719.85   91.54
  -1  -8  -9 2359.60   88.31
   8  -9  -9 2621.27   98.72
  -8   9   9 2461.40   92.14
   9  -1   9 2378.78   78.69
  -8   9  -9 2488.49   85.12
   9  -1   9 2417.65   94.09
   8  -9  -9 2482.99   90.40
   9  -1  10   18.71    9.15
   1   8  10    8.68    7.80
   8  -9  10   21.24    6.70
  -1  -8 -10   20.25    6.69
   1   8 -10   20.51    6.39
   8  -9 -10   13.97    8.99
   1   8  10   18.42    6.64
   9  -1 -10   28.69   10.13
   9  -1 -10    2.19    6.58
   8  -9 -10   16.97   10.08
  -8   9  10    3.72    6.82
  -8   9 -10   24.11    6.58
   8  -9 -10   11.80    5.90
   8  -9  11  160.75   14.01
   1   8  11  167.73   17.09
  -1  -8 -11  173.55   14.89
   1   8 -11  190.76   14.68
   9  -1  11  198.88   18.91
   8  -9 -11  164.53   18.32
   9  -1 -11  181.61   19.38
   1   8  11  152.17   14.33
   8  -9 -11  201.64   14.06
   8  -9 -11  150.35   17.91
   9  -1 -11  203.46   16.57
  -8   9  11  161.59   16.14
  -8   9 -11  180.62   14.04
   8  -9 -11  159.10   14.47
   8  -9  12  708.21   33.93
   1   8  12  705.39   37.50
  -1  -8 -12  669.34   34.67
   1   8 -12  733.84   34.41
   9  -1  12  740.49   39.80
   8  -9 -12  653.85   38.99
   9  -1 -12  740.99   40.78
   1   8  12  654.51   34.10
   8  -9 -12  774.66   32.34
   8  -9 -12  744.37   41.73
  -8   9  12  672.89   36.99
  -8   9 -12  681.82   32.84
   8  -9 -12  723.59   35.31
   9  -1  13  161.02   18.39
   1   8 -13  166.56   15.35
  -1  -8 -13  131.28   14.81
   1   8  13  126.86   16.17
   8  -9  13  130.64   14.37
   8  -9 -13  147.50   18.18
   9  -1 -13  142.27   18.45
   8  -9 -13  184.60   20.02
   8  -9 -13  171.81   12.74
   8  -9 -13  164.00   15.14
   9  -1  14   18.66   10.68
   1   8  14   19.83   10.02
   8  -9  14   25.59    8.72
  -1  -8 -14   32.76    9.66
   9  -1 -14   29.86   10.57
   1   8 -14   14.43    7.99
   8  -9 -14   22.47   10.57
   8  -9 -14   27.10    6.61
   9  -1  15 1425.51   64.35
   8  -9  15 1246.67   56.87
   1   8  15 1320.90   61.28
   1   8 -15 1390.69   59.15
  -1  -8 -15 1306.15   59.35
   8  -9 -15 1373.70   64.92
  -8   9  15 1350.10   60.47
   8  -9 -15 1451.74   53.05
   9  -1 -15 1351.24   63.90
   1   8 -16   48.98   11.69
   9  -1  16   73.57   15.22
   1   8  16   33.50   11.71
   1   8 -17   64.45   12.69
   1   8  17   74.12   14.71
   8  -9 -17   75.91   11.91
   1   8 -18  444.19   30.60
   8  -9 -18  416.30   26.81
   1   8 -19  120.74   17.59
   9  -9   0    7.69    3.03
   9  -9   0   11.73    3.37
  -9   9   0   25.75    8.38
   0   9   0   15.36    7.23
  -9   9   0   22.36    6.56
   9  -9   0   22.25    7.07
   0   9   0   15.45    6.65
   9   0   0   18.56    7.95
   9  -9  -1  223.81   10.54
   9  -9   1  229.64   10.24
  -9   9  -1  280.76   19.33
   0   9  -1  263.56   18.62
  -9   9   1  278.02   19.05
   0   9   1  275.52   18.62
  -9   9   1  239.93   16.16
   9  -9  -1  249.31   21.01
  -9   9  -1  278.90   15.66
   9  -9  -1  286.91   18.38
   9   0   1  280.89   20.66
   0   9  -1  245.73   16.34
   9   0  -1  271.40   20.72
   9  -9   1  297.22   18.41
   0   9   1  251.92   16.69
   9  -9  -1  236.22   10.52
   9  -9   2  135.75    7.92
   9  -9  -2  161.78    8.54
  -9   9   2  190.74   15.94
   0   9   2  182.07   15.75
  -9   9   2  192.22   14.41
   9  -9  -2  179.17   17.47
   0   9  -2  162.70   11.24
  -9   0  -2  158.88   11.44
  -9   9  -2  166.24   11.33
   9   0  -2  179.99   17.07
   9  -9   2  163.37   13.98
   0   9   2  163.81   13.34
   9   0   2  170.44   16.28
   9  -9  -2  160.36    8.37
   0   9  -2  198.88   14.06
   9  -9   3  664.95   25.89
   9  -9  -3  674.59   26.38
  -9   9   3  728.07   35.40
   0   9   3  678.96   34.33
  -9   9   3  688.98   33.09
   9  -9  -3  755.51   39.77
   0  -9  -3  698.35   31.21
   9   0  -3  734.23   30.92
   0   9  -3  714.63   29.86
  -9   0  -3  709.61   30.08
  -9   9  -3  718.54   28.97
   0   9  -3  760.60   32.69
   9  -9   3  790.85   34.52
   9   0   3  726.65   36.47
   0   9   3  746.81   32.83
   9   0  -3  711.32   37.31
   9  -9  -3  684.31   26.31
   9  -9   4  186.35   10.15
   9  -9  -4  185.66   10.70
  -9   9   4  216.73   16.67
   0   9   4  193.47   15.80
  -9   9   4  182.63   15.01
   9  -9  -4  182.69   18.21
   0  -9  -4  191.09   13.61
   9   0  -4  200.08   13.20
  -9   9  -4  166.55   10.42
   0   9  -4  175.64   12.40
  -9   0  -4  168.77   12.47
   9  -9   4  208.43   15.04
   9  -9  -4  193.15   15.31
   0   9   4  179.54   14.22
   9   0  -4  186.24   17.21
   9   0   4  169.99   16.21
   0   9  -4  212.36   14.84
   9  -9  -4  181.03   10.41
   9  -9  -5   96.90    8.62
   9  -9   5   97.69    8.03
   0  -9  -5  116.94   10.96
   9   0  -5  120.65   10.23
  -9   9   5  127.70   12.92
   9  -9  -5  102.49   14.71
  -9   0  -5  106.26   10.38
   0   9  -5  118.15   10.03
   9  -9   5  117.29   11.50
   9   0   5  100.62   13.15
   0   9   5  118.64   11.82
   9  -9  -5  102.64   11.36
   9  -9   6    7.17    4.95
   0   9   6    1.89    6.27
   9   0   6    2.65    7.36
   9  -9  -6    1.66    4.36
  -9   0  -6    0.96    2.97
   0  -9  -6   12.74    6.19
   9   0  -6    1.49    5.48
   9  -9  -6    1.61    8.44
   0   9  -6   15.41    6.19
  -9   0  -6    0.82    5.26
  -9   9   6   -1.12    7.66
   9  -9  -6    8.29    6.15
   0  -9  -6    5.62    6.49
   9  -9   7  209.12   13.22
   0   9   7  220.78   16.94
   0  -9  -7  197.43   12.06
  -9   0  -7  205.84   11.09
  -9   9   7  216.83   17.88
   0   9  -7  230.40   15.60
  -9   0  -7  193.71   15.60
   0  -9  -7  199.54   15.47
   9   0  -7  206.42   14.73
   9  -9  -7  190.13   19.66
   9   0   7  213.34   18.86
  -9   9  -7  206.67   13.01
   9  -9  -7  233.10   16.89
   0   9  -8   74.34    7.66
   9  -9   8   68.54    8.45
   0   9   8   87.20   11.27
   9   0   8   76.53   12.58
   9  -9  -8   57.43   12.11
   9   0  -8   78.57   13.67
   0  -9  -8   55.44    7.15
   0  -9  -8   78.56   10.04
   9   0  -8   89.31   10.27
   9  -9  -8   63.70   12.90
  -9   9   8   78.84   11.89
   0   9  -8   67.94    9.59
  -9   0  -8   77.27   10.45
   9  -9  -8   84.56   10.72
  -9   9  -8   51.85    7.88
   0   9   9  494.14   27.40
   0   9  -9  500.10   22.66
   0  -9  -9  442.66   22.51
   9  -9   9  438.07   22.99
   9  -9  -9  474.88   31.07
   9   0  -9  501.13   30.97
  -9   9   9  491.68   28.51
   0  -9  -9  524.32   26.99
   9   0  -9  503.69   25.78
   9  -9  -9  508.69   32.48
   9   0   9  438.82   29.05
  -9   9  -9  469.31   23.09
   9   0   9  438.36   16.54
   0   9  10  167.99   15.97
   0   9 -10  173.21   13.30
   0  -9 -10  187.70   14.20
   9  -9  10  160.16   13.47
   9  -9 -10  193.30   20.32
   9   0 -10  177.70   18.78
   0  -9 -10  161.15   15.42
   9   0 -10  188.18   15.34
   9  -9 -10  233.50   21.15
  -9   9  10  211.27   18.12
   9   0  10  179.31   18.60
  -9   9 -10  195.17   14.18
   9   0  11  128.22   16.36
   9  -9  11  111.87   12.32
   0   9 -11  123.39   11.87
   0   9  11  122.75   14.40
   0  -9 -11  142.87   12.90
   9  -9 -11  127.81   17.39
   0  -9 -11  150.95   14.94
   9   0 -11  125.73   13.21
  -9   9  11  142.29   15.47
   9  -9 -11  128.20   17.07
   9   0 -11  114.74   16.13
   9   0  12   -1.63    8.82
   9  -9  12    6.01    7.81
   0   9  12   14.48    9.52
   9  -9 -12   -1.85    9.05
  -9   9  12   -2.82    9.78
   0   9 -12   11.46    8.49
   9  -9 -12    7.14    9.78
   9   0 -12    1.66    9.48
   9   0  13   99.64   15.66
   9  -9  13   85.18   11.89
   0   9  13   97.14   14.06
   9  -9 -13   98.41   10.28
   9  -9 -13   77.25   15.47
   0   9 -13   93.21   12.10
   9  -9 -13   69.20   14.97
   9   0 -13   86.61   14.77
   9   0  14   94.86   15.24
   9  -9  14  120.09   14.23
   0   9  14   93.18   14.24
   9  -9 -14   91.03   10.56
   9  -9 -14  118.86   16.48
   0   9 -14  111.61   13.34
   9  -9 -14   77.13   15.42
   9   0 -14  113.29   16.61
   9   0  15  283.43   25.43
   0   9  15  253.16   22.82
   0   9 -15  317.13   22.53
   9  -9 -15  329.76   27.66
   9  -9 -15  280.56   26.20
   9   0 -15  329.39   26.59
   0   9 -16   99.56   13.99
   0   9  16   74.52   13.73
   0   9 -17   58.49   12.32
   0   9  17   57.81   13.11
  -1  10   0  353.01   22.69
 -10   9   0  380.65   22.73
 -10   9   0  333.20   19.87
  10  -9   0  374.20   21.49
  -1  10   0  329.61   18.76
  10  -9   0  316.14   15.41
   9   1   0  341.98   23.87
 -10   9   1  180.96   15.59
  -1  10  -1  191.48   16.22
 -10   9  -1  171.52   15.41
  -1  10   1  163.83   15.36
 -10   9  -1  164.05   12.79
 -10   9   1  154.41   13.40
  10  -9  -1  146.83    9.51
  10  -9   1  194.38   15.11
   9   1  -1  192.49   17.66
  10  -9   1  135.53    9.20
   9   1   1  182.91   17.05
  -1  10   1  183.79   13.06
  -1  10  -1  177.53   12.75
  10  -9  -1  174.58   14.77
  10  -9   2    0.82    3.92
  -1  10   2    5.15    5.62
 -10   9   2    3.30    6.84
  -1  10   2   17.75    7.35
  -1  10  -2    1.42    5.08
 -10   9   2    4.95    6.22
 -10   9  -2    2.16    4.33
  -1  10  -2    0.71    5.80
   9   1  -2   11.29    7.51
  10  -9  -2    4.09    5.44
  10  -9   2    8.75    6.18
  10  -9  -2    8.49    3.78
   9   1   2    6.68    5.94
  10  -9   3  219.77   12.41
  -1  10   3  223.27   18.06
 -10   9   3  264.51   18.89
 -10   9  -3  224.54   14.05
 -10   9   3  222.40   17.47
   1 -10  -3  244.84   17.50
  -1  10  -3  258.10   15.86
  -1  10  -3  227.05   15.24
  10  -9   3  224.73   16.37
   9   1  -3  248.42   20.57
  10  -9  -3  215.90   17.05
  10  -9  -3  230.16   12.79
  -1  10   3  238.22   15.75
  -1  10   4    1.56    5.38
  10  -9   4    9.83    4.51
  -1  10   4    1.19    6.23
  -1  10  -4    3.81    5.60
 -10   9  -4    6.63    4.19
   1 -10  -4   -0.95    7.05
   9   1  -4   15.40    4.52
 -10   9   4    6.71    7.18
   9   1  -4    5.79    7.22
   9   1   4   -1.36    8.39
  -1  10  -4    6.14    5.74
  10  -9  -4    7.77    4.27
  10  -9   4    6.55    6.01
  10  -9   5  362.18   17.87
  -1  10   5  359.76   20.43
   1 -10  -5  330.95   21.30
   9   1  -5  372.18   18.52
 -10   9   5  317.00   22.57
 -10   9  -5  357.80   16.96
  -1  10  -5  360.04   20.23
  10  -9   5  408.58   21.97
  10  -9  -5  344.50   17.96
  -1  10  -5  346.02   19.97
   9   1   5  421.55   26.32
  10  -9   6  297.38   16.89
  -1  10   6  337.72   19.90
 -10   9   6  325.67   22.85
   9   1  -6  336.00   17.66
  -1  10  -6  308.32   19.18
 -10   9  -6  327.16   14.66
   1 -10  -6  332.72   21.03
   9   1   6  347.58   24.61
  10  -9   6  328.62   19.93
  10  -9  -6  345.31   21.85
  -1  10  -7  254.41   16.37
  10  -9   7  214.68   14.51
  -1  10   7  227.50   16.30
   9   1  -7  242.87   20.80
  -9  -1  -7  227.79   11.16
  -1  10  -7  231.49   16.67
 -10   9   7  249.54   19.88
   9   1  -7  226.77   14.66
   1 -10  -7  241.15   17.87
   9   1   7  275.50   21.18
  -1  10   8    7.80    6.69
  -1  10  -8    6.80    6.49
   9   1   8   -1.49    7.32
  10  -9   8    2.22    5.81
   9   1  -8   13.38    9.03
  10  -9  -8   10.40    8.49
   9   1  -8    3.05    4.35
   1 -10  -8   -3.30    6.76
 -10   9   8   -4.08    8.26
 -10   9  -8    1.45    5.33
  -1  10   9  220.84   17.45
  10  -9   9  224.36   15.44
   9   1  -9  235.07   20.92
  10  -9  -9  208.27   21.66
 -10   9   9  227.92   20.38
   9   1  -9  225.15   15.63
   1 -10  -9  227.90   17.94
   9   1   9  237.25   20.69
 -10   9  -9  202.77   15.13
   9   1  10   -1.58    8.28
  10  -9  10   11.39    6.89
  -1  10  10   12.16    7.46
   9   1 -10    3.65    5.47
   1 -10 -10    1.23    7.04
 -10   9  10    5.79    7.82
   9   1 -10    6.23    8.16
  10  -9 -10    7.24    9.48
  -1  10  11  203.31   17.85
  10  -9  11  174.88   15.56
   9   1  11  180.91   19.43
  -1  10 -11  219.93   15.57
 -10   9  11  202.37   19.29
   9   1 -11  192.38   15.73
   1 -10 -11  213.87   18.87
   9   1 -11  185.82   20.09
  10  -9 -11  199.23   21.86
  -1  10 -12  126.37   13.59
  -1  10  12  135.50   15.11
   9   1  12  182.40   19.68
 -10   9  12  159.43   17.92
   9   1 -12  152.77   14.64
   1 -10 -12  171.37   17.55
   9   1 -12  162.10   18.19
  10  -9 -12  172.74   20.30
   9   1  13  133.26   17.90
  -1  10  13  137.50   15.42
   1 -10 -13  138.52   16.56
 -10   9  13  128.58   16.30
   9   1 -13  148.00   17.02
  10  -9 -13  132.83   18.82
  -1  10 -13  115.46   13.19
   9   1  14    7.23    9.77
  -1  10  14    6.86    8.33
  10  -9 -14   -4.71    5.86
   1 -10 -14   -6.11    9.71
   9   1 -14   -1.71    9.89
  10  -9 -14    9.91   10.71
  10  -9 -15   75.15   16.63
  -1  10  15   57.49   12.22
  -1  10  16   -6.04    9.78
  -1  10  17  144.54   18.40
  -2  10   0 4676.35  160.09
 -10   8   0 4837.68  157.64
   2 -10   0 4693.91  155.96
  -2  10   0 4549.17  151.41
  10  -8   0 4479.56  151.50
   8   2   0 4661.33  162.07
  10  -8   0 4464.88  156.53
  10  -8   1   16.51    5.65
  -2  10   1   16.45    5.10
 -10   8  -1   27.61    7.90
  -2  10   1   15.07    6.89
 -10   8   1    6.76    5.68
  -2  10  -1    6.38    5.50
  10  -8  -1    1.53    7.37
  -2  10  -1   42.06    5.86
  10  -8  -1   10.41    5.90
  10  -8   1   16.38    6.81
   8   2  -1   26.68    8.57
  10  -8  -1    8.35    4.43
   2 -10  -1   12.33    6.44
   2 -10   1   34.22    7.62
   8   2   1   22.25    8.24
  -2  10   2  194.77   16.88
 -10   8   2  226.83   16.36
  10  -8  -2  232.08   20.24
   2 -10   2  218.03   14.97
  -2  10  -2  190.77   14.53
  10  -8   2  197.17   14.48
  -2  10  -2  232.50   13.29
   8   2   2  201.44   17.77
  -2  10   2  228.70   13.27
  10  -8   2  167.71   12.05
   8   2  -2  216.79   18.86
  10  -8  -2  236.41   16.27
  10  -8  -2  205.62   13.01
  10  -8   3    7.32    4.83
  -2  10   3    4.71    4.37
  -2  10   3    2.38    7.15
 -10   8   3    0.98    6.63
  -2  10  -3    0.83    5.75
  10  -8  -3   12.11    7.93
   2 -10  -3   -2.07    6.72
   8   2  -3    2.77    7.70
  10  -8  -3   -0.61    4.44
  10  -8   3    7.03    5.02
  -2  10  -3    2.86    4.44
   8   2   3    7.73    7.64
   2 -10   3    6.60    4.77
  10  -8   4  151.84   11.74
  -2  10   4  171.75   11.98
  -2  10   4  150.51   14.99
  10  -8  -4  203.87   19.19
   2 -10  -4  198.08   15.90
   2 -10  -4  177.54   14.01
   2 -10   4  199.31   13.94
  -8  -2  -4  158.70    9.75
  -2  10  -4  164.50   13.78
  10  -8   4  192.16   14.16
   8   2   4  164.68   16.59
   8   2  -4  157.96   16.56
  10  -8  -4  165.68   11.89
  -2  10  -4  216.49   12.89
  10  -8   5   -3.45    5.65
  -2  10   5   -1.36    6.13
  -2  10  -5   -4.85    5.67
  10  -8  -5   -4.70    5.96
  -2  10   5    9.73    6.85
   2 -10  -5    1.61    2.63
  -2  10  -5    5.34    6.90
   2 -10  -5   -2.16    6.62
  10  -8  -5   -1.56    9.26
   8   2  -5    1.79    3.74
   8   2   5   -4.01    7.52
   2 -10  -5    4.71    5.44
  10  -8   5    1.65    4.90
  -2  10  -5    5.92    4.76
   2 -10   5    3.17    4.59
  10  -8   6 3318.42  118.60
  -2  10  -6 3544.04  118.05
  -2  10   6 3527.82  119.18
  10  -8  -6 3469.14  118.92
   2 -10  -6 3156.18  114.05
   8   2  -6 3532.88  126.12
  -2  10  -6 3396.99  121.37
 -10   8  -6 3456.07  115.42
 -10   8   6 3525.09  126.45
   2 -10   6 3703.81  120.21
   8   2  -6 3582.15  115.94
   2 -10  -6 3667.09  124.46
  10  -8  -6 3838.27  131.85
  10  -8   6 3665.05  120.44
   8   2   6 3544.55  127.21
   2 -10  -6 3405.87  118.75
  10  -8   7   17.66    6.45
  -2  10   7    7.97    5.49
  -2  10  -7   13.21    5.63
  10  -8  -7    8.58    5.80
   8   2   7    9.85    7.72
   2 -10  -7   17.42    4.73
   8   2  -7   11.61    7.47
  -8  -2  -7   12.90    4.22
   8   2  -7   12.16    4.93
   2 -10  -7    5.74    6.73
  10  -8  -7    9.64    8.68
 -10   8  -7   14.32    3.97
 -10   8   7   14.85    7.92
 -10   8  -7    9.28    6.13
   2 -10  -7   14.45    6.62
  10  -8   7   16.68    5.94
   2 -10   7   10.61    5.32
  10  -8   8  166.19   13.94
  -2  10   8  167.12   13.63
  -2  10  -8  171.58   13.43
   2 -10  -8  160.67   11.90
   8   2  -8  188.23   17.50
  -8  -2  -8  173.83   11.39
 -10   8   8  161.56   17.33
   2 -10   8  203.93   13.74
   8   2  -8  169.70   12.19
   2 -10  -8  201.31   16.87
 -10   8  -8  174.55    8.46
  10  -8  -8  185.89   18.74
   8   2   8  161.14   17.14
 -10   8  -8  177.69   14.21
  -2  10  -9    2.40    5.50
  10  -8   9    0.94    6.27
  -2  10   9    0.94    5.89
   8   2   9   -5.97    8.85
   2 -10  -9    7.43    4.82
   8   2  -9    2.74    7.29
  10  -8  -9   19.52   10.39
  -8  -2  -9   -1.85    4.47
   8   2  -9    0.74    4.47
   2 -10  -9    1.26    7.66
  10  -8  -9   -1.69    9.49
 -10   8   9    1.45    7.36
 -10   8  -9    0.87    5.91
   2 -10   9    2.13    4.57
   2 -10 -10  150.66   13.74
  10  -8  10  176.57   14.83
  -2  10  10  194.27   15.72
   8   2 -10  168.73   17.52
  10  -8 -10  181.14   20.23
   2 -10  10  196.09   13.06
 -10   8  10  185.02   18.58
   2 -10 -10  185.30   17.38
  10  -8 -10  200.31   20.39
   8   2  10  189.49   19.24
   8   2  11   -1.60    8.75
  10  -8  11   -6.50    7.09
  -2  10  11   -5.35    6.57
   8   2 -11   -7.25    8.49
   2 -10 -11    1.90    6.54
  10  -8 -11   -9.24   11.09
   2 -10 -11    5.61    7.68
  10  -8 -11   -1.76    9.53
 -10   8  11   -1.53    8.39
   2 -10  11   -5.30    5.59
  10  -8  12 2147.37   85.48
  -2  10  12 2271.15   85.87
   8   2  12 2413.52   93.02
  -2  10 -12 2225.32   84.34
 -10   8  12 2308.42   91.19
   2 -10 -12 2290.90   90.20
  10  -8 -12 2277.26   93.99
   8   2 -12 2278.48   90.42
  10  -8 -12 2337.64   95.39
  10  -8  13    8.49    7.70
   8   2  13   -1.72    9.16
   2 -10 -13   -1.56    8.77
  10  -8 -13    7.37    9.34
   8   2 -13    1.55    8.37
  10  -8 -13   -1.94    9.36
  -2  10 -13    5.70    7.16
  10  -8  14   55.38   11.54
  -2  10  14   54.49   11.81
   8   2  14   60.61   13.55
   2 -10 -14   63.22   12.97
  10  -8 -14   58.17   14.14
  10  -8 -14   60.07   14.37
  -2  10 -14   77.74   12.03
  10  -8  15   12.32    8.52
  -2  10  15    9.59    8.52
  10  -8 -15   13.38    9.71
  10  -8 -15   14.19   10.62
  -2  10 -15   15.93    8.35
  -2  10 -16  119.71   15.33
  10  -8  16   96.57   14.36
  -2  10  16   72.22   13.09
  -2  10  17    3.05    8.94
  -2  10  18 1298.55   60.33
 -10   7   0 1065.12   43.64
  -3  10   0 1103.27   47.69
   3 -10   0 1097.14   42.86
   3 -10   0 1103.05   43.82
  10  -7   0 1017.17   41.76
  -3  10   0 1007.27   37.64
  -3  10   1  708.53   27.84
 -10   7   1  725.67   33.41
 -10   7  -1  752.94   33.58
  -3  10   1  746.33   36.91
  10  -7  -1  788.18   40.22
   3 -10   1  770.36   32.12
  -3  10  -1  805.99   34.71
   3 -10   1  762.47   33.41
  -3  10  -1  731.74   28.02
  10  -7  -1  685.16   31.60
  10  -7   1  761.43   33.60
  10  -7   1  689.44   31.69
  -3  10   2    0.39    4.66
  10  -7   2    5.73    5.67
   3 -10  -2    3.53    2.50
 -10   7   2   -0.83    8.03
  -3  10   2   16.42    7.83
   7   3   2    1.69    6.77
   3 -10  -2    3.19    2.04
   3 -10   2    4.65    4.81
  -3  10  -2    3.59    7.15
  10  -7  -2   14.17    8.09
   3 -10  -2    3.39    6.70
  10  -7   2    7.54    5.43
   3 -10   2    3.98    4.94
  10  -7  -2    4.19    5.74
  -3  10  -2   -0.76    4.34
  -3  10   3  534.21   21.14
  -3  10  -3  488.26   20.31
   7   3   3  482.48   24.97
   7   3  -3  433.44   17.26
  -3  10   3  540.35   29.09
   3 -10  -3  443.62   18.48
  10  -7  -3  517.94   30.71
   3 -10  -3  521.96   28.31
   3 -10  -3  534.00   25.71
   3 -10   3  535.88   24.96
  -3  10  -3  443.20   24.94
  10  -7  -3  498.96   24.17
  -3  10  -3  563.17   21.23
  10  -7   3  506.90   24.92
  10  -7   3  471.69   23.76
  -3  10   4   42.48    6.06
  -3  10  -4   34.14    5.35
  10  -7   4   48.08    8.01
   7   3   4   36.11    8.02
   3 -10  -4   44.68    5.19
  -3  10   4   46.49    9.53
  -7  -3  -4   34.83    3.63
  -3  10  -4   48.47    8.56
  10  -7  -4   50.03   10.26
   3 -10  -4   43.51    9.22
  -3  10  -4   41.73    5.93
  10  -7   4   56.43    8.09
  10  -7  -4   47.12    7.79
   3 -10   4   66.32    8.10
   3 -10  -4   47.08    8.09
  -3  10   5  688.43   28.14
   7   3   5  694.94   32.18
  -3  10  -5  655.76   26.91
  10  -7   5  662.21   30.67
   7   3  -5  653.34   32.91
  -3  10   5  738.37   35.39
   3 -10  -5  595.27   26.39
  -3  10  -5  629.78   32.14
   7   3  -5  692.44   24.94
   3 -10  -5  711.57   34.96
  10  -7  -5  727.74   37.98
   3 -10  -5  641.00   31.18
   3 -10   5  660.19   30.06
  -7  -3  -5  643.09   25.08
  10  -7   5  710.74   30.49
   7   3   6  651.59   30.88
  -3  10   6  610.33   26.56
  -3  10  -6  590.85   25.30
  10  -7   6  547.67   28.26
   3 -10  -6  545.90   25.13
   7   3  -6  588.82   31.15
   3 -10   6  585.77   27.59
   3 -10  -6  617.13   29.57
   7   3  -6  607.34   23.87
   3 -10  -6  651.30   32.76
  10  -7  -6  628.48   35.01
  10  -7   6  602.94   27.54
   3 -10  -6  597.47   26.43
  10  -7  -7  678.91   31.24
  -3  10   7  690.68   29.65
  -3  10  -7  668.71   28.23
  10  -7   7  683.66   31.74
   3 -10  -7  597.54   28.07
   7   3  -7  648.45   33.39
   3 -10  -7  632.97   31.02
   3 -10   7  615.68   29.30
   7   3  -7  656.05   26.94
   3 -10  -7  689.55   35.06
  10  -7  -7  694.04   37.61
  10  -7   7  722.83   29.81
 -10   7  -7  645.54   31.22
   3 -10  -7  668.45   29.30
  -3  10  -8    1.30    6.25
  10  -7   8    8.77    6.19
  -3  10   8    0.77    5.33
  -7  -3  -8   -1.21    5.36
   7   3  -8   12.95    7.07
   3 -10  -8   10.29    4.91
   3 -10  -8    5.16    7.07
  10  -7  -8    3.11    7.77
 -10   7  -8    9.23    6.51
   3 -10   8    4.97    4.83
   7   3   8    2.30    3.47
  10  -7   8    8.82    4.58
   3 -10  -8    8.45    5.22
  10  -7   9  337.39   21.14
  -3  10  -9  302.36   17.99
  -3  10   9  269.15   18.37
  10  -7  -9  329.24   26.29
  -7  -3  -9  350.16   18.52
   7   3  -9  327.83   22.47
   3 -10  -9  308.75   18.91
   3 -10   9  353.30   18.27
   3 -10  -9  321.86   22.79
  10  -7  -9  362.86   25.86
   7   3   9  290.87   12.13
  -3  10  10   11.93    6.59
  10  -7  10    9.97    6.58
  -3  10 -10   10.24    5.98
  -7  -3 -10   22.84    6.62
   7   3 -10   12.70    8.41
   3 -10 -10    4.66    5.54
  10  -7 -10   -1.82    9.37
   3 -10 -10   17.11    8.46
  10  -7 -10   16.36    8.44
   3 -10  10   10.02    4.76
  10  -7  11  189.92   17.10
  -3  10  11  189.74   15.88
   3 -10  11  215.45   13.55
 -10   7  11  233.93   20.76
   3 -10 -11  198.73   19.25
  10  -7 -11  216.47   20.79
  -7  -3 -11  184.55   14.67
   7   3 -11  267.03   19.96
   3 -10 -11  195.00   16.42
  10  -7 -11  193.79   21.08
  10  -7  12  508.74   29.42
  -3  10  12  502.96   27.63
   3 -10 -12  525.80   28.58
  10  -7 -12  485.25   34.55
   3 -10  12  509.89   23.47
  10  -7 -12  472.23   32.25
   3 -10 -12  505.39   32.14
  10  -7  13  357.41   25.59
  -3  10  13  376.44   24.72
   3 -10 -13  378.40   25.20
  10  -7 -13  417.88   31.13
   3 -10  13  428.77   20.39
   3 -10 -13  458.57   29.98
  10  -7 -13  406.10   29.47
   3 -10 -13  480.16   24.65
  -3  10  14    1.24    7.48
  10  -7  14   19.45    9.11
  -3  10 -14   21.10    9.15
  10  -7 -14   15.96   10.94
   3 -10 -14   15.89    8.51
   3 -10 -14    8.52    8.21
  10  -7 -14   21.51    9.25
 -10   7  14   25.52   11.37
   3 -10 -14   22.09    7.13
   3 -10  14    9.63    4.89
  10  -7  15  124.71   16.12
  -3  10  15  147.14   16.55
  10  -7 -15  154.56   18.44
 -10   7  15  152.82   18.82
  10  -7 -15  119.06   18.51
   3 -10 -15  107.56   15.14
  -3  10 -15  152.13   16.93
  -3  10 -16   25.88    9.58
  10  -7  16   19.85   10.02
  -3  10  16   16.88    9.23
   7   3 -17  187.81   20.83
  -3  10 -17  199.06   20.60
  10  -7  17  179.71   19.78
  -3  10  17  199.41   19.09
  -3  10 -18  186.45   21.02
  -3  10  18  179.39   19.46
  10  -7  18  182.34   20.29
  -3  10 -19  196.69   21.50
   4 -10   0  468.86   20.05
 -10   6   0  479.41   23.79
  -4  10   0  467.90   27.87
   4 -10   0  487.84   24.65
  -4  10   0  488.05   26.29
   4 -10   0  509.10   24.59
  10  -6   0  453.51   24.45
   6   4   0  547.47   29.57
   4 -10   1  128.21    8.92
   6   4   1  168.10   12.56
 -10   6   1  131.90   11.82
  -4  10   1  154.96   15.33
   4 -10  -1  124.07    9.59
 -10   6  -1  144.97   12.01
  10  -6  -1  178.73   16.82
   4 -10  -1  165.75   15.85
   4 -10   1  158.96   12.98
  -4  10  -1  192.76   14.84
   4 -10   1  157.24   12.32
   4 -10  -1  154.56   13.16
   6   4  -1  153.35   16.35
   6   4   1  152.02   15.58
  10  -6   1  126.59   12.18
  10  -6  -1  128.28   12.34
   6   4   2  411.55   20.35
  -4  10   2  308.13   13.11
   4 -10   2  366.01   16.21
   6   4  -2  355.91   15.39
 -10   6  -2  414.36   20.19
   4 -10  -2  389.33   17.21
  -4  10   2  425.66   24.61
  10  -6  -2  400.85   25.25
   4 -10  -2  415.73   24.95
   4 -10   2  395.79   20.54
  -4  10  -2  366.87   22.27
   4 -10   2  434.58   19.76
  10  -6  -2  373.49   20.69
   6   4   2  365.49   23.84
   6   4  -2  379.40   25.51
  -4  10  -2  336.79   12.64
  10  -6   2  385.49   21.02
  -4  10  -3   62.88    5.58
  -4  10   3   68.38    6.14
  10  -6   3   62.77    9.85
   6   4   3   53.09    9.65
  -4  10   3  105.24   13.32
   4 -10   3   48.76    6.86
   6   4  -3   67.11    6.57
   4 -10  -3   98.85    9.21
   4 -10   3   79.66   10.01
  -4  10  -3   61.07   11.15
   4 -10   3   58.90    8.78
  10  -6  -3   57.65   12.56
   4 -10  -3   72.71   12.38
   4 -10  -3   89.79   11.14
   6   4  -3   84.08   13.02
  -4  10  -3   65.16    5.47
   6   4   3   64.42   11.68
  10  -6  -3  104.30   11.28
  10  -6   3   68.44    9.12
  -4  10  -4  295.76   12.91
  -4  10   4  281.17   13.46
   6   4   4  300.46   17.80
  -4  10   4  312.84   21.10
   4 -10   4  272.88   14.80
   6   4  -4  288.82   18.25
   4 -10  -4  321.83   22.22
  10  -6  -4  324.75   22.66
   4 -10   4  268.40   17.06
   4 -10  -4  296.33   18.20
   4 -10   4  278.85   15.48
   6   4   4  279.48   20.61
  -4  10  -4  289.25   13.00
  10  -6   4  288.24   18.26
  10  -6   4  304.26   17.19
  -4  10  -5  220.59   11.51
   6   4   5  234.05   15.79
  -4  10   5  218.81   11.94
  -4  10   5  211.69   17.90
   4 -10   5  213.12   13.10
   6   4  -5  250.83   16.90
   4 -10  -5  233.13   18.65
  10  -6  -5  264.20   20.33
  -6  -4  -5  199.86    9.54
   4 -10   5  232.13   14.96
   4 -10  -5  246.78   16.32
   4 -10   5  226.19   12.93
   6   4  -5  215.55    9.07
   6   4   5  228.34   18.36
  10  -6   5  232.33   14.30
  10  -6   5  227.74   16.17
  -4  10  -6  198.84   11.65
  -4  10   6  200.38   12.18
   6   4   6  213.66   15.66
   6   4  -6  227.90   16.49
   4 -10   6  193.33   13.18
   4 -10  -6  192.04   14.76
   4 -10   6  205.82   14.31
   6   4  -6  186.65   10.00
   4 -10   6  194.38   11.61
   4 -10  -6  193.00   17.77
  10  -6  -6  202.06   18.35
  10  -6   6  197.70   15.81
  10  -6   6  236.10   14.16
   4 -10  -6  208.65   15.96
   6   4   6  230.83   19.05
 -10   6  -6  164.24   14.72
   4 -10  -6  209.74   12.36
  -4  10  -7  133.44   10.58
   6   4   7  161.00   13.90
  -4  10   7  186.28   11.95
  10  -6   7  142.67   13.74
   6   4  -7  165.96   14.36
   4 -10   7  125.93   11.52
   4 -10  -7  165.78   13.52
   4 -10   7  163.33   12.41
   6   4  -7  145.77   10.42
   4 -10   7  141.78    9.45
   4 -10  -7  138.97   15.19
  10  -6  -7  184.37   17.98
  10  -6   7  156.55   11.13
 -10   6  -7  129.83   13.32
   6   4   7  140.40   15.15
   4 -10  -7  156.31   13.70
   4 -10  -7  146.66   11.06
  -4  10  -8  204.69   13.46
   6   4   8  204.67   16.49
  -4  10   8  205.87   14.17
  10  -6   8  229.50   17.42
   6   4  -8  255.49   18.07
  -6  -4  -8  203.43   14.30
   4 -10   8  231.93   15.65
   4 -10   8  223.11   14.73
   4 -10  -8  221.36   15.94
   4 -10  -8  271.09   20.98
   6   4  -8  222.66   12.75
  10  -6  -8  230.68   20.11
   6   4   8  208.93   10.78
  10  -6   8  232.56   13.52
   4 -10  -8  211.70   16.49
   6   4   8  222.71   19.20
  10  -6   9   40.85   10.80
  -4  10   9   55.34   10.83
  -4  10  -9    9.23    7.81
   6   4   9   55.84   12.86
   6   4  -9   33.09   10.35
  -6  -4  -9   52.03    9.61
   4 -10  -9   54.13   10.64
  10  -6  -9   88.32   17.13
   4 -10  -9   48.95   12.00
  10  -6  -9   73.98   13.55
   6   4   9   39.10    4.64
   4 -10  -9   27.97    9.21
   4 -10   9   35.99    7.85
   4 -10  -9   66.54   10.14
  10  -6  10  166.41   16.12
  -4  10 -10  152.01   12.84
  -4  10  10  165.20   13.80
  -6  -4 -10  164.61   13.82
   4 -10 -10  136.88   14.25
  10  -6 -10  195.54   21.09
   4 -10 -10  177.09   14.50
   4 -10  10  192.33   12.82
   4 -10 -10  186.00   18.24
  10  -6 -10  217.21   19.91
   4 -10 -10  191.38   15.20
   6   4  10  157.27   17.34
   6   4  11   50.86   11.42
  10  -6  11   29.18    9.58
  -4  10 -11   30.29    7.41
  -4  10  11   42.53    8.91
  10  -6 -11   57.03   13.49
   4 -10 -11   40.39    9.35
   4 -10 -11   61.61   12.24
  10  -6 -11   86.08   14.00
   4 -10 -11   48.30    8.71
   4 -10  11   49.87    7.08
   4 -10 -11   51.59    9.00
  10  -6  12  191.03   17.97
   6   4  12  174.49   18.68
  -4  10  12  166.62   15.30
  10  -6 -12  202.92   21.54
   4 -10 -12  142.61   15.59
   4 -10  12  174.05   12.26
   4 -10 -12  163.67   18.27
  10  -6 -12  174.40   18.77
   4 -10 -12  175.90   14.97
   6   4  13  121.90   15.95
  -4  10  13  106.59   13.28
  10  -6  13  122.35   15.53
  10  -6 -13  132.54   18.48
   4 -10 -13  132.64   14.83
   4 -10 -13  135.59   17.42
  10  -6 -13  133.62   16.98
   4 -10  13  122.16   10.31
   4 -10 -13  135.00   13.20
  -4  10  14  168.41   16.81
  10  -6  14  195.50   19.19
   6   4  14  176.46   20.45
  10  -6 -14  148.45   20.22
   4 -10 -14  196.48   19.17
 -10   6  14  178.85   20.45
   4 -10  14  210.24   12.83
   4 -10 -14  211.13   21.25
  10  -6 -14  185.54   19.69
   4 -10 -14  212.93   16.60
   6   4  15   36.13   13.11
  -4  10  15   14.30   10.55
  10  -6  15   33.00   11.96
  10  -6 -15   44.22   15.04
   4 -10 -15   35.49   12.52
   6   4 -15   31.57   12.28
   4 -10 -15   38.18   13.19
  10  -6 -15   40.64   12.18
 -10   6  15   50.72   14.27
   4 -10 -15   32.00    9.13
  -4  10  16  150.91   16.34
  10  -6  16  112.00   16.46
  10  -6 -16  141.87   18.26
   4 -10 -16  142.92   17.17
   6   4 -16  104.32   16.56
  -4  10 -16  108.99   15.57
   4 -10 -17   68.18   13.95
   6   4 -17   41.62   12.43
  -4  10 -17   28.89   11.98
  10  -6  17   69.77   14.53
  -4  10  17   49.84   11.62
   6   4 -18  120.62   18.16
  -4  10 -18  130.86   18.76
  10  -6  18  121.20   17.52
  -4  10  18  133.92   17.15
  -4  10 -19   52.83   14.58
  -4  10  19   36.92   12.60
   5   5   0  357.53   17.67
 -10   5   0  362.07   17.60
   5   5   0  296.43   16.16
  -5  10   0  342.12   22.98
   5 -10   0  334.80   19.05
  10  -5   0  335.93   20.90
   5   5   0  335.25   23.06
   5 -10   1  694.54   29.67
   5   5   1  713.89   29.59
 -10   5  -1  706.70   29.61
   5   5  -1  653.26   28.41
  -5  10   1  769.83   36.70
   5 -10   1  705.09   32.30
   5 -10   1  778.43   31.83
   5 -10  -1  756.57   32.67
   5 -10  -1  778.40   38.03
  10  -5  -1  712.23   36.59
   5   5   1  740.13   36.33
  10  -5   1  713.05   33.56
  10  -5  -1  683.32   33.17
   5   5  -1  716.22   36.59
   5 -10   2  495.48   24.05
   5   5   2  522.00   24.32
 -10   5  -2  529.14   24.21
   5   5  -2  512.40   23.04
  -5  10   2  547.82   30.23
   5 -10   2  550.72   25.23
   5 -10  -2  562.06   31.45
  10  -5  -2  583.63   31.29
   5 -10  -2  559.66   26.96
   5 -10  -2  591.14   27.96
   5 -10   2  584.57   27.34
   5   5   2  569.74   30.26
  10  -5  -2  550.17   28.45
  10  -5   2  570.48   28.37
   5   5  -2  540.80   31.03
   5   5   3 2200.44   76.50
   5 -10   3 2047.34   75.86
  -5  10   3 2288.32   84.28
   5 -10  -3 2027.99   77.25
   5   5  -3 2188.95   77.05
   5 -10  -3 2290.53   85.42
  10  -5  -3 2149.79   83.59
   5 -10   3 2124.79   75.99
   5 -10  -3 2321.28   79.58
   5 -10  -3 2247.79   82.00
   5   5   3 2151.82   83.07
   5   5  -3 2226.87   84.72
  10  -5  -3 2172.54   80.64
  10  -5   3 2169.10   80.41
   5 -10   4  629.25   27.21
   5   5   4  613.47   27.03
  -5  10   4  586.96   31.94
   5 -10  -4  557.74   27.57
   5   5  -4  569.25   27.29
   5 -10  -4  618.55   33.37
  10  -5  -4  596.27   32.60
   5 -10   4  591.13   25.49
   5 -10  -4  578.90   28.19
   5 -10  -4  624.49   30.78
  10  -5   4  586.00   29.88
   5   5   4  627.21   32.56
  10  -5   4  627.37   27.32
   5 -10   5  357.97   19.15
   5   5   5  375.65   19.51
  -5  10   5  367.38   23.71
   5 -10  -5  366.33   20.56
   5   5  -5  405.42   20.45
  10  -5  -5  412.42   25.21
   5 -10   5  386.67   17.47
   5 -10  -5  399.70   21.05
  -5  -5  -5  314.85   13.04
   5 -10  -5  403.42   25.31
   5   5   5  378.16   23.71
   5 -10  -5  429.88   23.20
   5 -10  -5  351.14   15.03
  10  -5   5  373.74   22.29
  -5  10  -5  358.84   14.24
  10  -5   5  395.50   19.14
   5   5   6  386.97   20.39
   5 -10   6  349.43   19.62
  -5  10  -6  370.92   15.86
   5 -10  -6  337.02   20.18
   5   5  -6  392.37   20.88
   5 -10   6  335.55   16.37
   5   5  -6  326.31   17.66
   5 -10  -6  378.50   21.03
   5 -10  -6  370.51   24.69
  10  -5  -6  387.94   24.71
  10  -5   6  367.85   18.26
   5 -10  -6  405.93   22.70
   5   5   6  370.70   17.31
   5   5   6  358.04   23.96
  10  -5   6  365.16   22.20
   5 -10  -6  302.13   15.68
  -5  10   7  710.09   28.63
  -5  10  -7  729.03   28.20
   5 -10  -7  667.54   32.69
   5   5  -7  729.45   33.11
   5 -10   7  703.63   32.12
   5   5   7  699.45   32.08
   5   5  -7  707.96   29.09
   5 -10  -7  726.80   32.98
   5 -10  -7  800.55   39.30
  10  -5  -7  823.58   39.02
  10  -5   7  745.90   29.67
   5 -10  -7  667.45   28.36
   5   5   7  695.96   27.77
   5 -10  -7  737.16   34.70
   5   5   7  688.41   36.53
  10  -5   7  767.02   35.82
  -5  10   8  395.47   19.06
  10  -5   8  380.34   23.79
  -5  10  -8  378.71   18.34
  -5  -5  -8  374.56   20.89
   5 -10   8  378.79   21.63
   5   5   8  381.97   21.66
   5 -10  -8  391.65   21.49
   5   5  -8  356.70   17.69
   5 -10  -8  412.79   26.68
  10  -5  -8  401.66   26.14
  10  -5   8  392.51   18.16
   5 -10  -8  408.90   23.24
   5   5   8  365.13   16.40
   5   5   8  339.17   24.70
  -5  10   9 1536.86   57.66
  10  -5   9 1495.06   63.45
  -5  10  -9 1637.33   57.20
  10  -5  -9 1563.65   70.00
  10  -5  -9 1508.60   58.48
  -5  -5  -9 1639.49   60.28
   5 -10   9 1553.72   60.77
   5   5   9 1584.61   61.11
   5 -10  -9 1515.91   59.93
   5   5  -9 1525.96   55.18
   5 -10  -9 1490.98   66.75
  10  -5  -9 1671.69   67.38
   5 -10  -9 1755.57   63.40
  10  -5   9 1546.84   54.99
   5   5   9 1535.25   66.13
   5   5   9 1490.89   52.79
  -5  10  10  353.45   20.39
   5   5  10  381.08   26.32
  -5  10 -10  386.20   20.09
  10  -5  10  351.54   24.22
  10  -5 -10  370.21   28.87
   5 -10 -10  405.84   22.28
   5 -10 -10  391.52   27.13
  10  -5 -10  419.50   26.85
   5 -10 -10  395.87   23.38
  -5  10  11  365.63   21.59
   5   5  11  416.18   27.97
  -5  10 -11  377.49   21.05
  10  -5  11  335.76   24.87
  10  -5 -11  391.91   29.44
   5 -10 -11  406.84   22.81
   5 -10 -11  433.74   29.07
  10  -5 -11  408.73   27.34
   5 -10  11  429.65   21.19
   5 -10 -11  458.74   24.98
  -5  10  12  184.52   15.41
  10  -5  12  141.14   16.60
   5   5  12  173.03   18.86
  10  -5 -12  175.02   20.60
   5   5 -12  185.53   17.18
   5 -10 -12  154.74   17.13
   5 -10  12  180.63   12.57
   5 -10 -12  187.30   19.66
  10  -5 -12  167.27   18.39
   5 -10 -12  188.36   14.66
   5 -10 -12  165.10   15.23
  10  -5  13  209.13   19.83
  -5  10  13  171.29   15.88
   5   5  13  224.67   21.43
  10  -5 -13  214.48   21.78
   5   5 -13  200.04   18.78
   5 -10 -13  172.67   17.92
   5 -10  13  213.94   13.57
   5 -10 -13  235.97   16.28
   5 -10 -13  187.25   20.28
  10  -5 -13  180.43   19.14
   5 -10 -13  224.68   17.55
   5   5  14  339.01   25.88
  10  -5  14  218.17   21.35
  -5  10  14  245.57   19.54
  10  -5 -14  261.68   24.93
   5   5 -14  260.77   21.74
   5 -10 -14  258.33   22.29
   5 -10  14  300.87   16.15
   5 -10 -14  335.64   26.01
  10  -5 -14  222.00   21.72
   5 -10 -14  263.33   19.25
   5   5  15  877.27   47.60
  10  -5  15  809.21   44.98
  -5  10  15  886.68   42.46
  10  -5 -15  813.97   48.15
   5   5 -15  957.28   46.00
   5 -10 -15  866.55   45.82
   5 -10  15  864.20   35.08
   5 -10 -15  810.17   46.89
  10  -5 -15  879.56   46.66
   5 -10 -15  964.72   42.10
   5   5  16  199.72   21.86
  10  -5  16  171.28   20.03
   5   5 -16  231.58   21.30
   5 -10 -16  227.74   21.85
   5 -10 -16  199.98   22.05
  10  -5 -16  198.22   21.29
   5 -10 -16  214.03   17.56
   5 -10 -17  172.32   20.26
   5   5 -17  198.63   20.80
  10  -5  17  164.71   19.98
   5   5 -18  146.18   19.10
   5 -10 -18  118.68   17.65
   5   5 -19  205.78   22.22
   4   6   0  693.71   26.68
   4   6   0  658.19   29.22
 -10   4   0  707.45   33.69
   6 -10   0  735.93   34.37
   4   6   0  704.44   34.73
  10  -4   0  698.06   33.70
   4   6  -1   80.86    6.81
   4   6   1   78.02    6.84
 -10   4  -1  100.79    7.18
   4   6   1   83.94    8.37
   4   6  -1   83.06    7.14
   4   6  -1   95.23    8.81
 -10   4  -1   84.58   10.73
   6 -10  -1   86.29   12.65
  10  -4   1   70.15   10.21
   4   6   1  111.06   12.15
   4   6  -1   88.01   11.38
  10  -4  -1   75.68   10.33
   6 -10  -1   87.54   10.96
   4   6   2    4.06    4.13
   4   6  -2   -0.44    4.14
 -10   4  -2    0.40    4.06
   4   6  -2    4.97    4.49
   6 -10   2   -1.48    6.76
 -10   4  -2    8.16    6.81
   6 -10  -2   13.85    7.70
  10  -4  -2    3.41    6.23
  10  -4  -2   -1.03    6.41
   4   6  -2    1.16    6.15
   4   6   2   11.85    6.92
   6 -10  -2    2.03    6.30
  10  -4   2    3.98    6.26
   6 -10   3 1860.24   70.61
   4   6   3 1928.77   67.15
   4   6  -3 1932.21   67.45
   6 -10  -3 2038.26   79.23
  10  -4  -3 1988.09   75.91
   6 -10  -3 2073.12   75.25
   4   6   3 1877.25   75.01
  10  -4  -3 2034.95   75.34
  10  -4   3 1935.48   74.32
   4   6  -3 1962.52   76.60
   6 -10   4   57.36    8.72
   4   6   4   63.16    7.12
   6 -10  -4   61.37    9.57
   6 -10  -4   64.31    8.56
   6 -10  -4   57.10   11.35
  10  -4  -4   61.50   10.09
   4   6   4   70.56   10.57
  10  -4   4   69.83   10.33
   6 -10  -4   69.33    9.88
   6 -10   5  114.21   11.71
   4   6   5  126.87    9.84
   6 -10  -5  133.94   12.97
   6 -10  -5  144.78   15.61
  10  -4  -5  131.98   14.07
   6 -10  -5  165.55   12.60
  -4  -6  -5  133.75    6.72
   4   6  -5  127.17    6.19
   6 -10  -5  126.84   12.79
   4   6   5  133.93   14.02
   4   6   5  128.34    9.74
  10  -4   5  132.11   13.71
   6 -10  -5  108.21    6.19
   6 -10   6  789.60   35.85
   6 -10  -6  826.11   38.08
   4   6   6  846.07   33.80
   6 -10  -6  885.19   36.50
   4   6  -6  812.26   32.71
  -4  -6  -6  758.08   30.07
  10  -4  -6  915.79   40.58
   6 -10  -6  880.17   42.63
  10  -4   6  844.50   39.24
   6 -10  -6  879.03   38.71
   6 -10  -6  782.55   29.56
   4   6   6  785.77   31.90
  -6  10  -6  793.24   28.67
   4   6   6  825.09   39.71
  10  -4   6  847.57   32.88
   6 -10   7  152.30   13.52
   6 -10  -7  163.19   14.65
   4   6   7  168.87   12.51
   6 -10  -7  168.00   12.95
   4   6  -7  170.32   11.16
  10  -4  -7  169.28   16.07
   6 -10  -7  178.96   17.60
  10  -4   7  172.76   10.55
   4   6   7  146.51   10.05
   6 -10  -7  150.43   13.81
   4   6   7  175.60   16.35
  -6  10  -7  155.88    9.46
  10  -4   7  159.24   15.31
  10  -4   8   43.16    9.82
  -6  10  -8   59.79    6.76
   4   6   8   43.58   10.85
   6 -10  -8   63.18   10.20
   6 -10   8   41.54    9.39
   4   6   8   36.53    7.54
  10  -4  -8   42.30    6.97
  10  -4  -8   80.00   11.63
   6 -10  -8   67.60   11.84
   4   6  -8   42.47    6.12
   4   6   8   50.35    5.65
  10  -4   8   54.19    5.96
   6 -10  -8   51.12    9.12
   6 -10  -8   57.15    8.13
  10  -4   9 1708.56   69.82
   6 -10  -9 1681.79   68.35
   4   6  -9 1781.40   65.78
   4   6   9 1695.40   64.64
   4   6  -9 1543.01   59.62
   6 -10  -9 1767.36   65.44
  10  -4  -9 1883.63   71.92
   6 -10  -9 1798.94   74.07
   6 -10  -9 1792.83   68.21
  10  -4   9 1729.59   58.93
  -6  10  -9 1704.50   61.31
   4   6   9 1776.02   71.44
   4   6   9 1708.47   58.86
  -6  10 -10    1.33    4.97
   4   6  10    4.29    7.83
  10  -4  10   -1.35    7.93
   4   6 -10   -0.99    5.86
  10  -4 -10    1.39    7.50
   6 -10 -10   13.27    6.70
   6 -10 -10    1.10    6.22
   6 -10 -10   -0.88    5.88
  -6  10 -11   30.67    6.87
   4   6  11   29.99   10.07
  10  -4  11   38.00   10.40
   4   6 -11   19.29    8.07
  10  -4 -11   30.03    9.88
   6 -10 -11   31.05   10.28
   6 -10 -11   43.79    8.32
   6 -10 -11   42.00    7.54
   4   6  12  498.24   31.90
  10  -4  12  457.33   30.02
   4   6 -12  487.29   28.03
   6 -10 -12  504.29   25.70
  10  -4 -12  475.81   30.36
   6 -10 -12  484.42   32.80
   6 -10 -12  536.12   28.60
   4   6  13   91.36   14.75
  10  -4  13   58.67   12.26
   4   6 -13   57.17   10.44
  10  -4 -13   44.17   11.42
   6 -10 -13   67.96   14.14
   6 -10 -13   45.21    9.40
   6 -10 -13   52.25    8.80
   4   6  14   -3.39    9.02
  10  -4  14    6.48    9.00
   4   6 -14   -1.32    7.70
  10  -4 -14   -6.30   10.11
   6 -10 -14    7.54   10.18
   6 -10 -14    1.18    6.46
   6 -10 -14   -6.27    6.10
   4   6  15  980.79   51.05
  10  -4  15  892.83   48.62
  -4  -6 -15  921.44   48.69
   4   6 -15 1069.26   48.90
   6 -10 -15  955.85   50.00
   6 -10 -15 1003.38   42.21
  10  -4 -15  956.97   48.96
   6 -10 -15  956.65   51.85
   6 -10 -15 1087.70   46.62
   4   6  16   42.33   13.13
  10  -4  16   23.11   11.79
   4   6 -16   33.12   10.38
   6 -10 -16   28.16   11.90
  -4  -6 -16   22.41   10.63
   6 -10 -16   15.63   10.43
   6 -10 -16   45.08   10.01
   4   6 -17   17.59    9.73
   6 -10 -17   29.51   11.60
  -4  -6 -17   -3.66   13.35
  10  -4  17   14.77   10.82
   6 -10 -17   22.17    8.40
   6 -10 -18  220.51   23.96
   4   6 -18  276.07   24.42
   4   6 -19   39.07   13.21
   3   7   0   60.69    7.81
  -7  10   0   74.02   10.98
 -10   3   0   39.41    8.01
  10  -3   0   33.58    8.81
   3   7   0   37.53    8.76
   3   7  -1   37.36    6.88
  -7  10   1   50.78    9.50
   3   7   1   47.05    7.28
 -10   3  -1   57.47    8.96
   7 -10  -1   36.93   10.41
  10  -3   1   37.99    8.81
   3   7   1   46.39    9.26
  10  -3  -1   32.95    8.68
   7 -10  -1   50.99    8.61
   3   7  -1   35.41    8.24
   3   7   2   12.12    5.54
  -7  10   2   10.69    6.88
   7 -10   2   19.33    6.92
 -10   3  -2   13.13    6.63
   7 -10  -2   23.50    9.24
  10  -3  -2   19.02    7.27
  10  -3  -2    5.67    6.58
   3   7  -2   18.37    7.02
  10  -3   2   17.25    7.28
   7 -10  -2   12.31    6.03
   3   7   2   15.61    7.03
   7 -10   3  541.73   25.95
  -7  10   3  503.16   28.29
   3   7  -3  442.51   17.46
 -10   3  -3  458.83   17.86
   7 -10  -3  520.78   30.80
  10  -3  -3  488.76   26.66
 -10   3  -3  456.86   25.53
   7 -10  -3  496.50   26.44
   3   7   3  447.11   22.44
  10  -3   3  446.36   26.35
  10  -3  -3  474.36   27.32
   3   7  -3  500.33   27.29
   3   7   3  520.23   27.26
   7 -10   4   85.91   10.98
  -7  10   4   88.60   12.16
   3   7  -4   87.31    6.30
 -10   3  -4   68.48   10.29
   7 -10  -4   87.17   13.62
  10  -3  -4   76.47   10.98
   3   7  -4   93.24    4.95
   3   7  -4   67.21   10.80
   3   7   4   86.66    8.71
   7 -10  -4   93.90   11.23
   3   7   4   92.68   11.88
  10  -3   4  113.93   13.04
  10  -3   5   30.52    8.56
   3   7   5   36.71    9.32
   7 -10   5   45.06    8.45
  -7  10   5   43.45    9.68
   3   7  -5   34.00    5.07
   7 -10  -5   44.15    9.19
   3   7  -5   35.00    4.38
  -3  -7  -5   45.45    5.02
 -10   3  -5   21.39    7.99
   7 -10  -5   28.60    9.20
  10  -3  -5   47.23    9.06
   7 -10  -5   47.41    8.51
   3   7   5   27.48    5.84
   7 -10  -5   28.29    2.70
  10  -3   6   -3.62    6.99
   3   7   6   -3.57    7.63
   7 -10   6   -0.98    6.01
   3   7  -6    0.50    3.73
   7 -10  -6   -1.20    6.68
  -3  -7  -6    0.47    3.68
  10  -3  -6    2.19    5.92
   7 -10  -6    3.05    6.77
   3   7  -6   -1.65    3.38
  -7  10  -6   -0.84    2.59
   7 -10  -6   -2.14    5.33
   3   7   6   -2.84    3.90
  10  -3   7   10.12    7.34
   3   7   7   18.45    8.07
   7 -10  -7   26.19    8.10
   3   7  -7    9.97    4.67
   7 -10  -7   16.34    5.60
  -3  -7  -7   23.04    4.91
  10  -3  -7   19.56    7.01
   7 -10  -7    6.24    6.80
  10  -3   7   22.14    4.47
   3   7   7   21.99    4.92
   7 -10  -7   11.84    6.25
  -7  10  -7   15.99    3.79
   3   7   8   16.69    8.76
  10  -3   8   28.82    9.10
   7 -10  -8   14.23    8.06
   3   7  -8   10.19    5.45
  10  -3  -8   19.17    6.41
   7 -10  -8   33.80   10.35
   7 -10  -8   19.78    6.93
  -7  10  -8   19.85    4.56
   3   7   8   29.65    5.10
  10  -3   8   24.98    4.12
   7 -10  -8   10.92    5.93
   3   7   9  312.94   23.01
  10  -3  -9  319.30   25.95
   7 -10  -9  291.71   22.17
   3   7  -9  313.03   18.26
   7 -10  -9  290.11   18.52
  10  -3  -9  296.61   21.80
   7 -10  -9  333.74   25.21
   7 -10  -9  324.80   21.19
  10  -3   9  314.71   13.68
  -7  10  -9  288.10   16.16
  10  -3   9  282.53   22.20
   3   7   9  303.49   15.12
  10  -3  10   43.78   10.77
   3   7  10   37.93   10.06
  -7  10 -10   46.11    7.09
   7 -10 -10   26.37    9.07
   3   7 -10   43.34    8.03
  10  -3 -10   46.34   12.52
  10  -3 -10   24.81    8.20
   7 -10 -10   48.38   11.15
   7 -10 -10   40.25    8.87
   7 -10 -10   31.02    7.41
  10  -3  11   13.32    8.68
   3   7  11   11.65    8.54
   7 -10 -11   17.36    9.76
   3   7 -11   19.21    6.55
  10  -3 -11    5.42    8.70
  10  -3 -11   14.85    8.58
   7 -10 -11   14.28    9.07
   7 -10 -11   13.62    6.66
   7 -10 -11   13.15    5.76
  10  -3  12   21.51    9.89
   3   7  12   36.71   10.34
  10  -3 -12   29.82   11.08
   3   7 -12   38.15    8.92
  10  -3 -12   28.05    9.03
   7 -10 -12    7.37    9.98
   7 -10 -12   16.24    6.92
   7 -10 -12   27.22    7.04
  10  -3  13   19.30    9.23
   3   7  13   25.42    9.80
  10  -3 -13   35.76   11.60
   3   7 -13   28.96    7.94
  -3  -7 -13   47.30   10.58
  10  -3 -13   18.89    8.87
   7 -10 -13   33.96   11.63
   7 -10 -13   27.21    8.67
   7 -10 -13   30.29    7.09
  10  -3  14   11.70    9.92
   3   7  14    3.33    9.39
  10  -3 -14   -1.93    9.65
   3   7 -14   -1.25    7.88
  -3  -7 -14   17.08    9.51
  10  -3 -14   15.07    8.72
   7 -10 -14    3.86    9.63
   7 -10 -14   12.09    7.84
   7 -10 -14    8.69    5.58
   3   7  15  173.55   19.66
  10  -3  15  162.30   19.22
   3   7 -15  154.53   16.83
  10  -3 -15  191.70   21.93
  -3  -7 -15  153.08   17.78
  10  -3 -15  151.70   17.55
   7 -10 -15  159.67   20.20
   7 -10 -15  149.41   13.70
   7 -10 -15  159.00   16.22
   3   7 -16   15.79    9.22
  10  -3  16   16.33   10.64
   3   7  16   16.36   10.52
   7 -10 -16   21.33    8.63
   7 -10 -16    5.96    6.02
   3   7 -17   -1.52    9.34
   7 -10 -17   13.55   11.20
   7 -10 -17   -1.27    7.56
   3   7 -18    9.65   10.44
   7 -10 -18   20.62    9.34
   3   7 -19   25.51   11.06
   2   8   0   56.10   10.16
  -8  10   0   84.45   13.66
   2   8   0   75.23   11.73
  10  -2   0  105.44   12.97
   2   8   1  156.75   13.53
   2   8  -1  136.97   13.06
  -8  10   1  139.20   14.57
   8 -10  -1  173.96   18.17
 -10   2  -1  124.64   12.19
  10  -2   1  161.38   15.54
   8 -10   1  171.16   14.33
   2   8   1  133.22   13.00
  10  -2  -1  138.15   14.66
   2   8  -1  141.22   13.62
  -8  10   2  361.16   23.96
   2   8   2  383.18   21.88
   8 -10  -2  325.15   25.45
 -10   2  -2  404.35   21.99
  10  -2  -2  329.80   23.58
   8 -10  -2  399.13   23.05
   8 -10   2  380.86   22.65
  10  -2   2  362.67   23.97
   2   8   2  380.59   23.01
   2   8  -2  394.64   22.89
   8 -10   3 1023.49   45.13
  -8  10   3 1029.38   47.35
   2   8   3  989.91   43.35
   8 -10  -3 1056.50   51.03
  10  -2  -3 1128.89   45.45
 -10   2  -3  898.68   42.42
   8 -10  -3 1120.87   46.38
   8 -10   3 1083.41   45.82
  10  -2   3 1042.03   47.33
  10  -2  -3 1094.70   48.50
   2   8  -3 1160.83   46.75
   2   8   3 1000.64   45.05
  -8  10   4  179.91   16.59
   8 -10  -4  203.62   19.01
  10  -2  -4  196.06   15.13
  -2  -8  -4  178.78   10.91
  -8  10   4  194.64   14.65
   2   8  -4  198.65   10.32
 -10   2  -4  184.03   14.82
   8 -10  -4  179.36   15.35
   2   8   4  172.84   15.56
  10  -2  -4  205.77   17.64
   2   8  -4  208.36   16.49
  10  -2   4  178.39   16.86
   2   8  -5  255.71   10.57
  -8  10   5  321.35   21.58
   2   8   5  255.41   11.82
   8 -10  -5  342.06   24.75
  -2  -8  -5  263.63   14.30
  10  -2  -5  284.87   18.64
  -8  10   5  256.74   17.69
   2   8  -5  265.23   13.40
 -10   2  -5  269.16   18.62
   8 -10  -5  293.97   19.39
  10  -2   5  286.38   20.70
   2   8   5  283.20   19.64
  10  -2   6   51.95   11.00
   2   8   6   43.41   10.51
   2   8  -6   31.32    5.21
   2   8   6   28.64    6.51
   8 -10  -6   46.14   12.09
  -8  10   6   12.11   13.83
  -2  -8  -6   19.50    6.76
  10  -2  -6   52.37    9.78
   8 -10  -6   19.45   11.37
 -10   2  -6   38.27   10.13
   2   8  -6   19.87    5.83
   8 -10  -6   22.65    8.87
   2   8   6   24.69    6.57
   2   8   7   65.33   11.86
   2   8  -7   95.56    7.75
  10  -2   7   80.35   12.62
   8 -10  -7  108.05   15.11
   2   8   7   96.19    8.49
  -8  10   7   90.87   11.10
  -2  -8  -7   88.20    9.25
   8 -10  -7   99.93   14.37
   2   8  -7   76.84    8.50
  10  -2  -7  114.71   11.88
   8 -10  -7   94.30   11.34
  -8  10  -7  101.18    7.36
   2   8   7  109.17    9.32
   2   8  -8  138.80   10.50
   2   8   8  151.09   15.60
  10  -2   8  135.17   15.22
   8 -10  -8  138.01   16.25
   2   8   8  132.24   11.00
   2   8  -8  116.68   11.02
   8 -10  -8  139.32   17.01
  -8  10   8  140.44   14.04
  -2  -8  -8  146.55   11.92
  10  -2  -8  151.70   14.71
   8 -10  -8  172.08   14.97
  -8  10  -8  151.84    9.97
   2   8   8  140.56   10.56
  10  -2   8  143.15    8.67
   2   8  -9  736.38   31.03
   2   8   9  724.34   37.54
   2   8   9  698.14   31.25
   8 -10  -9  730.67   39.17
  10  -2  -9  798.01   42.57
  -2  -8  -9  740.29   32.78
  -8  10   9  713.98   35.95
  10  -2  -9  716.96   35.74
   8 -10  -9  667.99   40.05
   8 -10  -9  713.33   33.04
  10  -2   9  724.17   26.09
  -8  10  -9  681.26   29.32
   8 -10  -9  741.01   35.68
  10  -2   9  707.76   38.13
  10  -2  10  240.95   20.58
   2   8  10  214.47   19.21
   2   8 -10  207.86   14.97
   8 -10 -10  223.73   21.13
   2   8  10  203.75   15.42
  10  -2 -10  244.33   22.91
   8 -10 -10  239.77   16.38
  -8  10  10  239.04   18.97
  10  -2 -10  254.60   19.40
   8 -10 -10  218.47   21.65
   8 -10 -10  243.86   18.22
  10  -2  11   83.05   13.59
   2   8  11   90.77   13.75
   8 -10 -11   66.71   13.23
   2   8 -11   80.42   10.03
  10  -2 -11   64.25   14.25
  -2  -8 -11   72.78   10.72
   8 -10 -11   85.68   10.07
  10  -2 -11   95.28   12.59
  -8  10  11   79.03   11.89
   8 -10 -11   90.26   14.89
   8 -10 -11   73.93   11.05
  10  -2  12   43.28   12.73
   2   8  12   33.93   11.31
   8 -10 -12   18.06   12.39
   2   8 -12   19.48    8.99
  10  -2 -12   23.91   11.85
  10  -2 -12   47.77   13.56
  -8  10  12   34.46   14.77
   8 -10 -12   45.42   16.85
   8 -10 -12   67.40   12.52
   8 -10 -12   28.73    9.60
   2   8  13  190.58   19.54
   2   8 -13  173.14   15.42
  10  -2  13  201.12   20.38
   8 -10 -13  156.23   18.72
  10  -2 -13  143.73   18.98
   8 -10 -13  205.29   14.76
  -8  10  13  163.64   17.25
  10  -2 -13  164.43   17.18
   8 -10 -13  182.44   21.40
   8 -10 -13  207.75   17.34
  10  -2  14  162.60   19.60
   2   8  14  132.25   17.79
   2   8 -14  163.58   15.59
  10  -2 -14  128.23   18.95
  10  -2 -14  133.83   15.83
   8 -10 -14  116.63   18.93
   8 -10 -14  140.84   12.90
   8 -10 -14  149.60   15.90
  10  -2  15  472.03   32.96
   2   8  15  490.64   32.86
   2   8 -15  507.39   29.49
  10  -2 -15  452.20   33.32
   8 -10 -15  481.26   25.03
   8 -10 -15  483.64   34.99
   8 -10 -15  496.99   29.00
   2   8 -16   37.11   10.93
   2   8  16   33.54   12.39
   8 -10 -16   36.24   10.02
   8 -10 -17   72.37   12.09
   1   9   0  257.77   18.34
  -9  10   0  272.31   16.09
   9 -10   0  217.08   17.45
   1   9   0  247.10   17.40
  10  -1   0  241.03   19.60
   1   9  -1   52.03    9.09
  -9  10   1   50.48    9.77
   1   9   1   37.07    8.12
  -9  10  -1   36.33    9.25
  -9  10  -1   35.35    6.21
  -9  10   1   36.72    7.40
   9 -10  -1   43.11   11.14
   1   9  -1   37.88    8.51
  10  -1   1   34.81    8.52
   1   9   1   34.53    8.46
  10  -1  -1   20.89    7.92
   9 -10   1   40.48    8.68
  -9  10   2  281.48   20.35
   1   9   2  259.08   18.48
   9 -10  -2  290.50   23.22
 -10   1  -2  230.34   15.64
  -9  10   2  276.32   17.06
   9 -10   2  278.06   18.72
  10  -1   2  246.23   19.52
  10  -1  -2  252.30   20.59
   1   9  -2  238.64   17.58
   1   9   2  267.39   18.49
  -9  10   3  193.17   16.94
   1   9   3  186.47   15.43
   9 -10  -3  207.36   19.88
  10  -1  -3  183.80   14.42
   1   9  -3  178.31   10.66
 -10   1  -3  155.11   12.91
  -9  10   3  171.96   13.96
   9 -10   3  199.99   15.51
   1   9   3  172.98   15.12
  10  -1   3  148.74   15.21
  10  -1  -3  174.03   17.26
   1   9  -3  174.95   14.73
  -9  10   4  473.93   28.16
   9 -10  -4  491.12   32.07
  10  -1  -4  467.67   24.75
  -1  -9  -4  433.64   22.24
   1   9  -4  454.66   21.07
  -9  10   4  484.80   25.78
 -10   1  -4  502.98   24.90
   9 -10  -4  507.53   27.11
   9 -10   4  509.88   26.88
  10  -1  -4  518.41   30.46
  10  -1   4  480.88   28.71
   1   9  -4  495.58   26.55
   1   9   4  486.45   26.69
   1   9   5   42.88    9.53
   1   9  -5   49.24    6.80
  -9  10   5   44.54    8.57
 -10   1  -5   39.69    7.90
   9 -10  -5   50.22   11.47
  10  -1  -5   34.66    7.38
  -1  -9  -5   28.67    6.48
   1   9  -5   41.95    8.63
  10  -1   5   36.14    9.61
   9 -10  -5   60.71    9.35
 -10   1  -6  396.48   15.80
  10  -1  -6  486.94   24.64
   9 -10  -6  497.66   31.70
 -10   1  -6  465.35   24.98
  -9  10   6  444.16   26.04
  -1  -9  -6  489.02   23.21
   1   9  -6  469.26   21.59
  10  -1   6  478.07   28.74
   1   9   6  478.41   26.56
   9 -10  -6  493.39   26.62
   1   9   7   11.30    7.34
  10  -1   7    7.04    7.73
   9 -10  -7   23.21   10.64
   1   9  -7   14.98    3.81
  -1  -9  -7   18.49    6.42
  -9  10   7    8.06    7.32
  10  -1  -7   13.04    5.74
   9 -10  -7    3.47    8.21
   1   9  -7    8.90    4.89
  -9  10  -7   14.89    4.24
   9 -10  -7   26.93    7.65
   1   9  -8  212.65   11.82
   1   9   8  164.92   16.15
  10  -1  -8  206.41   20.44
   9 -10  -8  193.85   19.57
   1   9  -8  177.58   14.11
  -9  10   8  191.11   16.94
  -1  -9  -8  197.12   14.91
  10  -1  -8  214.20   16.13
   9 -10  -8  228.89   21.48
  10  -1   8  194.46   18.91
   9 -10  -8  208.66   16.68
   1   9  -9  214.76   13.24
   1   9   9  204.42   17.49
   9 -10  -9  183.41   19.51
  10  -1  -9  224.50   21.50
   1   9  -9  158.13   14.31
  -1  -9  -9  189.61   15.48
  -9  10   9  197.51   17.62
  10  -1  -9  231.04   17.28
   9 -10  -9  225.00   22.28
  10  -1   9  231.68   20.74
   9 -10  -9  232.80   17.84
  10  -1   9  211.58    9.44
   1   9 -10  199.05   14.10
   1   9  10  225.87   19.15
   9 -10 -10  230.94   22.09
  10  -1 -10  233.83   22.29
  -1  -9 -10  203.01   16.24
  10  -1 -10  213.79   17.31
  -9  10  10  231.41   19.14
   9 -10 -10  226.12   22.44
  10  -1  10  245.07   21.24
   9 -10 -10  222.41   17.87
  10  -1  11   12.82    9.85
   1   9  11    9.45    9.19
   1   9 -11    1.62    5.34
   9 -10 -11    8.61    9.96
  10  -1 -11    7.10    9.99
  -1  -9 -11   13.06    7.61
  10  -1 -11    4.74    6.21
   9 -10 -11    5.69    9.47
  -9  10  11    1.35    7.84
   9 -10 -11    9.82    6.19
   9 -10 -11    3.61    6.11
   1   9  12  150.03   16.54
  10  -1  12  146.94   18.19
   1   9 -12  137.26   13.04
   9 -10 -12  108.11   16.70
  10  -1 -12  142.17   18.43
   9 -10 -12  139.22   12.53
   9 -10 -12  128.30   18.31
  -9  10  12  124.56   15.03
  10  -1 -12  165.42   15.97
   9 -10 -12  110.09   13.34
  10  -1  13   22.33   10.86
   1   9  13   53.34   12.41
   9 -10 -13   43.50   11.82
   1   9 -13   27.33    7.77
  10  -1 -13   51.67   13.19
  10  -1 -13   45.66   10.61
   9 -10 -13   63.53   12.93
  -9  10  13   40.11   10.44
   9 -10 -13   40.97    9.14
   9 -10 -13   37.16    7.82
  10  -1  14  130.63   17.95
   1   9  14  136.08   17.28
   9 -10 -14  115.61   17.34
  10  -1 -14  132.62   18.29
  10  -1 -14  139.34   15.84
   9 -10 -14  174.03   20.78
  -9  10  14  139.84   16.21
   9 -10 -14  124.55   12.48
   9 -10 -14  126.38   14.55
   1   9  15   94.15   15.75
  10  -1 -15  130.17   17.98
  10  -1 -15  147.00   16.60
   9 -10 -15  146.31   12.65
   9 -10 -15  105.45   13.88
   1   9  16   85.03   14.72
   9 -10 -16   71.86   12.22
   0  10   0   96.89   12.68
 -10  10   0  129.17   14.26
 -10  10   0  128.32   11.16
  10 -10   0   96.93   11.61
   0  10   0  110.72   11.40
  10   0   0  117.62   14.69
 -10  10  -1   97.66   12.39
   0  10  -1   80.86   11.65
 -10  10   1   82.37   11.84
   0  10   1   78.31   11.38
 -10  10  -1   65.61    8.31
 -10  10   1   65.72    9.07
  10 -10  -1   71.61   13.92
  10   0   1   58.60   11.78
   0  10  -1   73.62    9.62
  10 -10  -1   74.90   10.11
   0  10   1   68.74    9.50
  10 -10   1   68.33   10.29
  10   0  -1   90.13   13.62
   0  10   2   96.34   11.07
 -10  10   2  111.44   13.52
   0  10   2  110.11   12.98
  10 -10  -2  129.17   16.69
 -10  10  -2  116.64    9.96
 -10  10   2  110.65   11.49
  10 -10  -2  107.79   12.05
   0  10  -2  120.11   11.70
  10 -10   2  104.11   11.46
  10   0   2  110.28   13.94
  10   0  -2  106.58   14.53
 -10  10   3  171.98   16.56
   0  10   3  182.02   16.38
  10 -10  -3  228.85   21.39
   0  10  -3  165.36   11.74
 -10  10  -3  154.90   11.24
 -10  10   3  184.33   14.85
  10 -10   3  187.47   15.46
  10   0   3  184.50   17.31
  10   0  -3  202.23   18.77
   0  10  -3  191.94   14.40
   0  10   3  170.97   14.09
 -10  10   4  209.30   17.79
   0  10   4  191.52   16.77
  10 -10  -4  165.40   19.05
   0 -10  -4  207.43   15.00
  10   0  -4  203.64   14.21
   0  10  -4  203.14   13.53
 -10  10   4  170.23   15.61
  10 -10   4  214.36   16.37
  10   0   4  223.50   19.23
  10   0  -4  228.86   19.82
   0  10  -4  239.56   16.15
   0  10   4  189.52   15.48
   0 -10  -5  131.49   12.03
  10   0  -5  105.23   10.68
 -10  10   5   92.80   12.36
  10 -10  -5   91.96   15.59
   0  10  -5  126.39   10.85
  10 -10   5  100.61   12.28
  10   0   5  107.12   14.25
   0  10  -5  114.09   11.98
   0  10   5  117.43   12.59
  10 -10  -5  118.47   12.51
  10   0  -5  127.48   15.98
   0  10   6  113.72   12.12
  10   0   6   88.98   13.22
   0  10  -6   73.75    9.24
  10 -10  -6   79.00   14.35
   0 -10  -6  106.96   11.16
  10   0  -6   79.07    9.43
 -10  10   6   84.86   12.58
  10 -10  -6   61.84   10.56
   0  10   7   22.16    7.57
  10   0   7   31.30   10.19
   0 -10  -7   40.25    8.29
  10   0  -7   29.72    6.99
  10 -10  -7   21.92   10.47
   0  10  -7   30.77    7.33
 -10  10   7   29.73    8.64
  10 -10  -7   40.75    9.07
   0  10   8   89.53   11.66
  10   0   8   70.72   13.01
  10 -10  -8   92.00   14.53
  10   0  -8   82.80   13.72
   0 -10  -8   91.18   11.41
  10   0  -8   74.36    9.58
  10 -10  -8   97.84   15.71
 -10  10   8   76.16   11.95
  10 -10  -8  100.21   12.20
   0  10   9   99.42   13.07
  10   0   9  114.79   15.48
  10 -10  -9  148.59   18.51
  10   0  -9  122.88   16.66
   0 -10  -9  108.10   12.69
  10 -10  -9  121.97   17.65
 -10  10   9  118.08   14.71
  10   0  -9  112.08   12.07
  10 -10  -9  105.20   13.35
  10   0  10  103.48   15.72
   0  10  10   81.63   13.42
  10 -10 -10   83.08   15.09
  10   0 -10  136.13   17.39
   0 -10 -10  105.67   12.95
  10   0 -10  103.28   12.10
  10 -10 -10   94.22   15.11
 -10  10  10  118.61   14.48
  10 -10 -10   76.17   11.71
  10   0  11   23.35   10.16
   0  10  11   29.37    9.49
  10 -10 -11   29.72   12.19
  10   0 -11   10.50    9.76
   0 -10 -11   17.97    7.96
  10   0 -11   21.73    8.21
  10 -10 -11   37.05   12.40
 -10  10  11   28.72    9.80
  10 -10 -11   32.01    8.79
  10   0  12   51.75   13.30
   0  10  12   55.40   11.41
  10 -10 -12   49.29   13.03
  10   0 -12   39.04   13.28
  10   0 -12   73.63   11.52
  10 -10 -12   65.69   12.90
 -10  10  12   63.93   12.90
  10 -10 -12   65.09   10.72
  10   0  13   41.09   12.46
   0  10  13   56.74   12.54
  10 -10 -13   46.61   13.65
  10   0 -13   54.57   13.34
  10   0 -13   39.07    9.36
  10 -10 -13   55.30    9.31
  10 -10 -13   28.33   13.46
 -10  10  13   41.43   11.89
  10 -10 -13   41.93    9.52
   0  10  14   77.02   13.38
  10 -10 -14   79.02   16.70
  10   0 -14   71.61   15.56
  10 -10 -14   92.49   10.56
  10   0 -14  109.36   13.92
  10 -10 -14   95.33   12.71
   0  10  15   91.14   15.23
  10   0 -15   56.75   12.07
   0  10  16   80.02   14.43
  -1  11   0  208.77   18.85
 -11  10   0  209.52   18.24
 -11  10   0  227.58   16.22
  10   1   0  234.15   20.29
  -1  11   0  227.95   15.53
  11 -10   0  258.86   18.48
 -11  10   1  114.19   14.47
  -1  11  -1  108.31   13.80
  -1  11   1  132.17   14.96
 -11  10  -1  134.14   14.85
 -11  10  -1  134.78   12.27
 -11  10   1  118.93   12.91
  11 -10  -1  168.34   14.57
  11 -10   1  126.35   13.31
  10   1   1  121.57   15.14
  -1  11   1  131.38   11.68
  -1  11  -1  139.14   11.81
  10   1  -1  133.03   15.81
  -1  11   2    4.77    6.07
  -1  11   2   18.39    8.77
 -11  10   2    2.45    6.81
  -1  11  -2    5.17    7.57
 -11  10  -2   11.10    7.41
 -11  10  -2    3.78    5.14
 -11  10   2    2.11    7.05
  11 -10  -2    8.95    6.56
  10   1   2   10.39    8.02
  10   1  -2    9.26    8.34
  -1  11  -2   -1.53    5.68
  11 -10   2   -1.08    6.49
  -1  11   3  347.05   24.23
 -11  10   3  422.81   25.44
 -11  10   3  373.64   23.60
  -1  11  -3  338.36   19.87
 -11  10  -3  370.71   19.66
  -1  11  -3  415.51   21.66
  11 -10   3  338.64   22.42
  10   1   3  429.55   27.84
  -1  11   3  409.42   21.55
  10   1  -3  337.86   26.60
  11 -10  -3  435.86   24.94
  -1  11   4   39.28    7.74
  -1  11   4   55.25   10.87
  -1  11  -4   63.39    8.62
 -11  10  -4   45.07    6.80
 -11  10   4   43.96    9.90
   1 -11  -4   50.34    9.26
  10   1  -4   38.40   11.20
  10   1   4   47.10   11.45
  11 -10   4   72.30   10.16
  -1  11  -4   47.63    8.10
  -1  11   5   79.58   10.19
  -1  11  -5   87.36   10.08
   1 -11  -5   72.62   10.87
 -11  10   5   62.29   11.10
 -11  10  -5   75.71    7.26
  10   1  -5   81.88   14.17
  -1  11  -5   94.80   10.60
  10   1   5   89.94   13.55
  11 -10   5   74.31   10.41
  -1  11   6   24.63    7.78
  10   1   6   46.52   11.09
   1 -11  -6   37.67    8.76
  10   1  -6   40.37    6.76
 -11  10   6   37.98    9.62
  -1  11  -6   30.28    7.33
  11 -10  -6   44.16    9.38
  11 -10   6   35.83    7.84
  10   1  -6   36.94   10.99
  -1  11   7   52.81    9.44
  10   1   7   60.18   12.25
  10   1  -7   71.91   13.54
   1 -11  -7   61.24   10.54
  10   1  -7   63.60    8.25
 -11  10   7   64.09   11.87
  11 -10  -7   63.84   11.15
  -1  11   8   47.74    8.96
  10   1   8   53.49   12.65
  10   1  -8   86.17   13.89
  11 -10  -8   50.91   13.94
  10   1  -8   39.03    6.91
   1 -11  -8   44.04    9.66
 -11  10   8   52.46   11.47
  11 -10  -8   52.69   10.08
  -1  11   9  229.48   18.07
  10   1  -9  180.47   20.04
  11 -10  -9  219.46   23.46
 -11  10   9  252.27   21.16
  10   1  -9  205.23   15.17
   1 -11  -9  211.81   17.93
  10   1   9  279.43   23.20
  11 -10  -9  235.59   18.91
  -1  11  10   25.06    8.74
  10   1  10   52.63   12.05
  10   1 -10   45.17    8.71
   1 -11 -10   38.54    9.73
 -11  10  10   51.60   12.25
  10   1 -10   60.75   13.15
  11 -10 -10   54.48   13.91
  10   1  11   29.63   11.32
  -1  11  11   20.46    8.66
  10   1 -11    9.66    7.40
 -11  10  11   25.01    9.51
  10   1 -11   18.70   11.04
  11 -10 -11   35.77   12.50
  -1  11  12   41.81   10.83
  10   1 -12   38.68    8.97
 -11  10  12   44.72   11.81
  10   1 -12   38.44   13.51
  11 -10 -12   46.60   13.46
  10   1 -13   57.96   13.37
  11 -10 -13   45.50   14.97
  -1  11  13   84.99   13.40
  10   1 -14   12.59   10.67
  -1  11  14    2.77    8.79
  -1  11  15  228.44   20.98
  -1  11  16   34.78   11.08
 -11   9   0  502.09   28.01
  -2  11   0  519.23   30.08
 -11   9   0  498.44   26.84
   2 -11   0  523.51   26.86
  11  -9   0  458.45   22.34
  -2  11   0  487.81   23.06
   9   2   0  569.73   32.40
  11  -9   0  519.53   27.45
 -11   9   1  395.83   24.55
  -2  11  -1  405.16   26.11
 -11   9  -1  428.87   24.98
  -2  11   1  439.00   26.89
 -11   9  -1  424.28   23.45
 -11   9   1  393.29   24.11
   2 -11   1  406.02   23.09
   2 -11  -1  450.24   24.37
  11  -9   1  431.97   24.18
   9   2   1  411.97   27.39
  11  -9   1  368.02   19.29
  -2  11   1  426.13   20.52
  11  -9  -1  401.12   19.58
   9   2  -1  451.96   28.49
  -2  11  -1  425.12   20.49
  11  -9  -1  405.34   24.06
  -2  11   2   23.35    5.88
  11  -9   2   16.39    5.82
 -11   9   2   10.86    7.56
 -11   9  -2   15.31    7.41
  -2  11   2   27.70    9.49
  -2  11  -2   30.57    7.70
  11  -9  -2   27.74    9.66
 -11   9  -2   24.87    6.96
 -11   9   2   18.26    7.87
  11  -9  -2   25.74    7.85
   9   2   2   28.80    9.07
   9   2  -2   39.19   10.65
  11  -9   2   31.13    8.19
  11  -9  -2   15.32    5.28
  -2  11  -2   18.99    6.10
   2 -11   2   41.09    8.00
  -2  11   3  580.91   25.85
  11  -9   3  514.42   24.60
  -2  11   3  540.50   31.75
 -11   9   3  606.78   30.94
  11  -9  -3  561.26   35.28
   2 -11   3  629.66   29.22
 -11   9  -3  564.81   26.81
 -11   9   3  500.38   30.18
  -2  11  -3  540.46   27.92
  11  -9  -3  570.07   25.34
  11  -9   3  610.84   29.67
  -2  11  -3  598.32   25.96
   9   2  -3  584.43   34.56
   9   2   3  565.27   33.12
  11  -9  -3  587.81   30.35
  -2  11   4   36.46    6.80
  11  -9   4   29.23    6.44
  -2  11   4   32.88    9.50
  -2  11  -4   36.38    8.58
  11  -9  -4   43.25   12.04
   2 -11  -4   39.96    9.17
 -11   9  -4   35.43    6.77
 -11   9   4   46.07   10.53
   9   2  -4   40.32   11.09
  11  -9  -4   26.44    7.09
   9   2   4   52.87   10.86
  11  -9  -4   35.27    6.58
  11  -9   4   33.80    7.98
  -2  11  -4   36.11    6.67
   2 -11   4   50.45    8.50
  11  -9   5  709.13   31.72
  -2  11  -5  713.48   31.73
  -2  11   5  744.80   32.70
  -2  11   5  754.12   38.94
  11  -9  -5  835.84   44.21
   2 -11  -5  794.88   37.89
 -11   9  -5  792.77   31.69
   2 -11   5  798.68   34.90
 -11   9   5  812.02   39.70
  -2  11  -5  706.10   34.41
  11  -9   5  808.60   35.67
  -2  11  -5  784.12   33.02
   9   2  -5  801.27   41.71
  11  -9  -5  743.99   32.47
   9   2   5  773.10   40.50
  -2  11  -6  387.66   20.68
  -2  11   6  405.07   21.66
  11  -9   6  362.57   20.66
   9   2  -6  375.24   26.09
 -11   9  -6  440.66   19.30
  11  -9  -6  467.26   31.28
   2 -11  -6  429.22   25.74
   9   2  -6  411.80   19.02
 -11   9   6  416.99   27.17
   2 -11   6  421.91   22.63
  11  -9   6  408.22   22.69
   9   2   6  401.78   27.17
  -2  11  -6  413.13   21.65
  -2  11   7  426.67   23.02
  11  -9   7  405.36   22.18
   9   2  -7  454.94   28.84
  11  -9  -7  498.26   32.77
 -11   9   7  420.71   27.61
   2 -11   7  432.73   23.37
 -11   9  -7  462.06   18.60
   9   2  -7  418.84   20.36
   2 -11  -7  424.66   26.49
  11  -9   7  422.46   23.70
   9   2   7  429.30   28.99
  -2  11   8   10.81    6.36
  11  -9   8   -0.84    6.41
   9   2   8   -3.15    8.27
   9   2  -8    7.22    8.02
   9   2  -8   10.68    4.73
   2 -11  -8   13.67    7.19
  11  -9  -8   -1.83    8.98
 -11   9   8    4.44    7.76
   2 -11   8    6.64    5.65
  -2  11   9  531.59   27.60
   9   2  -9  519.06   32.13
  11  -9  -9  474.98   34.81
 -11   9   9  575.80   33.46
   9   2  -9  495.37   24.74
   2 -11  -9  541.43   30.84
  11  -9  -9  562.89   35.66
   9   2   9  573.83   34.25
  -2  11  10   -4.13    7.41
   9   2  10   -4.98    8.96
   9   2 -10    0.80    5.73
   2 -11 -10   -1.36    8.05
  11  -9 -10    3.78    8.74
 -11   9  10    1.58    8.27
   9   2 -10    6.04    8.85
  11  -9 -10    5.88   10.26
  -2  11  11  294.67   20.59
   9   2  11  271.31   23.70
 -11   9  11  324.69   24.92
   9   2 -11  283.95   18.50
   2 -11 -11  290.41   22.54
  11  -9 -11  301.65   26.36
   9   2 -11  303.19   24.14
  11  -9 -11  257.76   25.14
  -2  11  12  259.69   20.12
   9   2  12  307.20   25.34
 -11   9  12  319.41   25.21
   9   2 -12  255.47   18.52
   2 -11 -12  301.45   24.20
  11  -9 -12  288.21   25.79
   9   2 -12  306.88   24.50
  11  -9 -12  235.38   25.59
  -2  11  13  371.31   24.92
 -11   9  13  392.11   28.79
   2 -11 -13  381.03   27.70
  11  -9 -13  437.11   32.14
   9   2 -13  406.79   28.89
  11  -9 -13  390.03   31.88
  -2  11  14   11.72    8.62
   2 -11 -14   14.76   10.31
  -2  11  15  238.27   20.90
   2 -11 -15  210.70   21.38
  -2  11  16   -1.44    8.33
   2 -11 -16   -1.77    9.12
  -2  11  17  218.30   21.23
 -11   8   0  794.69   36.52
  -3  11   0  829.67   40.03
   3 -11   0  848.92   36.37
  -3  11   0  740.60   29.73
  11  -8   0  730.60   32.99
  11  -8   0  790.97   36.18
  -3  11   1  931.25   35.76
 -11   8   1  987.15   42.58
  -3  11  -1  974.18   46.00
 -11   8  -1 1018.26   42.87
  -3  11   1  967.62   45.75
  11  -8  -1 1041.35   49.86
   3 -11   1  986.99   41.74
   3 -11  -1 1027.76   42.71
  -3  11  -1  990.32   42.05
  11  -8   1  975.10   39.67
  11  -8  -1  920.48   38.98
  -3  11  -1  900.42   35.66
  11  -8  -1  989.07   42.53
  11  -8   1 1009.78   42.50
  11  -8   2   84.47    9.74
  -3  11   2  103.53    7.99
 -11   8   2   65.92   11.15
  -3  11   2   99.93   13.33
   8   3   2   69.24   10.65
 -11   8  -2   66.94   11.34
  11  -8  -2  129.72   15.44
   3 -11   2  118.53   11.33
  -3  11  -2   95.42   11.48
  -3  11  -2  113.14    8.24
  11  -8  -2   72.76    9.55
  11  -8   2  104.40   11.34
  -3  11   3  847.62   31.93
  -3  11  -3  813.53   31.16
  -3  11   3  775.83   40.26
  11  -8  -3  816.11   43.52
   3 -11  -3  815.11   40.12
   3 -11   3  863.47   36.83
  11  -8   3  804.55   36.45
  -3  11  -3  868.26   31.98
  11  -8   3  768.55   34.56
  11  -8  -3  766.64   34.49
  11  -8   4   -0.78    5.66
  -3  11   4    4.75    4.56
  -3  11  -4    7.32    4.13
  -3  11   4   10.53    7.51
  11  -8  -4   11.33    8.48
   3 -11  -4   -3.74    7.84
   3 -11  -4    5.93    5.72
  11  -8  -4    5.51    5.56
  11  -8   4    7.16    6.04
  -3  11  -4    7.51    4.43
   3 -11   4   10.36    5.60
  -3  11   5  962.39   37.94
  -3  11  -5  952.48   36.78
  11  -8   5  934.33   40.24
  -3  11   5  971.11   45.97
  11  -8  -5 1018.61   50.01
   3 -11  -5 1033.15   46.16
   3 -11  -5  936.44   42.16
   3 -11   5  977.01   41.16
  11  -8   5  945.89   41.02
  11  -8  -5  971.08   40.63
  -3  11  -5  993.86   37.77
  -3  11   6  829.46   33.71
  -3  11  -6  781.08   32.22
  11  -8   6  798.02   35.69
   8   3  -6  819.49   39.76
   3 -11  -6  792.54   39.82
  11  -8  -6  889.03   45.17
   8   3  -6  796.32   29.86
   3 -11   6  827.56   35.76
   3 -11  -6  876.74   38.02
  11  -8   6  807.27   35.41
  -3  11  -6  770.42   32.75
  -3  11   7  688.45   31.43
  -3  11  -7  685.58   30.15
  11  -8   7  728.97   33.64
   8   3  -7  750.19   37.29
   3 -11   7  738.29   32.85
   3 -11  -7  753.70   35.12
   8   3  -7  710.15   28.26
   3 -11  -7  722.76   37.50
  11  -8  -7  849.98   43.51
  11  -8   7  734.13   32.47
  11  -8   8   24.17    7.62
  -3  11   8   25.13    6.57
   8   3  -8   23.31    8.24
   8   3  -8   13.74    4.78
   3 -11  -8   30.88    9.32
  11  -8  -8   17.15    9.42
  11  -8   8   19.58    6.18
   3 -11   8   12.86    5.65
  11  -8   9  505.03   27.24
  -3  11   9  544.28   26.26
  11  -8  -9  480.34   34.28
   8   3  -9  537.60   30.50
 -11   8   9  483.73   31.58
   3 -11   9  496.74   24.84
   8   3  -9  446.74   22.60
   3 -11  -9  541.06   31.08
  11  -8  -9  521.95   33.52
  -3  11  10   76.01   10.36
  11  -8  10   75.66   11.55
   8   3 -10   78.32   12.63
  11  -8 -10   70.65   15.17
   8   3 -10   74.69    8.53
   3 -11 -10   89.17   13.68
  11  -8 -10   73.36   13.97
 -11   8  10   62.68   13.09
   3 -11  10   78.06    8.97
  11  -8  11  334.37   23.38
  -3  11  11  365.45   22.62
 -11   8  11  368.90   27.95
   3 -11  11  408.73   20.80
   3 -11 -11  378.74   27.04
  11  -8 -11  415.83   29.84
   8   3 -11  390.10   26.57
  11  -8 -11  373.55   30.32
  11  -8  12  484.93   29.44
  -3  11  12  529.83   28.86
 -11   8  12  514.62   33.89
   3 -11  12  531.32   24.92
   3 -11 -12  550.92   33.76
  11  -8 -12  517.54   34.52
   8   3 -12  482.85   31.47
  11  -8 -12  572.00   37.54
  11  -8  13  572.59   33.05
  -3  11  13  607.66   32.22
   3 -11  13  617.19   27.56
 -11   8  13  560.17   36.58
   3 -11 -13  689.72   38.70
  11  -8 -13  628.04   38.89
  11  -8 -13  625.84   40.48
  -3  11  14    1.24    7.43
  11  -8  14   -1.35    8.69
   3 -11 -14   -8.73   10.84
  -3  11  15  384.67   26.05
   3 -11 -15  417.18   30.00
  -3  11  16    9.75    7.96
   3 -11 -16   14.90    9.92
  -3  11  17  276.92   23.53
 -11   7   0  732.47   31.87
   4 -11   0  650.07   24.80
  -4  11   0  759.54   37.02
   4 -11   0  768.08   33.28
  11  -7   0  629.77   30.80
   7   4   0  719.53   37.36
  -4  11   1   -2.89    2.15
  -4  11   1    5.16    6.54
 -11   7   1   12.03    5.56
   4 -11   1    9.13    3.02
 -11   7  -1    4.81    4.93
   7   4   1   -0.80    5.37
  11  -7  -1    6.10    8.23
   7   4   1    1.36    6.90
  11  -7  -1    4.12    5.23
  11  -7   1    1.80    5.00
  11  -7   1    4.18    5.14
   7   4  -1   -1.38    7.03
   4 -11   1   -1.78    5.71
  -4  11  -2   -2.63    2.41
  -4  11   2   -1.79    2.87
  -4  11  -2    0.32    2.16
 -11   7  -2   -1.63    6.25
  -4  11   2   11.78    6.86
   7   4   2    4.85    5.99
   4 -11   2   -0.74    5.12
  11  -7  -2   -4.56    7.96
   4 -11  -2   -1.33    8.01
  11  -7   2   -0.88    5.29
   7   4  -2    4.27    7.22
   7   4   2    6.70    7.55
  11  -7  -2   -4.99    6.40
  11  -7   2    3.40    5.16
   4 -11   2    2.64    5.40
  -4  11   3    7.09    3.30
  -4  11  -3   17.99    3.54
  11  -7   3    6.08    5.70
   7   4   3    9.11    6.33
  -4  11   3    5.31    7.58
   7   4  -3    5.14    3.22
   4 -11   3   18.68    6.48
  11  -7  -3    9.11    7.71
   4 -11  -3   13.30    9.22
   4 -11  -3    3.69    5.48
   7   4  -3    1.45    8.31
  11  -7   3   10.27    6.19
  11  -7  -3   10.38    6.16
   4 -11   3   12.12    6.66
   7   4   3    5.38    6.60
  -4  11  -3   11.59    3.22
  -4  11   4   -2.46    3.19
  -4  11  -4   -0.89    2.85
   7   4   4   -0.86    5.23
   7   4  -4    0.99    5.82
  -4  11   4   -5.28    7.33
   7   4  -4    0.32    2.94
   4 -11   4    4.52    4.31
  11  -7  -4   12.11    8.06
   4 -11  -4   -2.66    6.97
  -4  11  -4    3.42    3.01
   7   4  -4    2.93    7.78
  11  -7  -4    1.82    5.64
  11  -7   4    5.73    4.73
   7   4   4   -1.37    6.47
   4 -11   4    2.56    5.05
   4 -11  -4    1.88    5.14
  11  -7   5    3.75    5.63
  -4  11   5    6.08    4.15
  -4  11  -5    7.37    3.49
   7   4   5    9.02    6.26
  -4  11   5   10.71    7.34
   7   4  -5    9.21    6.29
   4 -11  -5    9.65    4.53
  11  -7  -5   15.42    8.08
   4 -11  -5    9.45    6.62
  -4  11  -5    8.59    3.49
  11  -7   5   10.32    5.61
   7   4   5   19.40    8.32
   4 -11   5    1.68    4.40
   4 -11  -5    9.58    5.47
  -4  11  -6  552.71   22.54
   7   4   6  543.35   27.85
  -4  11   6  551.11   23.15
  11  -7   6  538.67   27.84
   7   4  -6  517.30   28.29
   4 -11  -6  484.02   23.82
   7   4  -6  506.71   19.21
   4 -11  -6  543.48   31.57
  11  -7  -6  590.43   34.13
   4 -11  -6  541.98   27.92
   4 -11   6  589.50   27.37
  11  -7   6  549.44   25.83
   7   4   6  510.47   31.13
  11  -7   7    1.03    7.17
  -4  11   7    7.15    4.52
  -4  11  -7    2.05    3.91
   7   4   7  -13.00    8.77
   7   4  -7    2.19    6.49
   4 -11  -7    4.24    4.29
   7   4  -7    3.06    3.05
   4 -11  -7   -1.40    7.43
  11  -7  -7    4.80    8.12
  11  -7   7    6.48    4.42
   4 -11   7   -3.24    6.28
   4 -11  -7    6.99    5.47
  11  -7   8    2.16    6.33
  -4  11   8    6.12    4.92
   7   4   8   13.51    8.34
   7   4  -8   13.77    7.44
   4 -11  -8    7.10    5.11
   7   4  -8   -1.37    4.16
   4 -11  -8   -1.44    9.33
  11  -7  -8   -4.87    8.50
   4 -11   8    1.59    5.37
  11  -7   8    7.57    4.37
   4 -11  -8    8.07    5.45
  11  -7   9    2.28    6.75
  -4  11   9    4.60    5.45
   7   4   9   15.36    9.33
   7   4  -9    1.18    6.57
   4 -11  -9    7.88    5.50
  11  -7  -9   19.20   11.11
   4 -11  -9   -1.49    7.57
  11  -7  -9    3.35    8.49
   4 -11   9   -3.90    5.11
   4 -11  -9    2.03    5.88
   7   4  10   -4.76    8.31
  11  -7  10   -6.01    8.55
  -4  11  10    3.40    5.63
   7   4 -10    2.47    6.96
  11  -7 -10   -5.89   11.36
   4 -11 -10    3.12    7.78
  11  -7 -10    1.70    8.48
   4 -11  10    1.52    4.82
   4 -11 -10    2.08    5.18
   7   4  11    1.64    8.98
  -4  11  11   -0.94    6.02
  11  -7  11   -1.27    8.05
  11  -7 -11    3.98    9.74
   4 -11 -11   -1.63    8.55
  11  -7 -11    1.74    9.64
   4 -11 -11    4.42    6.23
   4 -11  11    5.88    4.51
  11  -7  12  326.80   24.87
   7   4  12  399.06   29.20
  -4  11  12  398.39   23.58
  11  -7 -12  397.15   31.44
   4 -11 -12  459.62   30.54
   4 -11  12  410.48   20.89
  11  -7 -12  396.89   29.36
   4 -11 -12  404.51   24.38
   7   4  13   -3.53   10.07
  -4  11  13    3.32    7.24
  11  -7  13    9.88    8.96
  11  -7 -13   -4.13   10.66
   4 -11 -13   -1.77    8.70
  11  -7 -13   -1.81    9.79
   4 -11 -13   -8.84    9.54
   4 -11  13    1.35    4.55
   7   4  14   12.76   10.41
  -4  11  14   10.73    7.97
  11  -7  14   29.59   10.71
  11  -7 -14   10.53   10.86
   4 -11 -14    5.51   10.63
  11  -7 -14   11.12    9.41
   4 -11 -14    6.62    6.79
   4 -11  14    9.75    5.23
  -4  11  15   11.50    9.17
  11  -7  15   16.99   10.01
   4 -11 -15   -1.90    9.31
   7   4 -15    1.59    9.10
  -4  11  16   -4.09    8.37
  11  -7  16   -4.81    9.96
   4 -11 -16    3.88   10.17
   7   4 -16   -1.68    9.45
   7   4 -17    5.25    9.45
  11  -7  17    5.00    9.77
  -4  11  17    8.63    8.84
  -5  11   0   77.30   11.52
 -11   6   0   77.01    8.57
   6   5   0   66.12    8.23
   5 -11   0   64.66    7.28
  11  -6   0   55.58    9.29
   5 -11   0   75.05   10.01
   6   5   0   65.65   11.79
   6   5   1    5.91    4.67
   5 -11   1    2.54    4.83
  -5  11   1   10.34    7.38
   5 -11  -1    2.39    5.13
   5 -11  -1    1.58    4.58
 -11   6  -1    0.66    5.17
   6   5  -1    4.93    3.59
   5 -11   1    5.27    5.27
   5 -11   1    3.14    5.03
   6   5   1    5.21    7.72
   6   5  -1   -3.98    7.88
  11  -6   1   -5.59    7.01
  11  -6  -1    7.50    6.32
   6   5   2   14.84    6.27
   5 -11   2   14.19    5.20
 -11   6  -2    9.32    5.54
   5 -11  -2   17.02    6.01
  -5  11   2   24.80    8.98
   6   5  -2    9.05    4.56
  11  -6  -2   37.06    8.26
   5 -11  -2   24.20    8.56
   5 -11   2   10.99    5.74
   5 -11   2   27.93    7.29
   6   5  -2   27.36    9.49
   6   5   2   29.54    9.07
  11  -6  -2   17.98    6.81
  11  -6   2   10.53    7.05
   6   5   3  915.79   36.87
  -5  11   3  904.82   43.26
 -11   6  -3  909.04   36.55
   5 -11  -3  887.90   35.81
   6   5  -3  821.74   33.14
   6   5  -3  846.61   37.23
   5 -11   3  889.12   36.44
  11  -6  -3  855.84   43.34
   5 -11  -3  864.29   43.64
   5 -11   3  903.11   38.56
   5 -11  -3  932.36   39.30
  11  -6   3  901.52   39.63
   6   5  -3  924.30   44.51
   6   5   3  902.51   43.09
  11  -6  -3  848.97   39.32
  11  -6   3  869.34   37.47
  11  -6   4   29.11    7.98
   5 -11  -4   28.79    6.16
   6   5   4   23.02    7.12
   6   5  -4   17.13    6.63
  -5  11   4   30.40    8.69
   5 -11   4   28.13    7.19
  11  -6  -4   25.44    9.38
   5 -11  -4   25.44    9.29
   5 -11   4   14.97    5.13
   6   5  -4   18.36    8.90
  11  -6  -4   26.43    7.57
  11  -6   4   25.57    7.00
   6   5   4   34.43   10.14
   5 -11  -4   38.11    7.93
  11  -6   5    9.45    6.54
  -5  11  -5   13.90    2.63
   5 -11  -5   16.46    5.91
   6   5   5   21.70    6.48
   6   5  -5   13.70    6.21
  -5  11   5   12.07    6.70
   5 -11   5   16.85    6.06
   5 -11  -5   12.90    7.29
  11  -6  -5   23.02    8.75
   5 -11  -5   18.83    6.12
   6   5   5   25.55    9.17
  11  -6   5   13.18    5.40
  -5  11  -5   15.74    2.59
  -5  11  -6   31.11    4.65
   6   5   6    5.53    8.80
  11  -6   6   34.74    9.35
   6   5  -6   20.76    7.56
   6   5   6   24.58    7.89
   5 -11  -6    1.46    7.22
  11  -6  -6   22.12    8.88
   5 -11   6   31.53    7.37
  11  -6   6   36.89    7.10
   5 -11  -6   15.74    7.10
   5 -11  -6   33.11    8.11
  11  -6   7    5.64    6.68
  -5  11  -7    1.64    3.52
  -5  11   7    0.93    3.83
   6   5   7   -2.83    8.19
   6   5  -7    0.94    5.38
   6   5   7    2.64    5.98
   5 -11   7    0.82    5.42
   6   5  -7   -0.28    2.94
   5 -11  -7   -1.48    7.63
  11  -6  -7    2.99    7.33
  11  -6   7   -1.95    4.18
   6   5   7    2.71    3.35
   5 -11  -7   -2.25    6.18
   5 -11  -7   -0.95    4.82
  11  -6   8   20.13    8.65
  -5  11   8   19.37    5.69
   6   5   8    7.33    8.28
   6   5  -8   16.95    7.12
   6   5   8   17.62    7.05
   5 -11   8   20.14    6.22
   5 -11  -8   15.29    8.15
  11  -6  -8   33.65    8.75
   6   5   8   15.07    3.99
  11  -6   8   18.17    5.11
   5 -11  -8   26.03    7.87
   5 -11  -8   18.35    6.84
  -5  11   9  473.77   23.42
  11  -6   9  466.25   28.43
   5 -11   9  501.27   24.98
   5 -11  -9  547.26   27.38
   5 -11  -9  546.88   32.60
  11  -6  -9  523.27   32.16
   5 -11  -9  514.37   28.39
  11  -6   9  478.47   22.33
   6   5   9  516.80   31.50
   6   5  10    6.24    8.79
  11  -6  10   12.99    8.42
  -5  11  10   13.76    5.71
  11  -6 -10   13.72   11.05
   5 -11 -10    1.09    7.41
   5 -11 -10   -3.30    9.17
  11  -6 -10    1.61    8.96
   5 -11  10    6.20    5.61
   5 -11 -10    5.69    6.05
   5 -11 -10   -3.02    5.53
   6   5  11    3.23    8.33
  11  -6  11    4.06    7.73
  -5  11  11    6.87    5.63
  11  -6 -11    1.99   10.40
   5 -11 -11    1.18    7.06
   5 -11  11    5.27    4.93
   5 -11 -11   -5.16    9.56
  11  -6 -11   -1.65    9.79
   5 -11 -11    4.59    6.97
   5 -11 -11   -4.04    5.61
   6   5  12   21.91   11.05
  11  -6  12   31.39   10.33
  -5  11  12   26.55    8.06
  11  -6 -12   16.15   11.23
   5 -11 -12   17.66    8.68
   5 -11 -12   -1.80    9.27
  11  -6 -12   15.21    9.53
   5 -11 -12    9.24    7.03
   5 -11  12   10.93    5.67
   5 -11 -12   18.35    7.45
   6   5  13   -8.68    9.10
  11  -6  13    7.47    8.42
  -5  11  13    1.04    6.44
  11  -6 -13    6.19   11.63
   5 -11 -13    5.36    7.75
   6   5 -13   -8.22    9.66
   5 -11 -13   -1.86    9.29
  11  -6 -13   22.53   10.28
   5 -11 -13   -2.33    7.91
   5 -11  13    7.04    5.13
   6   5  14   -7.24    9.63
  11  -6  14   -1.57    8.75
  -5  11  14    1.13    6.99
  11  -6 -14   -2.10   10.64
   6   5 -14    2.91    8.30
   5 -11 -14   -3.83    8.70
  11  -6 -14   -7.09   10.76
   5 -11 -14    4.68    7.19
   5 -11  14    3.43    5.04
  11  -6  15  356.41   27.93
  -5  11  15  401.59   25.64
   6   5 -15  404.73   28.43
   5 -11 -15  406.67   31.00
  11  -6 -15  374.64   29.36
   5 -11 -15  423.27   25.56
   6   5 -16    9.57    9.57
  11  -6  16   -1.71   10.28
   6   5 -17   -5.03    9.69
   6   5 -18   45.14   13.24
   5   6   0  282.55   15.98
   5   6   0  307.20   15.53
   5   6   0  353.56   22.96
  11  -5   0  324.38   20.61
   5   6  -1   39.64    6.21
 -11   5  -1   35.13    5.93
   5   6   1   47.14    6.12
   5   6  -1   37.83    6.19
   5   6  -1   45.06    5.99
   6 -11   1   49.93    7.66
   5   6   1   31.02    8.47
  11  -5   1   47.96    8.71
   5   6  -1   55.49    9.93
  11  -5  -1   35.07    8.21
   5   6   2  325.47   16.93
   6 -11   2  375.65   19.19
 -11   5  -2  371.04   17.27
   5   6  -2  357.11   17.70
   5   6  -2  299.14   17.07
   6 -11  -2  339.84   20.51
   6 -11  -2  357.53   25.40
  11  -5  -2  388.10   25.30
   5   6   2  287.28   21.65
  11  -5   2  336.85   21.53
   5   6  -2  378.18   24.61
  11  -5  -2  370.00   22.43
   6 -11   3   61.72    8.30
   5   6   3   56.10    6.99
   5   6  -3   54.96    7.40
   6 -11  -3   46.09    8.47
 -11   5  -3   80.47    7.78
   5   6  -3   58.57    7.54
   6 -11  -3   72.33    9.55
   6 -11  -3   57.24   10.97
  11  -5  -3   60.70   10.96
   5   6   3   56.38   10.55
  11  -5   3   58.90    9.80
   5   6  -3   69.67   11.46
  11  -5  -3   53.73   10.08
   6 -11  -3   60.09    9.75
   6 -11   4  329.37   18.67
   5   6   4  321.91   17.09
   5   6  -4  317.21   17.33
   6 -11  -4  309.25   19.52
   6 -11  -4  362.84   25.23
  11  -5  -4  337.60   23.38
   6 -11  -4  324.86   19.88
   6 -11  -4  296.19   21.07
  11  -5   4  305.48   21.18
  11  -5  -4  333.35   21.60
   5   6  -4  349.42   24.13
   5   6   4  332.76   23.15
   6 -11   5  165.13   13.19
   5   6  -5  179.15   12.44
   5   6   5  163.73   12.09
   6 -11  -5  138.35   13.44
   6 -11  -5  168.70   17.52
  11  -5  -5  180.58   16.52
   6 -11  -5  166.01   13.68
   5   6   5  177.18   16.67
   6 -11  -5  174.54   15.42
  11  -5   5  155.25   14.88
  11  -5   5  180.43   12.36
   6 -11  -6  354.77   21.09
   5   6   6  383.93   19.07
   6 -11  -6  393.95   26.20
  11  -5  -6  359.56   23.90
   6 -11  -6  362.33   20.47
   6 -11  -6  424.42   23.47
   5   6   6  337.54   16.49
  11  -5   6  359.18   23.01
   5   6   6  389.11   25.20
  11  -5   6  386.29   18.13
  -6  11  -7   22.17    3.80
   5   6   7   41.57   10.62
  11  -5   7   42.72    9.57
   6 -11  -7   31.41    7.85
   5   6   7   28.94    6.90
   6 -11  -7   23.58    9.37
  11  -5  -7   40.52    9.90
  11  -5   7   31.98    5.64
   5   6   7   35.34    5.32
   6 -11  -7   26.26    6.75
   6 -11  -7   26.55    6.92
  11  -5   8  244.39   19.31
   6 -11  -8  206.13   16.96
   5   6   8  224.36   15.92
   6 -11  -8  199.72   15.71
   6 -11  -8  234.37   21.50
   5   6   8  217.56   12.25
  11  -5   8  234.06   13.11
   6 -11  -8  225.82   17.69
   5   6   8  218.14   19.61
   5   6   9   97.29   14.01
  11  -5   9   67.29   11.88
   5   6   9  100.75   11.35
  11  -5  -9   94.46   13.90
   6 -11  -9  113.58   15.19
  11  -5   9   88.98    7.68
   6 -11  -9   90.76   11.61
   6 -11  -9   91.12   10.71
   5   6  10  276.85   23.01
  11  -5  10  269.07   21.36
   5   6 -10  253.22   18.70
   6 -11 -10  266.67   18.38
  11  -5 -10  274.37   22.33
   6 -11 -10  327.87   25.18
   6 -11 -10  287.32   20.46
   5   6  11   31.92   10.59
  11  -5  11   30.20   10.18
   5   6 -11   26.78    8.44
  11  -5 -11   21.94    9.67
   6 -11 -11   25.21   10.32
   6 -11 -11   27.37    7.60
   6 -11 -11   31.29    7.30
  11  -5  12  197.92   19.96
   5   6  12  203.61   21.30
   5   6 -12  212.25   18.19
   6 -11 -12  244.13   17.44
  11  -5 -12  217.55   21.43
   6 -11 -12  261.23   23.54
   6 -11 -12  240.66   18.89
   5   6  13   51.48   13.54
  11  -5  13   58.09   13.08
   5   6 -13   68.66   11.59
   6 -11 -13   43.55   11.42
  11  -5 -13   51.36   12.53
   6 -11 -13   57.89   13.40
   6 -11  13   78.62    9.05
   6 -11 -13   71.29   11.44
   6 -11 -13   73.77   10.14
   5   6  14  146.34   18.60
  11  -5  14  131.10   17.57
   5   6 -14  147.95   16.26
   6 -11 -14  138.68   17.32
   6 -11  14  165.00   12.36
  11  -5 -14  110.44   16.83
   6 -11 -14  162.36   20.27
   6 -11 -14  165.26   14.21
   6 -11 -14  130.66   14.93
  11  -5  15   17.12    9.95
   5   6 -15   38.70   10.91
   6 -11 -15   24.38   11.41
  11  -5 -15   45.42   13.28
   6 -11 -15   16.18   10.97
   6 -11 -15   51.55   11.09
   5   6 -16  133.12   16.33
   6 -11 -16  100.19   16.15
  11  -5  16  128.70   18.05
   6 -11 -16  112.84   14.13
   5   6 -17   76.56   13.98
   5   6 -18   87.13   15.45
   4   7   0  471.02   22.81
   4   7   0  450.84   17.60
   4   7   0  448.14   17.28
  11  -4   0  431.22   26.03
   4   7   0  494.84   27.74
   7 -11   0  499.27   27.42
   4   7  -1    5.32    2.75
   4   7   1   -1.25    2.74
   4   7  -1   10.04    4.31
   4   7   1   10.72    4.39
   7 -11   1    0.85    5.34
   7 -11  -1   -4.80    7.25
  11  -4   1   -1.12    6.75
   4   7   1    3.53    5.77
   7 -11  -1   -2.28    6.51
  11  -4  -1    3.39    6.36
   4   7  -1   14.34    7.51
   4   7  -2   20.94    6.16
   4   7   2   20.26    3.62
   7 -11   2   20.50    7.06
   4   7  -2   21.73    3.63
   7 -11  -2   15.90    7.82
  11  -4  -2    6.18    7.18
  11  -4   2   26.11    7.75
  11  -4  -2   12.77    7.40
   4   7  -2   37.99    8.96
   7 -11  -2   22.81    7.64
   4   7   2   28.38    8.29
   7 -11   3  217.43   15.76
 -11   4  -3  231.63   11.48
   4   7   3  218.23   11.41
   7 -11  -3  271.67   22.00
  11  -4  -3  236.88   18.81
   7 -11  -3  235.50   18.12
   4   7   3  231.45   18.66
  11  -4   3  246.16   18.95
  11  -4  -3  218.72   18.36
   4   7  -3  211.88   18.42
   7 -11   4   -0.89    5.38
   4   7   4   -2.12    3.64
   7 -11  -4    1.09    5.98
 -11   4  -4   -1.19    3.52
   7 -11  -4   -1.58    7.63
  11  -4  -4   -1.22    6.86
   7 -11  -4    6.67    5.44
  11  -4   4    1.19    7.46
  11  -4  -4  -15.91    7.85
   4   7  -4    9.02    7.45
   7 -11  -4  -10.25    6.75
   4   7   4    2.46    6.35
   4   7   5   77.34   12.50
  11  -4   5   47.79   10.37
   7 -11   5   51.51    9.15
   7 -11  -5   62.89    9.97
   4   7   5   58.95    6.61
   4   7  -5   50.23    6.49
   7 -11  -5   58.21    8.96
   7 -11  -5   57.79   11.56
  11  -4  -5   76.70   11.31
   7 -11  -5   53.84    9.36
   4   7   5   56.30    7.41
   4   7  -5   60.11   10.91
   7 -11   6  500.53   26.18
   7 -11  -6  479.41   27.28
   4   7  -6  465.67   21.42
   7 -11  -6  513.36   31.76
  11  -4  -6  478.84   28.04
   7 -11  -6  480.03   25.10
   4   7  -6  421.29   16.88
   7 -11  -6  494.61   27.45
   4   7   6  448.75   21.52
   4   7   6  485.13   28.64
  11  -4   6  491.70   28.40
  11  -4   6  501.81   22.17
   4   7   7    4.06    7.73
  11  -4   7   -1.30    7.33
   7 -11  -7   -1.20    6.46
   4   7  -7    1.95    4.78
   7 -11  -7    0.95    4.80
  11  -4  -7   11.71    7.90
   7 -11  -7    3.33    7.71
   4   7  -7   -2.89    3.65
  11  -4   7    1.08    3.69
   4   7   7    1.64    3.79
   7 -11  -7    1.17    5.30
  -7  11  -7   -1.03    2.42
   4   7   8   -2.80    7.98
  11  -4   8    1.35    7.58
   7 -11  -8    1.26    6.26
   4   7  -8    2.19    4.96
  11  -4  -8    2.67    7.31
   7 -11  -8    5.09    7.37
   4   7   8    3.52    3.73
  11  -4   8    1.92    3.39
   7 -11  -8   -3.54    5.88
   7 -11  -8   -0.94    5.16
   4   7   9   94.15   14.34
  11  -4   9   73.89   12.95
   7 -11  -9   99.20   13.21
   4   7  -9   92.45   10.37
  11  -4  -9  101.25   16.60
  11  -4  -9  113.26   14.29
   7 -11  -9  121.32   15.83
   7 -11  -9   98.30   11.01
   7 -11  -9  115.82   12.79
  11  -4   9   94.56    7.37
   4   7  10   32.97   10.78
  11  -4  10    8.74    8.88
   7 -11 -10   22.83    8.75
   4   7 -10   20.77    6.95
  11  -4 -10   37.05   12.41
  11  -4 -10   35.84   10.32
   7 -11 -10   38.01   11.76
   7 -11 -10   25.44    7.49
   7 -11 -10   33.75    7.46
   4   7  11    1.57    8.59
  11  -4  11   -4.54    7.92
   4   7 -11   -0.98    6.10
  11  -4 -11   -9.84    9.99
  11  -4 -11   -4.44    8.78
   7 -11 -11   -3.74    9.65
   7 -11 -11   -1.23    6.03
   7 -11 -11    4.82    4.97
   4   7  12  329.23   25.57
  11  -4  12  348.80   25.65
   4   7 -12  279.91   20.50
  11  -4 -12  324.09   28.16
   7 -11 -12  297.84   19.77
  11  -4 -12  327.99   24.76
   7 -11 -12  364.94   28.57
   7 -11 -12  383.66   24.01
   4   7  13   54.14   12.81
  11  -4  13   39.20   11.81
  11  -4 -13  102.18   17.27
   4   7 -13   74.61   11.47
  11  -4 -13   61.45   12.81
   7 -11 -13   71.57   14.88
   7 -11 -13   72.74   11.95
   7 -11 -13   76.34   10.15
   4   7  14   -3.50    9.31
  11  -4  14   -8.51   10.45
  11  -4 -14    8.29   10.51
   4   7 -14    3.77    7.26
  11  -4 -14    4.87    8.90
   7 -11 -14   -6.12   12.81
   7 -11 -14   -1.30    7.87
   7 -11 -14   -6.84    6.83
   4   7  15  118.71   17.34
  11  -4  15  100.89   16.50
   4   7 -15  114.69   14.76
   7 -11 -15  103.12   16.04
  11  -4 -15  110.81   16.00
   7 -11 -15  110.78   12.29
   7 -11 -15  106.56   13.83
   4   7 -16  -11.53    8.86
   7 -11 -16   -3.62   10.74
  11  -4 -16   -3.48    9.12
   7 -11 -16    2.67    7.41
   7 -11 -16   -4.80    6.53
   7 -11 -17    7.56    9.59
   7 -11 -17    4.04    8.64
   3   8   0  163.18   13.59
  -8  11   0  172.77   16.53
  11  -3   0  171.09   16.23
   3   8   0  200.00   16.51
   3   8   1  474.17   25.44
  -8  11  -1  568.13   31.02
   3   8  -1  496.09   25.89
  -8  11   1  534.63   30.30
   8 -11  -1  498.96   32.73
 -11   3  -1  489.83   26.91
  11  -3   1  495.45   29.01
   3   8   1  542.52   29.15
  11  -3  -1  505.10   29.24
   3   8  -1  542.03   28.98
   3   8  -2   -1.73    6.32
  -8  11   2   12.06    7.13
   3   8   2    1.73    6.40
   8 -11   2    2.99    7.04
 -11   3  -2    3.95    6.54
   8 -11  -2   15.14    7.95
   3   8   2    2.28    7.00
  11  -3  -2   -1.27    6.63
   8 -11  -2    1.14    6.17
   3   8  -2    2.30    6.81
  11  -3   2    8.54    6.87
   8 -11   3  369.76   22.90
  -8  11   3  401.42   26.02
   8 -11  -3  376.16   28.05
  11  -3  -3  410.33   24.62
  11  -3  -3  401.00   25.66
   8 -11  -3  406.56   24.25
  11  -3   3  375.35   24.83
   3   8  -3  453.49   26.37
   3   8   3  356.22   23.95
   3   8   4   -1.19    7.15
 -11   3  -4    2.36    1.69
   3   8   4    2.20    1.73
  -8  11   4    6.72    7.47
   8 -11  -4    6.69    8.48
  11  -3  -4    4.51    6.85
  11  -3  -4   -2.65    7.77
   3   8  -4   -2.45    7.35
  11  -3   4    1.27    7.27
   8 -11  -4    2.31    6.32
   3   8  -5  471.18   17.52
   8 -11  -5  445.56   27.58
   3   8   5  455.13   18.41
  -8  11   5  462.35   28.57
   8 -11  -5  490.59   31.92
  11  -3  -5  530.41   27.92
   3   8  -5  431.01   17.09
   8 -11  -5  486.05   27.29
  11  -3   5  448.72   27.93
   3   8   5  469.82   27.77
  11  -3  -5  542.81   30.00
   3   8  -5  473.30   27.74
   3   8  -6  182.99   10.09
   8 -11  -6  132.48   15.35
   3   8   6  176.48   10.45
   8 -11  -6  215.95   21.08
  11  -3  -6  177.40   15.92
   3   8  -6  164.78    9.41
   8 -11  -6  192.41   16.49
   3   8   6  171.89   17.23
  11  -3   6  191.22   17.79
   3   8  -7  403.40   18.65
   8 -11  -7  378.39   26.12
  11  -3  -7  431.02   25.72
   8 -11  -7  410.28   23.26
   8 -11  -7  398.95   28.82
   3   8   7  389.43   19.76
   8 -11  -7  421.31   25.32
  11  -3   7  433.23   27.12
   3   8   7  407.50   26.35
  11  -3   7  403.94   18.87
   3   8   8    1.36    8.05
  11  -3   8    2.84    7.79
   3   8  -8    1.73    4.18
   8 -11  -8    2.83    7.19
  11  -3  -8   -1.23    6.93
   8 -11  -8   -2.87    5.87
   8 -11  -8   -3.55    9.44
   3   8   8    2.32    4.01
  11  -3   8    6.03    3.53
   8 -11  -8   -2.40    6.58
   3   8   9  188.61   18.98
   3   8  -9  193.56   13.58
  11  -3  -9  191.88   22.19
   8 -11  -9  226.35   20.22
   8 -11  -9  199.53   15.43
  11  -3  -9  221.04   18.57
   8 -11  -9  210.45   21.58
   8 -11  -9  202.43   17.27
  11  -3   9  182.44   10.16
  11  -3   9  201.17   19.44
  11  -3  10   -9.11   10.04
   3   8  10    2.95    8.41
   8 -11 -10   -4.51    8.80
   3   8 -10    3.89    5.10
  11  -3 -10   -5.81   10.45
  11  -3 -10   -2.68    7.23
   8 -11 -10    5.64    9.21
   8 -11 -10    1.23    6.35
   8 -11 -10   -1.91    4.92
  11  -3  11  145.92   17.89
   3   8 -11  165.34   13.95
   3   8  11  165.65   17.94
   8 -11 -11  158.21   18.05
  11  -3 -11  181.45   20.90
   8 -11 -11  178.14   20.36
   8 -11 -11  175.58   14.46
  11  -3 -11  190.79   17.74
   8 -11 -11  183.84   16.56
  11  -3  12   44.22   12.17
   3   8  12   63.58   13.28
   8 -11 -12   52.93   12.37
   3   8 -12   66.86   10.19
  11  -3 -12   51.78   14.16
  11  -3 -12   62.31   11.76
   8 -11 -12   55.63   13.76
   8 -11 -12   53.22   10.18
   8 -11 -12   53.95    9.27
   3   8  13  253.16   23.64
   3   8 -13  299.89   20.55
  11  -3  13  253.43   24.10
  11  -3 -13  267.89   25.86
   8 -11 -13  318.90   19.72
  11  -3 -13  290.24   23.56
   8 -11 -13  254.91   25.38
   8 -11 -13  272.80   21.12
  11  -3  14   -1.76    9.21
   3   8  14   -5.15   10.79
  11  -3 -14   -3.10    9.62
   8 -11 -14   -2.61    8.20
   8 -11 -14   -0.94    5.86
   3   8  15  176.28   20.30
  11  -3 -15  162.56   18.60
   8 -11 -15  157.26   14.19
   8 -11 -15  164.37   16.85
  11  -3 -16   -6.67   10.71
   8 -11 -16   -1.35    7.38
  -9  11   0   84.29   12.61
   2   9   0   64.32    9.96
   2   9   0   88.62   11.35
   9 -11   0   76.83   10.88
  11  -2   0   68.60   11.79
   2   9   1  105.50   12.37
  -9  11   1  128.30   14.76
  -9  11  -1  149.01   15.63
   2   9  -1  148.27   13.89
   9 -11  -1  118.84   16.54
   2   9  -1  136.90   13.89
  11  -2   1  120.94   14.58
   9 -11   1  143.22   13.97
   2   9   1  137.34   13.85
  11  -2  -1  146.89   15.85
   2   9   2    0.99    6.03
  -9  11   2    2.72    7.45
   2   9  -2    5.03    5.90
 -11   2  -2    0.89    5.95
   9 -11  -2   10.65   10.14
  11  -2  -2    9.59    7.92
  11  -2   2    9.19    7.60
   9 -11   2    6.89    6.47
   2   9  -2    8.59    6.74
   2   9   2    9.84    7.23
  -9  11   3    1.35    7.20
   9 -11  -3   -3.54    8.20
  11  -2   3   -2.69    7.15
  11  -2  -3    1.41    7.03
   2   9   3   -2.23    6.20
   2   9  -3    6.60    6.68
   9 -11  -3    3.49    6.19
   9 -11   3    2.30    5.83
   2   9   4    8.00    6.95
  -9  11   4    2.71    6.65
   9 -11  -4    7.06    8.34
  11  -2  -4    7.16    6.07
  11  -2  -4    2.86    6.62
   2   9  -4   11.42    7.41
   9 -11  -4    5.84    6.41
  11  -2   4    5.47    7.39
   2   9   5  105.69   13.53
  -9  11   5   88.79   13.24
   9 -11  -5  119.92   17.04
  11  -2  -5   91.25   11.12
  11  -2  -5  108.86   14.07
   9 -11  -5  113.69   12.95
  11  -2   5   83.47   13.52
   2   9  -5  116.62   13.30
  11  -2   6  125.75   15.41
   9 -11  -6  136.28   16.11
   9 -11  -6  152.01   18.77
  11  -2  -6  102.92   12.34
  -9  11   6  118.41   13.04
   2   9   6  130.45   14.45
   9 -11  -6  121.10   13.58
   2   9  -6  132.91   14.05
   9 -11  -7  166.07   18.35
  11  -2  -7  191.51   15.74
   9 -11  -7  154.86   19.15
  -9  11   7  147.15   14.97
   9 -11  -7  193.22   16.38
   2   9   7  175.46   17.30
  11  -2   7  165.46   17.45
   2   9   8    5.22    7.83
  11  -2   8   -4.52    7.89
   9 -11  -8   -6.26    8.82
  -9  11   8    1.19    6.31
  11  -2  -8   -2.24    6.23
  11  -2   8   -0.40    3.17
   9 -11  -8    4.83    6.02
   2   9   9   15.02   10.29
  11  -2   9   17.01    9.40
   9 -11  -9   22.75   10.86
  11  -2  -9   -9.40   11.95
  -9  11   9    7.45    7.46
  11  -2  -9   20.12    8.14
   9 -11  -9   17.10   10.57
   9 -11  -9   25.77    7.13
   9 -11  -9   17.03    8.29
  11  -2  10   -4.78    8.22
   2   9  10   -4.23    8.76
   9 -11 -10    3.31    8.39
  11  -2 -10  -17.19   10.61
  -9  11  10    5.18    7.30
   9 -11 -10   -0.97    5.15
  11  -2 -10   -2.47    7.51
   9 -11 -10   -7.84   11.05
   9 -11 -10   -1.24    6.48
  11  -2  11   47.60   11.87
   2   9  11   41.22   10.85
   9 -11 -11   42.65   11.71
  11  -2 -11   57.78   14.13
  11  -2 -11   66.03   11.35
   9 -11 -11   57.71   15.27
   9 -11 -11   39.60    8.44
   9 -11 -11   54.11   10.08
  11  -2  12   30.74   10.77
   2   9  12   27.48   10.53
   9 -11 -12   27.75   11.62
  11  -2 -12   55.44   14.24
  11  -2 -12   33.93   10.02
   9 -11 -12   28.58   12.58
   9 -11 -12   29.47    8.36
   9 -11 -12   28.61    7.86
  11  -2  13   78.87   14.41
   2   9  13   59.08   12.56
   9 -11 -13   73.18   14.76
  11  -2 -13   67.61   15.23
  11  -2 -13   67.95   12.42
   9 -11 -13   77.05   16.62
   9 -11 -13   70.62   10.01
   9 -11 -13   71.77   11.73
   2   9  14   -4.96   10.39
  11  -2 -14   -2.94    8.72
   9 -11 -14   -3.98    8.24
   9 -11 -14   -3.79    6.33
   2   9  15   19.08   10.90
  11  -2 -15    6.12    9.50
   9 -11 -15    0.92    6.38
  11  -2 -16   -3.19   10.75
 -10  11   0    1.35    8.66
   1  10   0    2.29    7.74
  10 -11   0    6.96    6.71
   1  10   0    9.02    6.37
  11  -1   0   14.53    8.51
 -10  11   1  193.79   18.48
   1  10   1  168.01   16.37
 -10  11  -1  200.57   18.24
   1  10  -1  184.72   16.61
 -10  11   1  184.06   14.07
  10 -11  -1  188.55   16.41
  11  -1   1  212.22   19.18
  10 -11   1  211.65   17.16
   1  10  -1  202.32   15.94
   1  10   1  184.23   15.49
  11  -1  -1  212.76   19.20
 -10  11   2  316.22   23.35
   1  10   2  332.42   21.90
 -10  11  -2  324.00   23.48
   1  10  -2  286.49   20.92
  10 -11  -2  346.26   27.24
 -10  11   2  321.30   19.45
   1  10  -2  319.63   20.37
   1  10   2  332.85   21.15
  10 -11   2  323.26   21.44
  11  -1   2  268.78   22.47
  11  -1  -2  288.90   23.03
 -10  11   3  578.48   33.25
   1  10   3  598.50   31.62
  10 -11  -3  612.06   37.77
 -10  11   3  540.30   28.90
  10 -11   3  620.71   31.92
  11  -1   3  607.51   34.26
   1  10   3  607.66   30.82
  11  -1  -3  577.38   34.27
   1  10  -3  590.47   30.21
 -10  11   4  280.71   21.90
  10 -11  -4  311.82   25.98
 -10  11   4  250.14   18.54
  10 -11  -4  268.86   20.00
   1  10   4  292.45   20.17
  10 -11   4  331.04   21.44
  11  -1  -4  289.27   23.19
  11  -1   4  272.32   21.77
   1  10  -4  261.88   18.96
   1  10   5   64.95   10.75
 -10  11   5   69.69   10.51
  10 -11  -5   86.11   15.56
  11  -1  -5   65.07    9.73
  11  -1  -5   62.01   12.70
  11  -1   5   63.63   12.30
   1  10  -5   75.27   11.19
  10 -11  -5   75.32   11.34
   1  10   6    1.15    7.24
  11  -1   6    3.02    8.97
 -10  11   6    4.59    6.28
  10 -11  -6    5.70    9.32
  11  -1  -6   -0.93    5.51
   1  10  -6    6.70    7.10
  10 -11  -6   25.14    7.92
  11  -1  -6   -4.67    9.24
   1  10   7  111.81   13.10
  11  -1   7  113.69   15.02
  10 -11  -7   76.10   14.58
  11  -1  -7   97.34   11.34
 -10  11   7   81.88   11.82
  10 -11  -7  112.30   16.71
  10 -11  -7   92.12   12.26
   1  10   8  212.16   18.09
  11  -1  -8  175.47   20.71
  10 -11  -8  179.86   20.66
 -10  11   8  230.89   18.39
  11  -1  -8  212.50   16.50
  10 -11  -8  208.18   22.48
  11  -1   8  203.02   20.17
  10 -11  -8  221.64   17.94
   1  10   9  333.35   23.60
  10 -11  -9  313.55   26.07
  11  -1  -9  323.85   27.26
 -10  11   9  348.75   23.87
  11  -1  -9  271.07   19.87
  10 -11  -9  279.56   26.49
  11  -1   9  353.81   25.95
  10 -11  -9  335.73   22.49
  11  -1  10  179.27   20.18
   1  10  10  172.79   17.74
  10 -11 -10  228.50   22.63
  11  -1 -10  207.85   21.70
 -10  11  10  202.38   18.33
  11  -1 -10  268.86   18.76
  10 -11 -10  207.14   22.33
  10 -11 -10  183.65   17.41
  11  -1  11  136.53   17.59
   1  10  11  128.63   15.82
  10 -11 -11  132.04   18.39
  11  -1 -11   83.75   15.96
 -10  11  11  122.83   14.86
  10 -11 -11   99.19   17.78
  11  -1 -11  131.71   14.08
  10 -11 -11  104.13   12.13
  10 -11 -11   88.14   12.79
  11  -1  12   14.15    9.84
   1  10  12   18.96    9.93
  10 -11 -12   -1.89   10.80
  11  -1 -12   13.53   10.29
  11  -1 -12    7.52    7.79
 -10  11  12   16.00    8.74
  10 -11 -12   12.61    6.85
  10 -11 -12    9.22    7.32
   1  10  13   77.47   13.58
  10 -11 -13   65.04    9.96
  11  -1 -13   59.42   11.40
  10 -11 -13   53.37   15.02
  11  -1 -13   82.51   16.70
   1  10  14  178.40   19.55
  11  -1 -14  158.82   17.74
  10 -11 -14  196.26   15.38
  10 -11 -14  180.06   22.25
   1  10  15  277.23   24.50
  11  -1 -15  283.78   22.96
  11  -1 -16   98.04   14.90
   0  11   0  708.41   36.99
 -11  11   0  719.07   38.12
 -11  11   0  733.07   32.78
  11   0   0  716.18   39.64
  11 -11   0  686.31   35.47
   0  11   0  714.43   33.79
 -11  11   1  235.71   20.24
   0  11   1  224.04   18.99
 -11  11  -1  221.87   19.51
   0  11  -1  203.47   18.72
 -11  11  -1  208.98   14.62
 -11  11   1  226.46   16.14
  11 -11  -1  213.53   17.70
  11 -11   1  210.32   17.44
   0  11   1  201.07   16.32
  11   0   1  226.58   20.67
   0  11  -1  215.43   16.27
  11   0  -1  245.28   21.56
   0  11   2   28.57    8.78
   0  11  -2   35.93   10.19
 -11  11   2   30.04    9.75
   0  11   2   34.65   10.12
 -11  11  -2   28.83   10.21
 -11  11  -2   18.69    5.87
 -11  11   2   24.64    8.16
  11 -11  -2   41.34   12.66
   0  11  -2   30.39    8.40
  11 -11  -2   31.21    8.37
  11 -11   2   17.49    8.20
  11   0  -2   33.10   10.66
  11   0   2   41.02   10.57
 -11  11   3 1932.73   77.82
   0  11   3 1764.08   75.64
  11 -11  -3 1969.99   84.74
 -11  11   3 1916.99   73.75
   0  11  -3 1950.39   73.00
  11 -11   3 2094.11   76.27
   0  11   3 1869.22   72.65
  11   0   3 1914.86   79.56
  11   0  -3 1961.14   80.85
   0  11   4   57.79   10.49
 -11  11   4   55.55   12.05
 -11  11   4   75.68   11.16
  11 -11  -4   84.84   16.28
  11   0  -4   91.88   14.41
  11 -11   4   57.69   10.08
   0  11  -4   59.86   10.48
  11   0   4   86.06   13.45
   0  11   5   58.37   10.20
 -11  11   5   62.24   10.54
  11 -11  -5   43.37   13.04
  11   0  -5   75.83   13.69
   0  11  -5   52.45    9.48
  11 -11   5   73.21   10.91
  11   0   5   50.41   11.82
   0  11   6  719.72   34.96
  11 -11  -6  741.21   43.80
  11   0  -6  739.16   32.47
 -11  11   6  701.61   36.24
  11   0   6  727.62   39.90
  11   0  -6  662.10   39.45
   0  11  -6  717.61   34.80
  11 -11  -6  716.92   36.32
   0  11   7   93.59   12.91
  11   0   7  110.31   15.85
  11   0  -7  107.87   11.24
 -11  11   7  123.17   14.27
  11 -11  -7  139.07   19.34
   0  11  -7  101.39   12.50
  11 -11  -7  114.84   13.36
   0  11   8   21.88    8.81
  11   0   8   11.66    9.65
  11 -11  -8   11.32   11.20
  11   0  -8   12.60    9.59
 -11  11   8   20.30    8.70
  11 -11  -8   22.58   12.03
  11   0  -8   15.78    6.91
  11 -11  -8   24.34    7.98
   0  11   9 1383.75   58.69
  11 -11  -9 1539.64   68.11
  11   0  -9 1368.55   65.69
 -11  11   9 1366.70   60.77
  11   0  -9 1442.51   56.29
  11 -11  -9 1438.50   68.68
  11   0   9 1397.61   64.25
  11 -11  -9 1324.16   59.33
  11   0  10   17.35   10.42
   0  11  10   27.66    8.95
  11 -11 -10    3.87    9.82
  11   0 -10    5.50    9.62
  11   0 -10   10.86    6.67
 -11  11  10   16.14    9.12
  11 -11 -10   16.70   12.68
  11 -11 -10    6.63    7.87
   0  11  11   95.63   13.84
  11   0 -11   99.24   12.23
 -11  11  11   92.47   14.15
  11 -11 -11  121.31   18.66
  11   0 -11   78.91   15.27
   0  11  12  350.94   25.88
  11 -11 -12  360.23   30.52
  11   0 -12  403.48   30.79
   0  11  13   79.27   13.54
  11 -11 -13  103.86   11.82
  11   0 -13  100.60   17.53
   0  11  14   15.02    9.65
   0  11  15  954.95   48.37
  -1  12   0  346.40   25.27
 -12  11   0  379.97   25.58
 -12  11   0  338.13   21.08
  12 -11   0  349.06   23.09
  11   1   0  365.99   27.37
  -1  12   0  380.01   20.95
  -1  12   1   10.80    6.26
  -1  12   1   14.46    8.79
  -1  12  -1    7.11    8.85
 -12  11   1   10.94    8.32
 -12  11  -1   14.95    8.54
 -12  11  -1   20.01    6.41
 -12  11   1   17.29    7.00
  11   1  -1   10.11   10.24
  11   1   1    4.95    9.42
  -1  12  -1   23.06    7.56
  12 -11  -1    9.78    7.52
  12 -11   1    8.40    6.68
  -1  12   2  210.93   19.48
 -12  11   2  194.64   18.36
  -1  12  -2  167.35   17.86
 -12  11  -2  201.62   18.94
 -12  11  -2  194.10   14.43
 -12  11   2  192.15   16.68
  12 -11  -2  238.73   18.16
  12 -11   2  199.42   17.06
  11   1   2  173.82   19.07
  -1  12  -2  201.98   14.87
  11   1  -2  144.25   18.18
  -1  12   2  187.70   14.95
  -1  12   3   99.61   14.68
 -12  11   3  123.33   15.11
  -1  12  -3  102.18   14.76
 -12  11  -3  128.13   16.02
 -12  11   3   87.40   12.33
 -12  11  -3  123.58   10.84
  11   1   3  137.55   17.52
  12 -11  -3  109.79   14.15
  -1  12  -3  100.68   11.56
  11   1  -3  132.88   17.71
  12 -11   3  116.19   13.47
  -1  12   3  114.61   11.77
  -1  12   4  282.36   18.76
  -1  12   4  276.83   22.70
 -12  11   4  275.91   21.65
 -12  11  -4  311.42   16.79
  -1  12  -4  325.36   19.40
  12 -11   4  360.39   22.40
  11   1  -4  302.16   25.87
  11   1   4  328.76   25.71
  12 -11  -4  316.82   22.06
  -1  12   5   23.74    7.95
 -12  11   5   33.75    9.59
  11   1   5   28.49   11.56
  11   1  -5   14.05   10.34
  12 -11   5   54.25    9.37
  -1  12  -5   36.22    7.74
  -1  12   6  406.51   23.24
 -12  11   6  376.14   26.00
  11   1   6  364.67   27.89
  12 -11   6  404.79   24.54
  11   1  -6  393.62   29.52
  -1  12  -6  416.34   23.18
  -1  12   7   19.85    7.60
  11   1   7   20.56   10.78
  11   1  -7   19.11   11.39
 -12  11   7   29.78   10.10
  11   1  -7   10.64    9.59
  -1  12  -7   15.59    7.62
  12 -11  -7    5.28    7.55
  -1  12   8  120.58   13.62
  11   1   8  148.86   18.43
  11   1  -8  169.13   19.44
  12 -11  -8  143.00   19.50
 -12  11   8  136.15   16.33
  -1  12  -8  132.51   13.78
  12 -11  -8  142.50   15.75
  -1  12   9  150.55   14.88
 -12  11   9  122.44   16.17
  11   1  -9  127.54   17.88
  12 -11  -9  147.22   20.32
  -1  12  10  194.38   17.39
 -12  11  10  153.22   18.41
  12 -11 -10  158.51   21.44
  11   1 -10  200.75   21.05
  11   1 -11   -7.26   10.76
  -1  12  11    4.88    8.14
  11   1 -12  261.41   24.69
  -1  12  12  195.02   18.56
  -2  12   0   25.62    6.65
  -2  12   0   42.65   11.66
 -12  10   0   24.65    9.31
 -12  10   0   18.77    8.34
  12 -10   0   24.90    9.47
  10   2   0   22.90   11.36
  -2  12  -1   69.82    8.38
  -2  12   1   62.31    8.16
  -2  12  -1   61.13   12.06
 -12  10  -1   59.55   11.64
 -12  10   1   74.02   11.57
  -2  12   1   83.91   13.45
 -12  10  -1   75.98   10.36
 -12  10   1   73.64   10.92
  12 -10   1  110.34   11.59
  10   2   1   58.00   12.86
  12 -10  -1   64.27   10.81
  10   2  -1   80.04   14.53
  -2  12   2   30.76    6.27
 -12  10  -2   14.74    8.61
  -2  12   2   -1.45    8.95
 -12  10   2   21.90    8.68
  -2  12  -2   18.49    9.34
 -12  10  -2   21.24    6.43
  12 -10  -2   17.49   10.52
 -12  10   2   16.62    9.09
  12 -10  -2   23.41    8.06
  12 -10   2   28.86    7.92
  10   2   2   22.20    9.65
  10   2  -2    4.94    9.54
  -2  12  -2   24.42    5.96
  -2  12   3   12.97    5.55
  -2  12   3    7.19    8.84
 -12  10  -3   -3.71    7.77
 -12  10  -3    9.61    6.21
  12 -10  -3   11.73   10.24
 -12  10   3   -1.26    7.90
  12 -10  -3    2.39    6.27
  10   2  -3   -3.34    9.67
  12 -10   3    6.56    6.24
  -2  12  -3    8.75    4.99
  10   2   3    3.22    8.56
  -2  12   4   19.32    6.41
  -2  12   4    5.80    8.72
 -12  10  -4   15.48    5.52
  12 -10  -4   37.16   11.89
 -12  10   4   10.61    8.07
  -2  12  -4   26.06    6.51
  10   2  -4    6.80    9.07
  12 -10  -4    8.53    7.24
  12 -10   4   39.39    8.56
  10   2   4   19.49    9.88
  -2  12   5   83.23    9.56
  12 -10  -5   72.37   14.58
   2 -12  -5   67.38   11.58
 -12  10   5   88.88   14.12
 -12  10  -5   77.25    8.58
  10   2  -5   85.54   15.31
  12 -10  -5   62.83   11.09
  12 -10   5   88.09   11.50
  -2  12  -5   80.09    9.07
  10   2   5   69.98   13.28
  -2  12   6   28.26    7.44
  10   2   6   16.47   10.37
  10   2  -6   15.36    9.98
  12 -10  -6   15.78   10.19
   2 -12  -6   21.46    8.93
 -12  10   6   20.31   10.43
  10   2  -6    8.59    9.58
  -2  12  -6   27.34    7.13
  12 -10   6   51.73   10.12
  -2  12   7   26.61    7.27
  10   2   7   35.18   11.02
  10   2  -7   23.43   10.28
  12 -10  -7   39.90   12.16
   2 -12  -7   39.81    9.93
 -12  10   7   34.74   10.52
  -2  12  -7   39.29    7.85
  12 -10   7   28.47    7.66
  10   2  -7   35.98   11.15
  -2  12   8   24.94    7.56
  10   2   8   39.31   11.66
  10   2  -8   31.46   11.41
  12 -10  -8   26.30   11.88
   2 -12  -8   24.94    9.38
 -12  10   8   12.58    9.36
  -2  12  -8   35.91    7.61
  -2  12   9   17.68    6.71
  10   2   9   13.94    9.84
  12 -10  -9   24.54   12.72
 -12  10   9   27.50   11.23
  10   2  -9   20.93    9.80
  12 -10  -9   14.53   11.06
  -2  12  10   27.33    8.12
  10   2  10   31.99   12.23
  12 -10 -10   20.61   11.16
 -12  10  10   24.95   10.36
  10   2 -10   16.23    9.42
  12 -10 -10   29.45   12.95
  -2  12  11   55.01   10.36
  10   2 -11   54.93   13.62
  12 -10 -11   53.00   15.16
 -12  10  11   40.76   11.77
  10   2 -12   23.53   11.77
  10   2 -13   56.62   12.84
 -12   9   0  461.08   25.90
  -3  12   0  434.43   28.10
   3 -12   0  445.98   24.85
  12  -9   0  368.27   20.78
  -3  12   0  411.34   18.53
  12  -9   0  492.46   26.10
  -3  12  -1   76.85   12.01
 -12   9  -1   46.46    9.22
  -3  12   1   47.32   10.55
 -12   9   1   38.31    8.81
  -3  12   1   37.89    5.55
  12  -9   1   38.71    7.33
  -3  12  -1   44.35    5.73
   3 -12  -1   39.74    8.22
  12  -9  -1   42.20    8.77
  12  -9   1   52.70    9.21
  12  -9  -1   45.84    7.34
   3 -12   1   44.91    8.67
  -3  12   2    1.87    3.79
  -3  12   2   10.21    7.88
 -12   9  -2    2.18    7.33
 -12   9   2   -5.39    7.99
  -3  12  -2   12.84    8.36
  12  -9  -2    1.84    8.84
  12  -9  -2   -2.25    6.24
  12  -9   2    6.19    5.66
  12  -9  -2   -1.41    5.55
   3 -12   2    8.07    6.06
  -3  12   3   40.40    5.86
  -3  12   3   53.31   11.09
 -12   9  -3   43.78    9.00
  12  -9  -3   40.06    8.53
  -3  12  -3   40.72    5.83
  12  -9   3   40.75    8.34
   3 -12   3   50.58    8.53
  12  -9  -3   47.36    7.67
  -3  12   4    5.53    4.38
  -3  12   4    5.78    7.33
  12  -9  -4   14.73    9.95
   3 -12  -4    5.39    7.49
  -3  12  -4   13.12    4.54
  12  -9   4    1.99    5.30
   3 -12   4    8.78    6.06
   3 -12  -4    4.36    5.54
  -3  12   5    3.07    4.47
  -3  12   5   -1.47    8.39
  12  -9  -5   12.89    9.34
   3 -12  -5   -1.36    7.34
 -12   9  -5   -1.48    4.88
  12  -9   5   -0.97    5.51
  -3  12  -5    5.18    4.36
   3 -12   5   -3.83    5.82
   3 -12  -5    1.11    5.73
  -3  12   6  491.36   23.89
   9   3  -6  500.95   30.34
  12  -9  -6  547.98   35.54
   3 -12  -6  543.03   31.29
 -12   9  -6  507.37   23.87
 -12   9   6  481.92   31.64
   3 -12   6  511.69   26.77
  12  -9   6  516.84   26.68
  -3  12  -6  519.13   23.73
  -3  12   7   16.23    5.96
   9   3  -7   10.97    8.24
  12  -9  -7   11.33    9.58
   3 -12  -7    9.72    8.13
 -12   9   7    9.59    9.36
  -3  12  -7    5.51    5.03
  12  -9   7   -0.92    6.23
   3 -12   7    7.34    5.31
  -3  12   8   -2.39    5.99
   9   3  -8    4.23    9.24
   3 -12  -8   -4.27    8.12
  12  -9  -8    5.76    9.58
 -12   9   8   -6.66   11.54
  12  -9   8   -8.01    7.87
   3 -12   8    6.26    5.62
  -3  12   9   15.55    6.58
   9   3  -9   15.74    8.71
  12  -9  -9   31.15   11.56
   3 -12  -9   17.36    8.91
  12  -9  -9   19.47    9.90
 -12   9   9   16.93   10.54
   3 -12   9   26.05    6.95
  -3  12  10   -2.79    6.39
   9   3 -10   -2.95    7.85
  12  -9 -10   -2.11   11.07
   3 -12 -10    1.49    8.40
  12  -9 -10    3.88   10.17
 -12   9  10   -1.73    9.20
   3 -12  10    0.84    5.56
  -3  12  11    8.08    6.35
   9   3 -11   11.97    8.88
  12  -9 -11   12.77   11.33
   3 -12 -11   -3.10   10.26
  12  -9 -11    3.94   10.00
 -12   9  11    3.54    9.27
   3 -12  11    3.29    5.80
   9   3 -12  335.54   26.24
   3 -12 -12  365.89   27.45
   3 -12 -13    3.37    8.84
   3 -12 -14   -1.76    9.36
   3 -12 -15   36.60   12.74
  -4  12   0   18.60   10.19
 -12   8   0    7.35    7.43
  12  -8   0   17.42    6.86
  12  -8   0   17.71    7.63
   4 -12   0   26.65    8.34
   8   4   0   15.41    9.48
 -12   8  -1  111.38   12.56
  -4  12   1  103.80   14.14
   8   4   1  111.96   12.08
 -12   8   1   77.46   11.01
  -4  12  -1   95.28   13.96
  -4  12   1   73.71    4.61
   8   4   1  115.21   15.43
  12  -8   1   93.40   11.01
  12  -8  -1   93.11   10.80
   8   4  -1   95.33   14.71
   4 -12   1   88.22   10.78
   4 -12  -1   97.21   11.24
  12  -8   1  129.36   12.71
   8   4   2  154.12   13.59
  -4  12   2  132.87    7.15
  -4  12   2  150.92   16.90
 -12   8  -2  137.21   13.51
  12  -8  -2  164.11   19.06
   4 -12   2  171.70   14.26
  12  -8  -2  145.87   13.11
   8   4   2  162.32   17.21
  12  -8   2  152.30   13.26
  -4  12  -2  134.60    6.72
   8   4  -2  209.69   19.96
  12  -8   2  175.74   14.07
  -4  12   3   80.29    6.15
  12  -8   3   77.16   10.49
  -4  12   3   97.56   14.02
 -12   8  -3   96.06   11.64
  12  -8  -3   82.63   14.34
   4 -12  -3  101.28   14.32
   4 -12   3  102.22   11.62
   8   4  -3  103.95   15.13
  12  -8   3   94.58   11.07
  -4  12  -3   86.88    5.93
  12  -8  -3   74.83   10.18
   8   4   3   96.59   14.51
  -4  12   4   23.62    4.46
  12  -8   4   32.73    7.95
  -4  12   4   21.68    8.51
  12  -8  -4   29.44   10.80
   4 -12  -4   33.17    9.86
  -4  12  -4   29.00    4.45
   8   4  -4   34.01   10.85
  12  -8  -4   26.35    7.58
  12  -8   4   29.68    7.04
   8   4   4   33.56    9.93
   4 -12   4   34.53    7.73
   4 -12  -4   32.84    8.14
  -4  12   5  154.52   10.59
  12  -8   5  226.86   16.23
  -4  12   5  182.13   18.30
   8   4  -5  201.16   17.17
  12  -8  -5  224.90   21.83
   4 -12  -5  183.61   18.19
   4 -12  -5  202.02   16.49
   4 -12   5  184.65   15.04
   8   4   5  205.12   19.41
  -4  12  -5  182.06   10.67
  12  -8   5  212.18   15.22
   8   4  -5  208.99   20.55
  12  -8  -5  205.55   15.92
  12  -8   6    7.87    6.76
  -4  12   6    7.66    4.23
   8   4   6   18.69    9.46
   8   4  -6   12.82    7.33
  12  -8  -6    8.80    9.92
   4 -12  -6    1.47    7.57
  12  -8  -6    8.01    6.82
  -4  12  -6    2.78    3.87
  12  -8   6    6.89    5.53
   4 -12   6    1.81    5.55
   4 -12  -6    1.08    5.94
   8   4  -6    1.62    8.76
  -4  12   7  157.60   11.56
  12  -8   7  154.12   14.74
   8   4  -7  174.64   16.21
   4 -12  -7  170.90   17.80
  12  -8  -7  184.07   20.01
   4 -12  -7  173.77   15.37
   4 -12   7  152.36   13.62
  12  -8   7  156.15   12.91
   8   4   7  210.08   19.45
  -4  12  -7  141.55   10.93
  12  -8   8   -4.29    8.67
  -4  12   8   12.11    5.66
   8   4   8   12.98    8.51
   8   4  -8   12.40    7.37
   4 -12  -8   10.64    9.24
  12  -8  -8   21.78   10.64
  12  -8   8   23.83    6.34
   4 -12   8    8.67    6.08
   4 -12  -8   29.97    7.91
  12  -8   9   33.77    9.77
  -4  12   9   36.31    7.61
   8   4   9   28.12   10.88
   8   4  -9   38.10    9.68
   4 -12  -9   16.95    9.94
  12  -8  -9   20.12   10.76
   4 -12   9   34.84    8.01
   4 -12  -9   38.38    9.40
   8   4  10   44.13   11.71
  -4  12  10   74.63    9.49
  12  -8  10   67.55   11.25
   8   4 -10   64.49   11.72
  12  -8 -10   67.72   14.66
   4 -12 -10   69.03   13.44
  12  -8 -10   66.56   13.94
   4 -12  10   51.47    8.15
   8   4  11  101.20   15.66
  12  -8  11   48.59   10.80
  12  -8 -11   59.75   15.84
   4 -12 -11   74.66   13.66
  12  -8 -11   53.00   13.87
 -12   8  11   64.25   14.40
   4 -12  11   92.19   10.15
  12  -8  12   11.84    8.88
  12  -8 -12   15.13   12.34
   4 -12 -12    3.47   10.65
  12  -8 -12    3.81   10.45
 -12   8  12   22.67   13.21
   4 -12  12   15.07    6.58
   4 -12 -13   97.41   16.80
   4 -12  13  131.74   11.69
   4 -12 -14   58.10   14.11
   4 -12 -15   11.65   11.79
   8   4 -16  -10.20   10.45
   7   5   0  560.47   27.27
 -12   7   0  603.79   27.83
  -5  12   0  592.36   33.68
   5 -12   0  601.01   29.96
   7   5   0  571.44   34.12
  12  -7   0  575.54   29.39
   7   5   1   74.87    9.57
 -12   7  -1   87.62    9.57
  -5  12   1  115.07   14.20
  -5  12  -1  106.86   13.61
  12  -7  -1   74.85   10.94
   7   5   1   65.64   12.48
  12  -7   1   60.27   10.24
   7   5  -1   90.44   13.88
   5 -12   1   62.45    9.91
   7   5   2   32.87    8.10
 -12   7  -2   36.75    8.37
  -5  12   2   53.60   10.96
  12  -7  -2   60.06   12.64
  12  -7   2   32.39    8.08
  12  -7   2   34.42    9.23
   7   5  -2   25.70    9.36
   7   5   2   55.86   11.40
   5 -12   2   55.86    9.39
  12  -7  -2   22.49    8.29
   7   5   3 1197.61   46.89
  -5  12   3 1157.33   53.58
 -12   7  -3 1152.64   46.75
   7   5  -3 1142.86   47.69
  12  -7  -3 1218.55   55.90
   5 -12  -3 1175.84   54.87
   5 -12   3 1183.25   48.84
   5 -12  -3 1194.65   49.41
  12  -7   3 1181.10   49.31
   7   5   3 1147.40   53.75
   7   5  -3 1110.93   54.22
  12  -7  -3 1155.20   48.96
  12  -7   3 1121.46   47.68
  12  -7   4   31.05    8.73
   7   5   4   27.99    7.49
   7   5  -4   28.88    8.19
  -5  12   4   40.52   10.34
  12  -7  -4   43.71   11.55
   5 -12  -4   13.86    9.82
   7   5  -4   31.39   11.11
  12  -7  -4   30.16    8.39
  12  -7   4   32.89    7.62
   7   5   4   26.49    9.97
   5 -12   4   38.52    8.49
   5 -12  -4   19.31    7.59
  12  -7   5   28.72    8.10
   7   5   5   35.24    7.68
   7   5  -5   20.30    7.15
  -5  12   5   14.67    9.25
  12  -7  -5   34.03   10.43
   5 -12  -5   35.25    9.66
   7   5  -5   34.63   10.64
  12  -7  -5   31.21    8.55
   7   5   5   16.32    9.15
  12  -7   5   24.84    6.69
   5 -12   5   19.36    6.66
   5 -12  -5   20.42    7.43
   7   5   6  249.02   17.73
   7   5  -6  275.91   19.02
  12  -7  -6  320.99   24.91
   5 -12  -6  303.68   23.81
   5 -12  -6  260.01   18.67
   5 -12   6  268.15   18.07
  12  -7   6  315.73   17.89
   7   5   6  296.73   22.98
  12  -7  -6  260.38   19.52
   7   5  -6  317.27   24.11
  12  -7   6  251.08   19.21
  12  -7   7   19.39    8.13
  -5  12   7   21.13    4.74
   7   5   7   27.68   10.38
   7   5  -7   20.76    7.41
   5 -12  -7   19.04    9.08
  12  -7  -7    5.06    8.43
  12  -7   7   17.25    5.92
   5 -12   7   10.79    6.31
   5 -12  -7   18.08    7.39
  12  -7   8   -7.16    9.51
  -5  12   8    1.07    4.42
   7   5   8    6.35    8.32
   7   5  -8    5.40    6.85
   5 -12  -8    8.10    7.94
  12  -7  -8   17.13    9.91
  12  -7   8   -4.22    4.83
   5 -12   8    4.41    5.48
   5 -12  -8    1.08    6.65
  12  -7   9  544.29   32.03
   5 -12   9  630.63   29.77
   5 -12  -9  655.49   32.28
   5 -12  -9  584.38   35.85
  12  -7  -9  628.53   37.46
  12  -7   9  621.37   27.41
   7   5   9  599.52   36.18
   7   5  10    3.33    9.25
  12  -7  10    3.90    8.08
  12  -7 -10    8.46   10.91
   5 -12 -10    5.13    8.52
  12  -7 -10    5.28    9.52
   5 -12  10   12.74    6.44
   5 -12 -10   15.39    6.98
   7   5  11   20.54   11.10
  12  -7  11    9.52    8.64
  12  -7 -11    6.42   11.21
   5 -12 -11   -1.77    9.11
  12  -7 -11    8.99    9.42
   5 -12 -11   21.25    8.43
   5 -12  11   14.08    6.14
   5 -12 -11   12.33    6.74
  12  -7  12  221.94   20.21
   7   5  12  183.00   20.86
  12  -7 -12  175.16   22.14
   5 -12  12  193.98   14.32
   5 -12 -12  203.99   21.65
  12  -7 -12  182.55   20.64
   5 -12 -12  199.74   18.05
  12  -7  13   35.76   11.14
   5 -12 -13    5.72    9.85
  12  -7 -13    9.30   11.70
   5 -12 -13   32.52    9.22
   5 -12  13   20.82    6.77
  12  -7  14   17.17   10.43
   7   5 -14   -1.48    8.56
   5 -12 -14    7.89   10.66
   5 -12 -14    7.50    7.69
   7   5 -15  766.97   40.67
  12  -7  15  650.68   39.56
   7   5 -16   19.50   10.87
  12  -7  16   18.59   10.75
   6   6   0   -2.90    4.99
  -6  12   0  -14.26    8.14
   6 -12   0    0.99    5.81
  12  -6   0   -7.42    7.60
   6   6   0    1.42    8.11
   6   6  -1  113.04    9.97
   6   6   1  129.31   10.42
 -12   6  -1  112.05   10.09
  -6  12  -1  143.28   15.45
  -6  12   1  152.57   15.72
   6 -12  -1  109.80   10.81
   6 -12   1  111.13   12.12
  12  -6  -1  107.72   12.91
   6   6   1  114.39   14.45
   6   6  -1  105.19   14.35
  12  -6   1  113.79   12.83
   6   6   2  223.48   13.74
  -6  12   2  227.71   19.36
 -12   6  -2  192.21   13.12
   6   6  -2  168.75   11.56
   6 -12  -2  179.48   13.77
   6   6  -2  209.31   13.75
   6 -12   2  223.61   16.30
   6 -12  -2  216.96   20.39
  12  -6  -2  245.72   20.69
   6   6   2  197.94   18.35
  12  -6   2  180.15   16.00
   6   6  -2  212.88   19.05
  12  -6  -2  212.72   16.86
   6   6   3  371.13   18.90
  -6  12   3  359.23   24.97
   6 -12  -3  307.83   19.08
   6   6  -3  369.58   19.34
 -12   6  -3  371.99   18.67
   6   6  -3  298.83   16.56
   6 -12   3  322.14   20.75
   6 -12  -3  424.41   28.32
  12  -6  -3  407.31   26.63
   6 -12  -3  330.87   20.75
  12  -6   3  336.38   22.22
   6   6   3  321.06   24.09
   6   6  -3  355.53   25.35
  12  -6  -3  333.54   22.24
   6   6   4  325.77   17.86
  -6  12   4  294.85   23.10
 -12   6  -4  339.71   17.99
   6   6  -4  285.71   16.09
   6 -12  -4  329.38   18.85
   6   6  -4  328.07   18.33
   6 -12   4  281.19   19.54
   6 -12  -4  317.02   24.94
  12  -6  -4  354.59   25.01
   6 -12  -4  347.59   21.01
  12  -6   4  271.16   20.30
   6   6   4  313.36   23.44
   6   6  -4  320.85   24.27
  12  -6  -4  333.82   22.08
  12  -6   4  292.67   18.18
  12  -6   5   31.66    9.12
   6 -12  -5   43.63    8.03
   6   6  -5   38.36    7.57
  -6  12   5   36.74   10.36
   6   6   5   41.30    7.65
   6 -12  -5   45.40   11.01
  12  -6  -5   46.95   11.21
   6 -12   5   53.09    8.75
   6   6  -5   42.57   11.43
  12  -6  -5   38.00    9.55
   6   6   5   48.93   11.31
  12  -6   5   38.97    7.44
   6 -12  -5   48.30    8.92
   6   6   6   16.24    8.57
  12  -6   6   15.68    8.01
   6 -12  -6   33.10    7.73
   6   6  -6   24.39    6.77
   6 -12  -6   21.38   10.01
  12  -6  -6   21.65    9.53
   6 -12   6   30.91    7.55
  12  -6   6   23.29    5.88
   6   6   6   24.73    5.48
   6 -12  -6   31.36    8.65
   6 -12  -6   13.49    6.90
   6   6  -6   18.24   10.08
  12  -6   7  129.73   14.51
   6   6   7  138.75   17.18
   6 -12   7  112.72   11.84
   6 -12  -7  130.93   16.52
  12  -6  -7  142.26   16.86
  12  -6   7  134.64   10.97
   6 -12  -7   99.42   12.95
   6 -12  -7  101.77   11.64
  12  -6   8  262.09   20.75
   6 -12   8  250.40   17.56
   6 -12  -8  273.43   18.60
   6 -12  -8  260.86   23.04
  12  -6  -8  247.96   22.31
  12  -6   8  265.23   15.42
   6 -12  -8  277.92   20.31
   6   6   8  291.31   23.33
  12  -6   9  221.33   19.39
   6 -12   9  214.37   16.00
   6 -12  -9  221.32   16.87
   6 -12  -9  224.11   21.24
  12  -6  -9  204.40   20.86
  12  -6   9  195.33   12.77
   6 -12  -9  234.87   18.82
   6   6   9  225.78   21.16
  12  -6  10  263.50   21.92
  12  -6 -10  230.43   25.51
   6 -12  10  247.95   17.26
   6 -12 -10  269.80   19.11
   6 -12 -10  279.63   24.60
  12  -6 -10  320.97   25.21
   6   6  10  257.07   23.46
   6 -12 -10  323.65   21.88
   6   6  11   69.15   14.18
  12  -6  11   93.28   13.65
  12  -6 -11   57.87   14.92
   6   6 -11   98.05   12.70
   6 -12 -11   65.04   14.19
  12  -6 -11   61.27   13.22
   6 -12  11   83.01    9.88
   6 -12 -11   84.62   12.30
   6 -12 -11   77.52   10.69
   6   6  12   14.03   10.67
  12  -6  12   13.60    8.87
  12  -6 -12   15.12   11.68
   6   6 -12   24.68    8.64
   6 -12 -12   15.45    9.64
  12  -6 -12   12.19   10.08
   6 -12  12   19.14    6.42
   6 -12 -12    7.75    7.10
   6 -12 -12   20.70    7.15
   6   6  13   43.22   12.77
  12  -6  13   22.10   10.21
   6   6 -13   55.05   11.07
   6 -12 -13   47.84   13.38
  12  -6 -13   51.56   13.13
   6 -12 -13   44.28   10.80
   6 -12  13   53.79    8.74
   6 -12 -13   25.17    8.64
  12  -6  14  167.45   19.24
   6   6 -14  192.96   18.72
  12  -6 -14  165.67   20.06
   6 -12  14  170.00   13.54
   6 -12 -14  224.13   24.24
   6 -12 -14  206.65   18.26
  12  -6  15  146.31   18.52
   6 -12 -15  174.77   17.31
   5   7   0   26.25    4.74
   5   7   0   38.44    6.91
   5   7   0   19.10    5.15
   5   7   0   28.31    9.79
  12  -5   0   31.58    8.43
   5   7  -1  188.13   13.29
   5   7  -1  198.21   11.48
   5   7   1  220.37   11.34
   5   7  -1  213.47   11.17
  12  -5  -1  223.21   18.29
   5   7   1  182.95   17.91
  12  -5   1  216.89   17.85
   5   7  -1  206.59   18.73
   5   7  -2    5.03    4.38
   5   7   2    9.85    3.95
   5   7  -2    1.36    5.30
   5   7  -2    5.89    4.23
   7 -12  -2   15.29    6.81
   7 -12  -2    8.62    9.04
  12  -5   2    9.49    7.45
   5   7  -2   11.00    8.82
  12  -5  -2    4.75    7.93
   5   7   2    2.67    7.72
   5   7  -3   61.99    8.69
 -12   5  -3   74.55    7.28
   7 -12  -3   77.29   10.89
   5   7   3   84.08    7.76
   7 -12  -3   97.55   14.48
  12  -5  -3   91.90   13.33
   7 -12  -3   80.67   10.53
  12  -5   3   74.61   12.21
   5   7  -3   84.51   13.66
  12  -5  -3   80.64   12.29
   5   7   3   89.50   13.70
   7 -12  -3  103.34   12.87
  12  -5   4    9.85    7.48
 -12   5  -4    4.91    4.48
   7 -12  -4    3.06    6.62
   7 -12  -4   15.44    8.85
  12  -5  -4    1.41    7.95
   7 -12  -4   11.27    6.30
  12  -5  -4   -1.27    7.97
   5   7  -4   23.16    9.85
   7 -12  -4    1.26    7.01
   5   7   4    1.37    8.20
   7 -12  -5  250.54   18.39
   7 -12  -5  248.07   22.41
  12  -5  -5  243.62   20.46
   7 -12  -5  273.38   18.49
   7 -12  -5  282.70   20.49
   5   7   5  217.72   19.76
  12  -5   5  229.91   19.11
  12  -5  -5  213.45   18.80
   5   7  -5  245.20   21.19
  12  -5   5  238.08   15.21
   5   7   6   65.34   12.42
  12  -5   6   60.04   11.38
   7 -12  -6   51.10    9.64
   7 -12  -6   85.01   14.05
  12  -5  -6   60.30   11.45
  12  -5   6   65.91    8.05
   7 -12  -6   65.53   10.87
   7 -12  -6   55.22    9.29
   5   7  -6   64.65   12.47
   7 -12  -7  182.34   16.99
   5   7  -7  222.66   14.60
   7 -12  -7  260.50   22.92
  12  -5  -7  223.27   20.24
   7 -12  -7  216.37   16.85
  12  -5   7  222.24   13.94
  12  -5   7  231.48   19.50
   5   7   7  230.00   20.67
   7 -12  -7  251.61   19.47
  12  -5   8    4.15    7.99
   5   7   8   -7.53    8.25
   7 -12  -8   -5.84    8.16
   5   7  -8    7.12    5.81
  12  -5  -8    3.01    8.00
   7 -12  -8   -1.81    8.36
  12  -5   8    0.57    4.07
   7 -12  -8   -1.27    6.24
   7 -12  -8   -4.18    6.64
   5   7   9   31.07   10.31
  12  -5   9   27.13   10.11
   5   7  -9   22.58    6.97
  12  -5  -9   51.75   12.24
   7 -12  -9   36.52   11.38
  12  -5   9   26.71    5.47
   7 -12  -9   39.80    9.18
   7 -12  -9   18.92    6.80
   5   7  10    6.41    8.78
  12  -5  10    4.47    9.36
   5   7 -10    9.41    6.16
  12  -5 -10    1.57    8.75
   7 -12 -10    5.67    9.59
   7 -12 -10    7.78    7.21
   7 -12 -10    3.14    5.66
   5   7  11  120.03   17.00
  12  -5  11  133.39   17.01
   5   7 -11  130.36   13.27
   7 -12 -11  125.97   13.16
  12  -5 -11  155.97   17.85
   7 -12 -11  138.33   18.34
   7 -12 -11  133.19   15.09
   5   7  12   24.11   10.28
  12  -5  12   28.80   11.15
   5   7 -12   29.75    8.49
  12  -5 -12   36.40   11.63
   7 -12 -12   44.20   12.67
   7 -12 -12   44.87   10.07
   7 -12 -12   52.29    9.60
   5   7  13   74.68   14.90
  12  -5  13   61.10   13.69
  12  -5 -13   55.93   12.95
   7 -12 -13   51.70   13.99
   7 -12  13   89.01   10.74
   7 -12 -13   72.10   12.50
   7 -12 -13   81.78   11.41
  12  -5  14   10.35    9.97
   7 -12  14   -0.83    6.40
  12  -5 -14   -5.23   10.34
   7 -12 -14   16.25    8.42
   7 -12 -14    3.20    6.70
   7 -12 -15   28.72    9.67
   7 -12 -15   17.12    8.08
   4   8   0  852.50   38.04
  -8  12   0  918.20   45.58
  12  -4   0  901.64   43.22
   4   8   0  951.43   44.27
   4   8  -1  591.98   29.66
  -8  12  -1  689.09   36.95
   4   8   1  601.08   29.75
  -8  12   1  675.06   36.70
   4   8  -1  655.90   35.30
   8 -12  -1  647.26   34.11
  12  -4   1  609.83   33.83
   4   8   1  664.74   34.98
  12  -4  -1  702.76   35.67
   4   8  -2   59.82   10.15
  -8  12   2   92.95   14.12
   8 -12  -2   63.51   13.53
   4   8   2   71.78   12.71
  12  -4  -2   81.51   12.71
   8 -12  -2   77.10   11.34
   4   8  -2   80.16   13.26
  12  -4   2   66.64   11.79
  -8  12   3 1093.84   51.07
   4   8  -3  976.50   43.04
   8 -12  -3 1162.83   55.23
  12  -4  -3 1086.25   49.02
   8 -12  -3 1123.94   48.74
  12  -4   3 1049.42   48.78
  12  -4  -3 1010.72   48.63
   4   8  -3 1077.52   49.25
   4   8   3 1017.86   48.33
 -12   4  -4   14.72    3.53
   8 -12  -4   15.96    7.64
  -8  12   4   14.68    9.33
   8 -12  -4   34.29   11.22
  12  -4  -4   10.42    8.80
   8 -12  -4    7.47    6.65
  12  -4  -4   -1.37    9.27
   4   8   4   26.45   10.26
   4   8  -4   26.08    9.77
  12  -4   4   10.58    9.10
   8 -12  -4   12.57    7.56
   4   8  -5  810.96   30.32
  -8  12   5  869.83   43.79
 -12   4  -5  806.88   30.70
   8 -12  -5  802.18   40.55
   8 -12  -5  950.98   40.22
   8 -12  -5  955.34   47.96
  12  -4  -5  860.37   41.66
   8 -12  -5  828.85   40.82
  12  -4   5  826.67   41.49
   4   8   5  889.28   42.62
  12  -4  -5  886.44   43.06
   4   8  -5  932.57   43.59
   8 -12  -6  549.45   31.95
   8 -12  -6  660.30   38.55
  12  -4  -6  570.30   32.71
   8 -12  -6  620.72   30.73
   8 -12  -6  636.90   33.02
  12  -4  -6  546.47   32.81
   4   8  -6  610.19   34.01
  12  -4   6  627.06   33.92
  12  -4   6  545.68   25.82
   4   8   6  571.39   33.22
   8 -12  -7  497.65   30.68
   8 -12  -7  551.95   36.25
  12  -4  -7  581.08   32.36
   8 -12  -7  553.19   29.09
   8 -12  -7  594.43   31.79
  12  -4   7  556.08   32.49
   4   8   7  504.34   31.88
  12  -4   7  568.83   24.75
  12  -4   8   19.06    9.71
   4   8   8   16.19    9.36
   8 -12  -8   32.67    9.62
  12  -4  -8   20.92    9.42
   8 -12  -8    5.68    9.14
  12  -4   8   18.03    4.57
   8 -12  -8   15.44    7.65
   8 -12  -8   29.16    7.68
   4   8   9  696.01   38.90
   8 -12  -9  628.38   36.41
   8 -12  -9  767.34   34.97
  12  -4  -9  702.49   38.02
   8 -12  -9  727.14   42.93
  12  -4   9  708.23   38.96
   8 -12  -9  685.22   36.27
  12  -4  10   28.01   11.28
   4   8  10   25.16   10.83
   8 -12 -10   18.74    8.69
  12  -4 -10   31.54   12.34
  12  -4 -10   17.64    9.66
   8 -12 -10   37.34   13.15
   8 -12 -10   18.44    8.04
   8 -12 -10   34.73    8.02
  12  -4  11  286.87   24.21
   4   8  11  293.68   24.53
  12  -4 -11  269.34   27.27
   8 -12 -11  275.69   19.59
  12  -4 -11  312.26   24.54
   8 -12 -11  350.25   28.77
   8 -12 -11  336.00   23.23
  12  -4  12  547.63   34.36
   4   8  12  523.66   34.41
  12  -4 -12  539.32   38.75
   8 -12 -12  582.12   29.77
  12  -4 -12  558.70   34.19
   8 -12 -12  588.54   38.74
   8 -12 -12  554.21   32.37
  12  -4  13  458.69   32.46
   4   8  13  502.41   34.11
   8 -12 -13  488.27   27.40
  12  -4 -13  539.47   33.09
   8 -12 -13  557.27   31.44
  12  -4 -14   21.60    9.98
   8 -12 -14    2.78    9.02
   8 -12 -14   13.74    7.33
   8 -12 -15  480.82   26.74
  12  -4 -15  453.66   32.20
   3   9   0 3103.90  111.74
  -9  12   0 3164.43  118.54
  12  -3   0 3256.84  117.58
   3   9   0 3141.46  114.81
   3   9   1   29.49    8.31
  -9  12  -1   17.72    9.01
  -9  12   1   36.85    9.88
   3   9  -1   35.97    8.96
   3   9  -1   35.28    9.40
  12  -3   1   20.46    8.24
   9 -12   1    5.07    8.26
   3   9   1   38.86    9.38
  12  -3  -1   44.43    9.83
  -9  12   2  243.29   20.43
  -9  12  -2  217.69   19.80
   3   9  -2  190.15   16.09
   9 -12  -2  199.91   21.88
   9 -12  -2  219.98   18.20
  12  -3   2  242.86   19.60
   3   9   2  204.70   17.94
  12  -3  -2  221.08   19.30
   3   9  -2  245.56   19.07
  -9  12   3   10.37    8.12
   3   9  -3   -2.95    7.28
   9 -12  -3    7.58    9.12
  12  -3   3   11.18    7.77
  12  -3  -3   12.91    8.08
   3   9   3    3.75    8.66
   9 -12  -3    3.78    7.00
   3   9  -3   -1.24    7.98
   3   9   4   24.38    8.03
  -9  12   4   17.76    8.51
   9 -12  -4   26.58   10.88
  12  -3  -4   46.90    9.57
  12  -3  -4   33.97   10.28
   3   9  -4   43.63    9.99
  12  -3   4   22.54    9.37
   9 -12  -4   43.97    9.64
  12  -3   5   -5.75    8.83
   3   9   5   -2.63    8.25
   9 -12  -5   -4.32    8.74
  -9  12   5   -1.51    7.78
   9 -12  -5   -1.90   10.39
  12  -3  -5    4.81    6.39
  12  -3  -5    7.48    8.65
   3   9  -5    3.96    8.01
   9 -12  -5   -3.80    7.14
   9 -12  -6 1847.16   77.94
   9 -12  -6 1968.36   83.81
  12  -3  -6 1926.68   75.47
   9 -12  -6 1967.25   76.42
   3   9   6 1855.77   76.72
  12  -3   6 1902.78   78.23
  12  -3  -6 1924.02   78.89
   3   9  -6 1919.46   77.15
  12  -3   7   -1.51    8.50
   3   9   7   -1.39    7.92
   9 -12  -7   -1.49    7.81
   9 -12  -7    1.94    9.53
  12  -3  -7    1.24    6.87
   9 -12  -7   -4.34    6.51
  12  -3   7    3.29    3.94
   9 -12  -7    1.29    6.95
   3   9   8   11.42    8.37
  12  -3   8    9.24    8.45
   9 -12  -8   12.37    8.95
   9 -12  -8    5.30    6.30
   9 -12  -8   23.83   11.64
  12  -3  -8   17.94    7.79
  12  -3   8   12.68    4.41
   9 -12  -8   22.06    6.81
  12  -3   9   14.25    8.92
   3   9   9   -4.42    9.65
   9 -12  -9    3.14    8.23
  12  -3  -9   -4.10   10.41
   9 -12  -9   19.04    7.07
  12  -3  -9    2.64    7.53
   9 -12  -9   20.27   11.11
   9 -12  -9   -3.95    7.72
  12  -3  10  135.12   17.18
   3   9  10  108.97   15.48
   9 -12 -10  118.14   16.34
  12  -3 -10  127.22   20.09
   9 -12 -10  125.06   13.18
   9 -12 -10  124.27   19.27
  12  -3 -10  139.74   15.63
   9 -12 -10  129.62   15.06
  12  -3  11   -6.72    9.72
   3   9  11   -1.58    9.26
   9 -12 -11   11.51    9.63
  12  -3 -11   -4.19   10.81
  12  -3 -11   -4.25    8.99
   9 -12 -11    8.38    9.70
   9 -12 -11    1.35    6.97
   9 -12 -11   -5.21    6.62
  12  -3  12 1625.49   71.64
   3   9  12 1513.70   69.81
   9 -12 -12 1512.52   69.81
   9 -12 -12 1592.19   63.63
  12  -3 -12 1671.49   69.52
   9 -12 -12 1712.96   68.34
   3   9  13    3.39    9.02
  12  -3 -13   -4.56    9.85
   9 -12 -13    3.13    6.34
   3   9  14   21.16   11.44
  12  -3 -14    4.72    9.79
   9 -12 -14   12.25    6.96
  12  -3 -15   14.69    9.68
   9 -12 -15    2.03    6.73
   2  10   0  485.56   27.76
 -10  12   0  501.17   30.83
  12  -2   0  530.14   31.90
  10 -12   0  463.14   28.25
   2  10   0  508.70   28.64
 -10  12  -1   -1.49    8.40
   2  10  -1    5.58    7.01
   2  10   1    7.73    7.02
 -10  12   1   12.02    8.47
   2  10  -1   19.32    7.88
  12  -2   1    5.87    8.17
   2  10   1   18.57    7.30
  10 -12   1   16.51    7.90
  12  -2  -1   15.03    9.75
 -10  12   2   16.61    9.51
   2  10  -2   25.82    8.35
   2  10   2   19.93    8.42
 -10  12  -2   31.52    9.86
  10 -12  -2   37.82   12.39
   2  10   2   25.79    9.37
   2  10  -2   33.55    9.00
  12  -2  -2   10.52    8.83
  10 -12   2   16.50    8.26
  12  -2   2   27.92    9.46
   2  10   3  126.00   13.90
 -10  12   3  104.31   14.68
   2  10  -3   96.81   12.76
  10 -12  -3   91.60   16.23
  12  -2   3  137.41   15.90
  12  -2  -3  113.64   15.70
   2  10  -3  102.19   13.35
   2  10   4   57.71   11.02
 -10  12   4   48.06   11.57
  10 -12  -4   41.90   13.41
  12  -2   4   39.16   10.83
  12  -2  -4   56.81   12.41
  10 -12  -4   53.57   10.68
   2  10  -4   47.57   10.15
   2  10   5   78.05   12.26
  10 -12  -5   57.77   14.23
  12  -2  -5   70.75   10.61
  12  -2  -5   63.97   13.75
  12  -2   5   81.00   13.90
   2  10  -5   60.28   11.49
  10 -12  -5   83.38   12.09
  10 -12  -6  187.15   20.62
  10 -12  -6  212.94   23.13
  12  -2  -6  258.02   18.58
  10 -12  -6  259.08   19.94
  12  -2   6  212.38   20.36
   2  10   6  225.75   19.65
  12  -2  -6  209.01   21.14
   2  10  -6  240.01   19.71
   2  10   7   71.61   12.04
  12  -2   7   73.24   13.45
  10 -12  -7   73.67   13.69
  10 -12  -7   61.06   14.40
  12  -2  -7   53.37   10.32
   2  10  -7   74.67   11.88
  10 -12  -7   84.90   11.43
   2  10   8   24.64    9.41
  12  -2   8   14.67    9.44
  10 -12  -8   15.24   10.18
  10 -12  -8    6.21   10.86
  12  -2  -8   10.35    7.00
  10 -12  -8   18.38    7.89
   2  10   9   28.40   10.39
  12  -2   9   19.99    9.55
  10 -12  -9   40.16   12.24
  12  -2  -9   28.39   12.49
  12  -2  -9    9.60    7.91
  10 -12  -9   50.47   14.34
  10 -12  -9   36.19    9.19
  10 -12  -9   43.83   10.33
  12  -2  10    3.41    9.21
   2  10  10   -2.93    8.25
  10 -12 -10   -7.05    9.09
  12  -2 -10   10.27   11.88
  10 -12 -10   -3.21    7.07
  12  -2 -10    1.24    6.79
  10 -12 -10    4.26   10.26
  10 -12 -10    9.38    7.55
  12  -2  11   -1.75    9.30
   2  10  11   -1.52    8.33
  10 -12 -11   -3.63    9.95
  12  -2 -11    8.25   10.98
  12  -2 -11    3.91    7.91
  10 -12 -11   -8.50    9.28
  10 -12 -11    1.36    7.32
   2  10  12  234.39   21.82
  10 -12 -12  225.54   23.66
  10 -12 -12  227.91   17.85
  12  -2 -12  292.08   21.62
   2  10  13   44.16   12.71
  10 -12 -13    7.50   11.16
  12  -2 -13   38.23   11.02
  10 -12 -13   39.54    9.15
   2  10  14   27.01   11.49
  12  -2 -14    1.47    8.64
  10 -12 -14    5.17    7.23
  12  -2 -15   92.10   15.38
 -11  12   0 1519.36   65.91
   1  11   0 1392.65   62.38
  12  -1   0 1572.37   67.38
  11 -12   0 1575.15   63.74
   1  11   0 1530.12   61.68
 -11  12  -1   22.63   10.20
   1  11   1   33.92    9.48
   1  11  -1   25.17    9.57
 -11  12   1   30.35   10.73
   1  11   1   26.15    8.41
  12  -1   1   48.84   11.32
  11 -12  -1    5.09    8.28
  11 -12   1   13.95    8.25
   1  11  -1   11.72    7.61
  12  -1  -1   35.50   10.90
 -11  12   2  439.98   29.01
   1  11   2  371.81   25.40
 -11  12  -2  428.94   28.77
   1  11  -2  390.42   25.89
  11 -12  -2  465.63   27.26
  11 -12   2  436.56   26.38
   1  11  -2  385.58   24.60
   1  11   2  416.41   25.74
  12  -1   2  418.60   28.65
  12  -1  -2  428.18   29.08
   1  11   3   21.47    9.72
 -11  12   3   10.47   10.38
   1  11   3    3.79    9.45
 -11  12  -3   21.35   10.87
   1  11  -3    2.53    9.09
 -11  12   3   32.26    8.06
  11 -12  -3   35.56   12.57
  12  -1   3   30.24   10.54
  12  -1  -3   19.64    9.84
  11 -12   3   16.54    8.52
   1  11  -3   28.38    9.82
 -11  12   4  810.17   42.59
  11 -12  -4  710.99   45.66
 -11  12   4  827.08   38.37
  11 -12   4  829.69   40.39
   1  11   4  828.76   39.50
  12  -1  -4  799.91   44.18
  12  -1   4  838.84   43.66
   1  11  -4  853.15   39.24
   1  11   5   52.83   11.15
 -11  12   5   57.61   10.37
  11 -12  -5   41.99   12.85
  12  -1  -5   62.90   13.82
  11 -12  -5   45.76   10.61
   1  11  -5   53.01   10.72
  12  -1   5   40.56   12.40
   1  11   6 1031.75   45.87
  11 -12  -6 1078.22   55.28
  12  -1  -6  922.06   42.06
 -11  12   6  888.97   44.09
  11 -12  -6  987.61   45.97
  12  -1   6  942.27   48.92
  12  -1  -6 1044.40   51.21
   1  11  -6 1009.16   45.40
   1  11   7   12.54    8.23
  12  -1   7   25.01   11.04
  11 -12  -7    1.84   11.18
 -11  12   7   19.99    8.28
  11 -12  -7   17.05   12.18
  12  -1  -7   28.63    7.78
  12  -1  -7   24.23   10.52
   1  11  -7   14.44    7.98
  11 -12  -7   15.85    8.23
   1  11   8  500.54   29.05
  12  -1  -8  484.90   34.14
  11 -12  -8  457.17   32.82
  11 -12  -8  488.34   35.55
  12  -1  -8  433.86   25.34
 -11  12   8  410.44   26.76
  11 -12  -8  422.32   27.27
  12  -1   8  458.82   31.19
   1  11  -8  430.92   27.18
   1  11   9   32.10   10.17
  12  -1   9   26.02    9.94
  11 -12  -9   30.11   12.22
  12  -1  -9   18.01   11.89
 -11  12   9   13.64    8.32
  12  -1  -9   35.03    8.44
  11 -12  -9   22.76    8.54
   1  11  10  291.67   23.31
 -11  12  10  282.77   22.79
  11 -12 -10  338.87   28.23
  12  -1 -10  313.34   28.20
   1  11  11   17.27    9.81
  11 -12 -11   18.43    7.66
  11 -12 -11    3.90   10.98
  12  -1 -11   28.50   12.37
   1  11  12  673.83   38.42
  11 -12 -12  716.48   35.13
  11 -12 -12  750.77   44.42
   1  11  13   17.08    9.78
  11 -12 -13   23.05    8.08
   1  11  14  378.05   28.68
 -12  12   0  159.52   19.13
   0  12   0  122.09   16.82
 -12  12   0  158.45   13.69
   0  12   0  177.05   15.52
  12 -12   0  188.25   17.13
  12   0   0  160.00   18.86
   0  12   1  196.29   19.64
 -12  12   1  187.80   20.58
 -12  12  -1  190.54   20.55
   0  12  -1  211.67   20.02
 -12  12  -1  205.40   14.96
 -12  12   1  225.06   16.50
  12   0  -1  227.69   22.04
  12 -12  -1  212.84   18.58
  12 -12   1  217.97   18.42
  12   0   1  237.35   22.22
   0  12   1  185.88   16.19
   0  12  -1  197.69   16.80
 -12  12   2  200.61   21.11
   0  12   2  216.57   20.28
 -12  12  -2  227.80   21.66
   0  12  -2  198.47   20.74
 -12  12   2  210.47   17.13
   0  12   2  227.97   17.89
  12 -12  -2  254.37   20.10
  12 -12   2  253.80   20.06
  12   0   2  172.03   19.86
   0  12  -2  224.14   17.71
  12   0  -2  261.09   23.48
 -12  12   3  820.10   43.93
   0  12   3  829.67   42.82
 -12  12  -3  858.15   44.37
   0  12  -3  857.23   43.18
  12 -12  -3  897.59   50.26
 -12  12   3  843.42   39.37
  12 -12  -3  809.71   41.09
  12 -12   3  854.44   41.28
   0  12  -3  864.33   39.09
  12   0   3  894.33   46.29
  12   0  -3  800.74   45.05
   0  12   3  806.24   38.74
  12 -12  -4  289.82   26.51
 -12  12   4  230.13   19.37
   0  12  -4  243.76   18.67
  12 -12   4  283.52   21.05
   0  12   4  238.25   18.95
  12   0  -4  317.01   25.99
  12   0   4  275.18   23.92
   0  12   5  225.49   17.61
  12 -12  -5  226.79   24.90
 -12  12   5  195.55   17.74
  12   0   5  168.61   19.37
  12   0  -5  206.38   21.71
   0  12  -5  174.80   16.01
   0  12   6   94.10   12.21
  12   0   6   94.07   15.49
 -12  12   6   80.60   12.61
  12 -12  -6   64.04   15.97
  12   0  -6  132.32   18.08
  12 -12  -6   92.35   13.20
   0  12  -6   98.72   12.14
  12   0   7  175.18   20.20
   0  12   7  211.28   17.70
 -12  12   7  198.86   18.37
  12   0  -7  160.07   20.00
   0  12  -7  212.64   17.59
   0  12   8  139.68   15.71
  12 -12  -8  142.64   20.40
  12   0  -8  149.24   19.78
 -12  12   8  157.13   17.25
   0  12  -8  144.32   15.10
   0  12   9  761.58   38.21
  12 -12  -9  683.38   44.27
  12   0  -9  832.34   46.00
 -12  12   9  749.53   40.14
   0  12  -9  715.23   36.85
  12 -12 -10  198.60   24.03
  12   0 -10  196.19   22.73
   0  12  10  197.49   18.48
   0  12  11  177.67   18.40
 -13  12   0   84.51   14.56
  -1  13   0   76.62   14.36
 -13  12   0   80.79   10.92
  12   1   0   72.43   14.85
  13 -12   0  106.56   13.71
  -1  13   1   -6.23   11.08
  -1  13  -1   -7.73   10.02
 -13  12   1   -7.43   10.21
 -13  12  -1    3.02   10.84
 -13  12  -1    1.80    6.51
 -13  12   1    5.29    6.65
  12   1  -1   -3.67   10.60
  13 -12  -1   10.61    7.77
  12   1   1    5.35   11.33
  13 -12   1   -2.60    7.79
  -1  13  -2   -3.08   10.39
 -13  12  -2    2.99   10.62
 -13  12   2   -4.47   11.29
  -1  13   2   -7.71   11.24
 -13  12   2    1.13    6.69
  13 -12  -2   -9.42    8.63
  13 -12   2    7.75    7.57
  12   1  -2   -7.32   12.11
  12   1   2    3.60   11.44
  -1  13   3  209.66   20.89
  -1  13  -3  204.13   20.87
 -13  12  -3  190.18   20.07
 -13  12   3  217.10   18.46
  13 -12  -3  228.61   19.31
  13 -12   3  226.49   19.07
  12   1   3  179.36   21.19
  12   1  -3  224.82   22.34
  -1  13  -4    9.22   10.37
 -13  12  -4   19.73   10.44
 -13  12   4   17.82    8.92
  13 -12   4   25.46    8.44
 -13  12   5   34.85    9.74
  13 -12   5   24.02    8.41
 -13  12   6   19.69    9.41
  12   1  -7    1.87   10.08
 -13  12   7   -4.42   10.47
  12   1  -8    9.42   10.49
 -13  12   8   36.67   11.16
  12   1  -9  202.24   22.62
  12   1 -10   -1.93   10.28
 -13  11   0  -12.21   10.36
  -2  13   0   -3.15   10.91
 -13  11   0   -1.08    6.76
  11   2   0    7.11    9.60
  13 -11   0   -2.49    8.16
  -2  13   1   76.31   14.35
  -2  13  -1   68.24   12.69
 -13  11  -1   51.84   11.96
 -13  11   1   37.42   11.53
 -13  11  -1   71.47   10.52
 -13  11   1   70.68   11.84
  13 -11  -1   51.58   10.75
  11   2   1   91.33   14.60
  13 -11   1   76.26   11.18
  11   2  -1   81.03   14.20
  -2  13   2  331.56   26.01
 -13  11   2  321.88   24.06
  -2  13  -2  359.28   26.42
 -13  11  -2  342.59   24.44
 -13  11  -2  342.61   20.39
 -13  11   2  353.60   23.80
  13 -11  -2  274.38   21.76
  13 -11   2  324.10   22.48
  11   2   2  324.26   26.28
  11   2  -2  332.66   26.79
  -2  13   3  318.51   25.69
  -2  13  -3  318.86   25.18
 -13  11  -3  352.34   24.97
 -13  11   3  321.99   23.91
  13 -11  -3  331.62   29.62
 -13  11  -3  305.62   19.27
  13 -11   3  338.28   22.67
  11   2   3  346.22   26.97
  11   2  -3  343.78   27.61
  13 -11  -3  310.20   22.71
 -13  11  -4  413.28   27.23
  -2  13   4  384.09   27.93
 -13  11   4  392.44   26.75
  13 -11  -4  399.03   32.77
  13 -11   4  394.89   24.60
  11   2  -4  391.45   29.59
  11   2   4  411.98   29.82
  13 -11  -4  345.67   24.67
  13 -11  -5  106.76   18.62
 -13  11   5  132.59   15.63
  11   2  -5  111.06   16.83
  13 -11  -5  122.08   14.56
  11   2   5  101.58   16.73
  13 -11   5  112.41   13.29
  11   2   6   62.85   13.78
  11   2  -6   81.89   14.60
  13 -11  -6   92.12   18.19
 -13  11   6   57.64   12.52
  11   2  -6   55.84   14.17
  13 -11   6   75.59   11.28
  11   2  -7   25.38   12.39
 -13  11   7   50.30   12.15
  11   2  -8  315.66   25.78
 -13  11   8  244.07   23.23
  11   2  -9  263.11   24.01
  11   2 -10  275.82   24.72
  11   2 -11   56.65   13.24
  11   2 -12   -5.33   12.75
 -13  10   0  508.75   28.86
  -3  13   0  442.07   30.47
 -13  10   0  496.13   28.69
   3 -13   0  493.68   27.61
  13 -10   0  480.98   27.75
  -3  13  -1   21.91    9.95
 -13  10   1   14.26    8.33
  -3  13   1   28.52   10.80
 -13  10  -1    7.29    8.73
 -13  10  -1   12.38    7.39
 -13  10   1   19.48    8.26
  13 -10  -1   15.64    7.49
  13 -10   1   16.22    7.83
   3 -13   1   19.01    7.27
   3 -13  -1   23.15    8.04
  -3  13  -2   24.92    9.91
  -3  13   2   46.01   11.96
 -13  10  -2   12.06    8.54
 -13  10  -2   20.66    7.38
 -13  10   2    9.64    9.14
  13 -10  -2   22.17    8.10
  13 -10   2   28.57    8.09
   3 -13   2   25.36    7.68
   3 -13  -2   28.10    8.29
  -3  13   3 1081.17   51.15
  -3  13  -3 1088.54   51.10
 -13  10  -3 1012.39   46.74
 -13  10  -3  967.29   43.36
  13 -10  -3 1052.64   55.26
 -13  10   3 1036.44   49.10
   3 -13   3 1063.05   45.66
  13 -10   3 1006.29   45.57
  13 -10  -3 1014.26   46.96
 -13  10  -4    6.15    8.75
  -3  13   4   19.00    9.40
  13 -10  -4   16.47   11.44
 -13  10  -4    8.44    6.36
 -13  10   4   12.07    8.39
  13 -10  -4   11.50    7.59
  13 -10   4   10.98    7.05
   3 -13   4    7.44    6.75
  10   3  -5   51.39   11.72
  13 -10  -5   39.23   13.20
 -13  10   5   43.86   12.24
  13 -10  -5   54.51   10.59
  13 -10   5   47.03    9.16
   3 -13   5   59.73    9.83
  10   3  -6  289.95   23.69
  13 -10  -6  305.88   27.69
 -13  10   6  293.54   24.50
   3 -13   6  288.36   19.85
  13 -10   6  284.05   19.51
  13 -10  -6  281.19   21.80
  10   3  -7   59.77   12.74
  13 -10  -7   64.46   15.03
 -13  10   7   56.79   13.34
  13 -10   7   66.51   10.11
   3 -13   7   50.57    9.36
  10   3  -8   13.75    9.50
  13 -10  -8   14.73   12.02
 -13  10   8   13.80   10.60
   3 -13   8    7.89    6.90
  10   3  -9  949.84   48.02
 -13  10   9  966.34   50.28
  10   3 -10    3.16    9.81
  10   3 -11   15.85   10.50
  10   3 -12  254.97   23.64
  -4  13   0   34.25   11.40
 -13   9   0   26.83    8.98
   9   4   0   18.65   10.47
  13  -9   0   42.17    9.20
   4 -13   0   44.31    9.29
 -13   9  -1    3.16    8.57
  -4  13  -1   -6.22    9.99
 -13   9   1    2.08    8.50
  -4  13   1   -1.58   10.35
  13  -9  -1    1.16    6.90
   9   4   1   -8.35   11.47
  13  -9   1    8.83    6.86
   9   4  -1   -1.71   11.31
   4 -13   1   23.01    7.10
   4 -13  -1    3.37    6.97
  -4  13   2   94.23   14.55
 -13   9  -2   72.04   11.19
  -4  13  -2   81.02   13.98
  13  -9  -2   95.99   12.31
  13  -9   2   72.81   10.63
   9   4  -2   83.29   15.05
   9   4   2   81.22   15.24
   4 -13   2   60.55   10.26
  -4  13   3  118.12   16.17
 -13   9  -3  140.36   14.04
   4 -13   3  147.09   14.28
  13  -9  -3  147.38   20.07
  13  -9   3  146.60   13.94
   9   4   3  140.36   18.37
   9   4  -3  129.60   17.11
  -4  13   4   48.93   11.56
   9   4  -4   28.94    9.38
 -13   9  -4   40.09    9.04
  13  -9  -4   29.07   12.22
   4 -13  -4   38.72   10.98
   9   4  -4   38.64   12.00
  13  -9   4   32.96    8.54
   9   4   4   33.61   10.72
   4 -13   4   26.26    8.26
   4 -13  -4   27.73    8.29
  -4  13   5   14.40    9.37
   9   4  -5   -3.83    7.66
  13  -9  -5    5.85   10.84
   4 -13  -5    9.32    8.63
   9   4   5    1.68    8.82
   9   4  -5    3.54    9.84
  13  -9   5    3.98    6.04
   4 -13   5   12.40    6.49
   4 -13  -5    2.33    6.11
   9   4   6   62.97   12.75
   9   4  -6   71.86   11.79
  13  -9  -6   54.57   13.87
   4 -13  -6   65.50   12.97
   9   4  -6   63.62   13.72
  13  -9   6   63.23    9.20
   4 -13   6   47.69    9.40
   4 -13  -6   56.87   10.29
   9   4   7    8.59    9.28
   9   4  -7    1.32    7.63
  13  -9  -7   -1.97    9.67
   4 -13  -7    7.81    9.26
   9   4  -7   10.67    9.17
  13  -9   7   10.18    6.86
   4 -13   7   -1.99    7.49
   4 -13  -7    9.64    7.06
   9   4   8   40.35   12.03
   9   4  -8   61.56   11.85
  13  -9  -8   43.82   14.13
   4 -13  -8   26.98   10.60
 -13   9   8   48.87   13.18
  13  -9   8   53.76    8.63
   4 -13   8   52.51    9.64
  13  -9  -9  239.18   25.58
   9   4  -9  244.21   20.66
   4 -13  -9  224.15   21.13
  13  -9  -9  228.52   24.35
 -13   9   9  199.05   22.23
   4 -13   9  192.83   16.13
   9   4 -10  104.99   14.82
   4 -13 -10  134.29   16.99
   4 -13  10  124.03   12.31
 -13   9  10   90.33   16.02
   9   4 -11   -7.19   10.41
   4 -13 -11    5.07    9.39
   4 -13  11   -7.14    8.63
   4 -13 -12    1.75   10.76
   4 -13  12   30.00    7.51
   4 -13 -13   12.70    9.66
  -5  13   0   54.73   12.64
 -13   8   0   28.91    8.84
   8   5   0   31.15   11.96
  13  -8   0   68.60   11.16
  13  -8   0   55.92   11.13
   5 -13   0   75.88   11.90
  -5  13   1  168.41   18.63
 -13   8  -1  176.33   14.68
  -5  13  -1  176.32   19.09
   5 -13  -1  168.32   15.65
   5 -13   1  130.71   13.81
  13  -8   1  151.48   14.75
   8   5   1  196.90   19.82
  13  -8  -1  128.03   13.71
   8   5  -1  162.36   19.06
  13  -8   1  159.79   14.71
 -13   8  -2  282.95   19.20
  -5  13   2  342.46   25.72
  -5  13  -2  304.17   24.52
   5 -13   2  302.74   20.08
  13  -8  -2  247.26   19.08
  13  -8   2  272.34   19.37
   8   5   2  284.91   23.66
   8   5  -2  305.73   25.12
  13  -8   2  320.64   20.66
  -5  13   3  903.64   45.11
 -13   8  -3  894.14   38.31
   8   5  -3  817.72   38.74
  13  -8  -3  933.23   48.35
   5 -13   3  796.91   38.50
   8   5   3  858.20   44.91
   8   5  -3  856.57   45.57
  13  -8   3  863.81   38.71
  13  -8   3  811.21   38.34
  13  -8  -3  785.63   38.28
  -5  13   4  382.30   27.42
 -13   8  -4  366.00   22.31
   8   5  -4  361.07   23.32
  13  -8  -4  389.54   29.23
   5 -13  -4  380.83   28.31
   5 -13  -4  411.29   24.20
   5 -13   4  383.67   23.11
  13  -8   4  423.36   23.04
   8   5  -4  367.79   28.39
  13  -8   4  344.42   22.50
   8   5   4  368.77   27.30
  13  -8  -4  350.16   22.61
  -5  13   5  151.96   17.68
   8   5  -5  162.61   15.59
  13  -8  -5  181.79   20.76
   5 -13  -5  149.56   15.15
   5 -13  -5  155.31   18.67
   5 -13   5  168.47   15.04
  13  -8   5  148.09   13.64
   8   5   5  163.42   18.42
   8   5  -5  148.38   18.57
  13  -8  -5  139.30   14.63
  13  -8   5  140.58   14.62
   8   5   6  144.00   17.95
  13  -8   6  161.18   15.67
   8   5  -6  176.74   16.68
  13  -8  -6  176.46   20.64
   5 -13  -6  184.50   20.48
   5 -13  -6  182.34   17.02
   5 -13   6  142.74   14.51
   8   5  -6  134.43   18.28
  13  -8   6  179.29   14.51
  13  -8  -6  159.12   15.57
  13  -8   7  117.67   13.82
   8   5   7  122.10   16.86
   8   5  -7  124.77   13.85
  13  -8  -7  149.38   19.13
   5 -13  -7  114.98   16.73
   5 -13   7  112.78   12.42
   8   5  -7  110.75   17.42
  13  -8  -7   81.65   12.42
  13  -8   7  130.64   12.18
   5 -13  -7  114.80   13.64
  13  -8   8  238.43   19.35
   8   5  -8  261.24   20.33
   5 -13  -8  260.13   23.31
  13  -8  -8  307.33   25.72
   5 -13   8  245.54   17.90
   5 -13  -8  248.34   19.12
   8   5   8  247.01   23.20
  13  -8   8  260.87   16.75
   8   5  -9  669.75   35.05
   5 -13  -9  629.66   39.12
  13  -8  -9  707.98   42.43
   5 -13  -9  723.14   35.55
   5 -13   9  678.26   32.83
  13  -8   9  716.30   31.27
   8   5   9  706.92   40.34
   5 -13 -10  239.51   19.24
   5 -13  10  265.15   17.90
   5 -13 -10  245.27   23.29
  13  -8 -10  218.93   23.55
   5 -13  11  135.15   12.86
   5 -13 -11  133.20   18.11
  13  -8 -11  170.75   20.65
   5 -13 -12   76.58   16.00
   5 -13  12   95.73   11.66
   5 -13 -13  113.88   17.51
  -6  13   0 1790.70   74.59
   6 -13   0 1705.38   68.36
   7   6   0 1858.32   75.92
  13  -7   0 1679.45   68.56
  -6  13  -1   92.56   14.96
  -6  13   1   92.70   14.84
 -13   7  -1   53.68    8.84
  13  -7  -1   61.09   11.48
   7   6   1   77.41   15.31
  13  -7   1   46.52   10.90
   6 -13   1   63.32   11.52
   7   6  -1   84.62   15.29
  -6  13   2  499.74   31.68
 -13   7  -2  469.43   23.53
  -6  13  -2  498.34   31.56
   7   6  -2  462.52   24.33
   6 -13   2  515.89   27.50
  13  -7   2  475.54   27.71
  13  -7  -2  444.05   27.21
   7   6   2  486.03   31.79
  13  -7   2  461.49   25.73
   7   6  -2  522.86   32.86
  13  -7   3   53.58   10.82
   7   6  -3   59.29    9.40
  -6  13   3   66.66   12.78
 -13   7  -3   39.67    8.12
  13  -7  -3   82.35   14.51
   6 -13  -3   55.96   13.09
   7   6   3   60.86   12.82
  13  -7   3   72.33   10.63
   7   6  -3   74.62   12.88
  13  -7  -3   57.43   11.14
   6 -13   3   63.81   11.03
   6 -13  -3   55.53    9.88
  -6  13   4  842.74   44.15
   7   6  -4  861.65   37.28
 -13   7  -4  835.21   36.46
  13  -7  -4  896.26   46.52
   6 -13  -4  935.70   47.72
   6 -13   4  830.39   39.18
   6 -13  -4  917.68   40.83
   7   6  -4  824.07   45.20
  13  -7  -4  853.99   40.63
  13  -7   4  828.79   40.20
   7   6   4  786.53   43.52
  13  -7   4  917.06   38.66
  13  -7   5   30.84    9.44
   7   6  -5   37.39    8.30
  -6  13   5   46.40   11.85
 -13   7  -5   40.82    8.42
  13  -7  -5   48.23   13.04
   6 -13  -5   52.50   13.74
   7   6  -5   73.62   13.68
   7   6   5   56.96   13.02
  13  -7  -5   35.14   10.39
  13  -7   5   63.57    9.33
   6 -13   5   52.13    9.67
   6 -13  -5   52.30   10.20
   7   6  -6 1808.58   69.08
   6 -13  -6 1769.07   71.31
  13  -7  -6 1942.83   79.98
   6 -13  -6 1916.91   79.66
   6 -13   6 1831.15   70.43
  13  -7   6 1815.13   68.09
  13  -7   6 1723.99   72.06
   7   6   6 1887.11   77.93
   7   6  -6 1893.24   78.78
  13  -7  -6 1869.11   73.69
  13  -7   7   40.19   10.20
   7   6   7   52.21   12.29
   6 -13  -7   44.15   12.45
  13  -7  -7   21.03   10.76
  13  -7  -7   57.67   11.68
  13  -7   7   55.05    8.70
   6 -13   7   66.51   10.40
   6 -13  -7   55.45   10.12
   7   6  -7   73.78   14.24
  13  -7   8  508.00   30.85
   6 -13  -8  542.60   35.20
  13  -7  -8  615.15   36.79
   6 -13  -8  539.91   30.09
   6 -13   8  551.53   28.63
  13  -7   8  564.71   26.07
   7   6   8  540.49   34.45
  13  -7   9   26.92    9.26
   7   6   9   18.78   10.85
   6 -13  -9   27.48   11.52
  13  -7  -9   10.87    9.94
  13  -7   9   23.05    5.89
   6 -13   9   14.40    7.41
   6 -13  -9   12.88    7.22
  13  -7  10  473.00   29.61
   6 -13  10  449.10   25.18
   6 -13 -10  479.90   27.64
   6 -13 -10  514.95   34.13
  13  -7 -10  475.00   32.92
   7   6  10  438.21   31.43
  13  -7  11   58.13   12.20
   6 -13 -11   36.28   13.15
  13  -7 -11   77.22   14.98
   6 -13 -11   55.52   11.88
   6 -13  11   78.31   10.25
   6 -13 -11   68.40   10.88
  13  -7  12 1105.73   54.61
   6 -13  12 1230.30   49.38
   6 -13 -12 1118.64   59.56
  13  -7 -12 1205.12   59.42
   6 -13 -12 1282.04   55.20
  13  -7  13   28.18   11.26
   6 -13 -13   12.54    8.78
   6 -13  13   31.36    7.56
   6 -13 -14  401.75   27.21
   6   7   0  367.87   18.59
   7 -13   0  401.56   24.16
   6   7   0  419.15   27.96
  13  -6   0  394.71   24.89
   6   7  -1   18.63    5.28
   7 -13   1   -1.10    9.67
  13  -6   1   13.34    8.26
  13  -6  -1   13.31    7.86
   6   7   1   17.69    8.96
   6   7  -1   19.88    9.30
   7 -13   2    1.09    7.83
   6   7  -2   -1.53    9.16
  13  -6  -2    6.16    7.91
  13  -6   2    8.58    8.11
   6   7   2   20.89    9.06
 -13   6  -3  467.00   22.52
   7 -13   3  548.68   28.80
   7 -13  -3  578.19   35.96
  13  -6  -3  540.63   33.10
   7 -13  -3  527.57   28.55
  13  -6   3  522.92   29.81
   6   7   3  523.65   32.19
   6   7  -3  515.99   32.41
  13  -6  -3  494.07   29.32
  13  -6   4   83.94   12.34
 -13   6  -4   93.42    9.07
   7 -13   4   54.87   10.29
   7 -13  -4   84.33   15.40
  13  -6  -4   96.11   15.28
  13  -6   4   82.74   10.05
   6   7  -4  114.13   15.54
  13  -6  -4   62.67   11.59
   6   7   4   86.03   14.42
   7 -13  -4   93.30   12.05
   6   7   5    3.06    8.14
  13  -6   5   -2.60    8.33
 -13   6  -5   12.49    5.24
   7 -13   5   -1.07    7.45
   7 -13  -5    5.51    9.48
  13  -6  -5   11.25    9.65
   6   7  -5   -1.61    9.68
  13  -6  -5   14.61    8.35
  13  -6   5   17.28    6.56
   7 -13  -5    2.25    6.43
   7 -13   6  323.23   22.30
   7 -13  -6  381.50   29.00
  13  -6  -6  394.55   27.85
   7 -13  -6  351.53   23.03
  13  -6   6  385.94   20.51
   7 -13  -6  402.34   25.88
   6   7   6  393.18   27.15
  13  -6   6  333.83   24.33
  13  -6  -6  348.39   24.90
   6   7  -6  331.21   26.36
  13  -6   7    1.36    8.35
   6   7   7   -7.97    9.46
   7 -13   7   -3.11    7.63
   7 -13  -7    1.86    9.45
  13  -6  -7    6.56    8.73
   6   7  -7    1.63    8.53
  13  -6   7   -0.71    4.77
   7 -13  -7    4.16    7.03
   7 -13  -7    3.40    6.03
  13  -6  -7   -2.77    7.92
  13  -6   8   18.21    9.29
   6   7   8   17.86    9.88
   7 -13   8   15.33    7.17
   7 -13  -8   30.24   11.50
  13  -6  -8   16.66    8.75
  13  -6   8   20.96    5.43
   7 -13  -8   18.10    8.18
   7 -13  -8   24.88    7.72
  13  -6   9  288.04   23.27
   7 -13  -9  249.35   24.80
  13  -6  -9  322.03   25.69
   7 -13  -9  309.01   21.00
   7 -13   9  302.79   20.04
   7 -13  -9  328.68   23.51
   6   7   9  317.95   25.55
   6   7  10   15.39   10.14
  13  -6  10    7.51    9.02
   7 -13 -10   11.84   10.34
  13  -6 -10   13.90    9.39
   7 -13  10    1.97    6.50
   7 -13 -10    5.62    8.03
   7 -13 -10   -2.29    6.95
   6   7  11    1.75   10.02
  13  -6  11   -1.55    9.31
   7 -13  11   -5.77    6.42
   7 -13 -11    4.02    8.92
  13  -6 -11   -6.97    9.81
   7 -13 -11   -1.41    8.26
   7 -13 -11   -4.68    6.85
  13  -6  12  216.73   21.68
   7 -13  12  276.15   18.54
  13  -6 -12  225.00   23.15
   7 -13 -12  215.83   24.21
   7 -13 -12  223.87   20.52
  13  -6  13    9.99   10.23
   7 -13  13    7.25    6.23
   7 -13 -13   12.86    8.88
  -8  13   0 1128.78   52.90
   5   8   0 1007.41   50.04
  13  -5   0 1109.57   49.88
  -8  13  -1   20.73   10.24
  -8  13   1    7.96    7.09
   5   8  -1   14.50    8.29
  13  -5  -1   23.85    8.25
   5   8   1   18.39    9.28
  13  -5   1   19.62    8.49
  -8  13   2   59.59   11.93
  -8  13  -2   46.65   11.73
   8 -13  -2   30.74    9.43
   5   8   2   50.06   11.26
  13  -5   2   57.14   11.31
   5   8  -2   52.56   11.25
  13  -5  -2   42.74   10.16
  -8  13   3   35.10   10.99
   8 -13  -3   43.23    9.16
   8 -13  -3   31.03   10.80
   5   8   3   12.98    9.76
  13  -5   3   18.72    9.13
  13  -5  -3   32.47   10.21
   5   8  -3   20.62    9.78
   8 -13  -3   15.26    8.17
  13  -5   4   14.97    9.27
  -8  13   4   12.72   10.32
   8 -13  -4   24.99    8.75
   8 -13  -4   17.34   10.41
  13  -5  -4    1.49    8.86
  13  -5  -4    6.96    8.56
   5   8  -4    7.53    9.26
   8 -13  -4   20.73    8.50
   5   8   4   11.68    8.87
   5   8   5   -8.95    8.84
  13  -5   5   -2.77    8.42
  -8  13   5    3.23    8.86
   8 -13  -5    1.93    9.12
  13  -5  -5  -10.42    8.50
   8 -13  -5   -5.67    8.53
  13  -5  -5    1.44    8.93
   5   8  -5   -7.70    9.88
  13  -5   5   -4.66    6.56
   8 -13  -5   -2.77    7.25
   8 -13  -6 1154.99   56.97
  13  -5  -6 1157.89   52.79
   8 -13  -6 1079.08   47.96
  13  -5   6 1096.09   51.35
   8 -13  -6 1110.37   50.84
  13  -5  -6 1046.35   51.04
   5   8  -6 1113.10   52.81
   5   8   6 1115.30   52.54
  13  -5   6 1059.20   43.39
   5   8   7   17.12   10.20
  13  -5   7    8.72    8.73
   8 -13  -7    3.92    9.94
  13  -5  -7    9.11    8.90
  13  -5  -7    1.49    8.42
   5   8  -7    9.42    8.36
  13  -5   7   15.07    5.19
   8 -13  -7    5.53    7.58
   8 -13  -7    2.26    6.71
  13  -5   8   59.72   12.54
   5   8   8   74.83   14.22
   8 -13  -8   69.53   14.28
  13  -5  -8   71.32   12.44
   8 -13  -8   56.89   11.17
   8 -13  -8   70.77   10.98
   5   8   9    1.63    8.81
  13  -5   9   15.35    9.54
   8 -13  -9   12.20    9.96
  13  -5  -9    9.56    9.10
   8 -13  -9   13.96    7.76
   8 -13  -9   -1.15    6.71
   5   8  10   31.83   11.36
  13  -5  10   42.97   11.48
  13  -5 -10   44.02   11.37
   8 -13 -10   56.16   14.34
   8 -13 -10   45.04   10.00
   8 -13 -10   27.34    8.59
   5   8  11    5.21    9.51
  13  -5  11    3.28    9.48
  13  -5 -11   16.42    9.97
   8 -13 -11   10.53   11.03
   8 -13 -11    4.26    7.68
   8 -13 -11   -3.39    7.48
  13  -5  12  724.62   42.04
  13  -5 -12  812.66   43.65
  13  -5 -13    1.73    9.64
   8 -13  13    8.80    6.96
   4   9   0  768.59   36.16
  -9  13   0  884.41   44.76
  13  -4   0  858.45   42.79
   4   9   0  791.13   41.27
  -9  13   1  544.02   34.05
   4   9  -1  504.95   27.28
  13  -4  -1  601.37   33.90
   4   9  -1  524.30   31.87
  13  -4   1  553.76   32.82
   4   9   1  526.26   32.07
  -9  13   2   78.34   13.66
   4   9  -2   60.17   10.12
  -9  13  -2   89.22   14.62
  13  -4   2   83.98   13.33
   9 -13  -2   45.64   10.03
   4   9   2   68.82   12.64
  13  -4  -2   53.29   12.45
   4   9  -2   48.61   11.95
  -9  13   3  615.18   35.92
   4   9  -3  543.33   28.91
   9 -13  -3  609.30   39.52
   4   9   3  580.46   33.53
   9 -13  -3  599.79   33.37
  13  -4   3  570.31   33.84
  13  -4  -3  595.87   34.34
   4   9  -3  604.39   34.38
   4   9   4   18.36    9.53
  -9  13   4    9.64    9.18
   9 -13  -4   14.99    9.62
   4   9  -4   11.31    7.27
   9 -13  -4   34.30   12.68
   9 -13  -4    3.56    9.07
  13  -4  -4   10.48    8.99
   4   9  -4    5.68    9.30
   9 -13  -4   16.46    8.24
  13  -4   4   24.76   10.63
  -9  13   5  605.20   36.52
   9 -13  -5  537.17   33.03
   9 -13  -5  610.12   32.33
   9 -13  -5  691.62   41.64
  13  -4  -5  637.29   34.66
   9 -13  -5  619.49   34.06
  13  -4   5  618.94   35.30
   4   9   5  607.31   34.70
  13  -4  -5  559.91   34.96
   4   9  -5  637.10   35.67
   9 -13  -6  481.75   30.22
   9 -13  -6  514.63   36.13
   9 -13  -6  587.21   29.99
  13  -4  -6  529.50   31.01
   9 -13  -6  498.32   29.99
   4   9   6  481.42   31.22
  13  -4  -6  495.42   31.76
   4   9  -6  478.09   30.93
  13  -4   6  419.75   30.21
  13  -4   6  495.22   23.85
   9 -13  -7  477.48   30.06
   9 -13  -7  454.33   34.23
  13  -4  -7  460.07   29.60
   9 -13  -7  498.35   27.83
   9 -13  -7  491.51   29.83
  13  -4   7  445.37   30.33
  13  -4  -7  475.29   31.66
   4   9  -7  484.22   30.90
  13  -4   7  509.95   23.00
   4   9   7  463.65   30.42
   4   9   8   12.35   10.02
  13  -4   8   11.09   10.08
   9 -13  -8   16.16    9.14
   9 -13  -8    4.16   10.57
  13  -4  -8   17.19    9.39
   9 -13  -8   20.60    8.36
   9 -13  -8   23.51    8.89
   4   9  -8   27.14    9.98
   4   9   9  532.93   33.14
  13  -4  -9  525.27   37.65
   9 -13  -9  489.13   36.03
  13  -4  -9  485.26   30.73
   9 -13  -9  516.40   28.51
   9 -13  -9  520.73   30.67
  13  -4   9  476.88   31.97
  13  -4  10   36.60   11.77
   4   9  10   31.29   11.14
  13  -4 -10   19.65   10.24
   9 -13 -10   36.77   10.35
   9 -13 -10   26.31    8.46
  13  -4  11  366.95   28.42
   4   9  11  346.72   27.77
   9 -13 -11  377.16   23.87
  13  -4 -11  397.05   27.59
   4   9  12  452.61   31.85
  13  -4 -12  432.23   30.18
  13  -4 -13  467.57   31.64
  13  -4 -14    3.35    9.04
   3  10   0  317.51   20.63
 -10  13   0  349.46   26.00
  13  -3   0  261.59   23.02
  10 -13   0  281.20   22.11
   3  10   0  281.93   21.64
   3  10  -1  170.53   15.52
   3  10   1  167.66   15.14
 -10  13   1  144.26   18.10
 -10  13  -1  175.09   19.24
   3  10  -1  183.06   17.18
  10 -13   1  191.72   18.42
  13  -3   1  159.46   17.87
   3  10   1  177.36   17.30
  13  -3  -1  155.97   17.79
 -10  13  -2    8.19   10.30
 -10  13   2    9.84   10.41
   3  10  -2    5.36    7.16
  13  -3   2    4.57    9.26
   3  10  -2    7.80    7.90
   3  10   2   -5.23    8.66
  13  -3  -2    3.09    9.28
   3  10   3   58.60   11.11
   3  10  -3   42.24    9.40
 -10  13   3   43.76   12.27
 -10  13  -3   44.74   12.63
  10 -13  -3   48.87   14.39
  13  -3  -3   34.42   10.73
  10 -13  -3   45.11   11.47
  13  -3   3   33.91   10.86
   3  10  -3   38.26   10.31
   3  10   4   -1.35    8.00
 -10  13   4    1.63    9.42
   3  10  -4    1.09    6.91
  10 -13  -4    2.12    9.99
  13  -3  -4   -6.39    9.93
  10 -13  -4    6.84    6.58
   3  10  -4   -1.33    7.96
  13  -3   4   -6.20    9.41
  10 -13  -5  235.31   21.84
  10 -13  -5  301.81   27.01
  13  -3  -5  234.47   19.47
   3  10   5  265.85   21.70
  10 -13  -5  241.13   20.28
  13  -3   5  198.22   20.09
  13  -3  -5  232.97   21.92
   3  10  -5  232.58   20.23
  10 -13  -6  208.58   20.56
  13  -3  -6  215.09   18.35
  10 -13  -6  172.10   22.59
  10 -13  -6  187.98   17.94
  13  -3   6  197.57   19.84
  13  -3  -6  166.54   19.59
   3  10  -6  180.65   18.13
   3  10   6  168.29   17.96
  10 -13  -7  198.70   20.54
  10 -13  -7  257.12   25.37
  13  -3  -7  192.56   17.93
  10 -13  -7  200.87   17.44
  13  -3   7  181.26   19.60
  10 -13  -7  204.13   18.63
   3  10   7  195.83   18.99
  13  -3  -7  201.06   20.69
   3  10  -7  250.58   21.00
   3  10   8    4.47    7.30
  13  -3   8    1.66    8.96
  10 -13  -8    1.66    8.85
  10 -13  -8   -7.00    7.86
  10 -13  -8    4.35   10.86
  13  -3  -8   -1.30    7.41
   3  10  -8   -4.34    8.05
  10 -13  -8    1.40    6.85
  13  -3  -8   -1.70    9.96
   3  10   9   87.97   14.31
  13  -3   9   74.68   14.28
  10 -13  -9  113.71   13.18
  13  -3  -9  107.05   14.11
  10 -13  -9   78.86   14.79
  13  -3  -9   96.60   17.85
  13  -3  10   20.87   11.29
   3  10  10   20.64   10.62
  13  -3 -10   18.08    9.31
  10 -13 -10   17.24    8.13
  10 -13 -10   22.42   11.20
   3  10  11  120.94   16.69
  13  -3 -11  148.04   16.49
  10 -13 -11  104.12   16.38
   3  10  12   90.97   15.87
  13  -3 -12  118.70   15.05
  13  -3 -13  161.39   18.05
  13  -3 -14   -3.15    9.22
   2  11   0   -1.22    8.67
 -11  13   0    1.65   10.57
  13  -2   0   -3.26   10.34
   2  11   0   -2.45    9.07
  11 -13   0   -6.90    8.76
 -11  13   1   -6.64   11.90
   2  11   1   -6.00    9.50
 -11  13  -1  -11.48   11.86
   2  11  -1    9.84    8.37
  13  -2  -1   -1.65   10.25
   2  11   1    1.23    9.11
  13  -2   1   -3.21    9.62
  11 -13  -1    8.24    7.08
  11 -13   1    5.54    7.37
   2  11  -1   -2.42    8.46
 -11  13  -2  110.33   16.65
   2  11  -2   96.06   13.35
 -11  13   2   96.57   15.84
   2  11   2  126.02   14.57
   2  11   2  123.51   14.80
   2  11  -2  114.94   14.16
  11 -13   2  105.36   14.08
  13  -2  -2  117.56   16.74
  13  -2   2  113.89   16.67
   2  11   3    8.82    9.20
 -11  13   3   27.66   11.29
   2  11  -3   14.78    9.00
 -11  13  -3   -1.66   11.32
  11 -13  -3   24.35   12.48
   2  11  -3   34.52   10.47
  13  -2   3    8.21    9.87
  13  -2  -3   14.98   11.23
   2  11   4  118.04   15.14
 -11  13   4  131.79   17.27
   2  11  -4  114.59   14.21
  11 -13  -4  177.79   22.39
  13  -2  -4  133.97   17.47
  11 -13  -4  111.04   14.24
  13  -2   4   95.32   15.61
   2  11  -4  123.24   14.48
   2  11   5   -5.27    9.13
  11 -13  -5   -4.44   11.07
  13  -2  -5   -3.47    9.23
  11 -13  -5   -5.53    7.79
   2  11  -5   -2.52    7.76
  13  -2   5    3.33    8.44
   2  11   6    1.35    8.10
  13  -2   6   10.17    8.46
  11 -13  -6    8.93    9.51
  11 -13  -6   -4.47   11.33
  13  -2  -6   -2.26    6.53
  13  -2  -6    3.53    9.66
   2  11  -6    3.89    7.60
  11 -13  -6    2.78    7.72
   2  11   7   -1.38    8.30
  13  -2   7    3.44    8.57
  11 -13  -7   -9.06   11.86
  13  -2  -7   -2.28    7.61
  13  -2  -7    7.10    9.86
   2  11  -7   -2.68    7.75
  11 -13  -8   92.75   16.34
   2  11   8  100.10   14.45
  13  -2   8   92.87   15.60
   2  11  -8   94.03   13.57
  11 -13  -9   13.07   10.37
   2  11   9   -1.46    8.01
   2  11  -9    1.39    8.57
  11 -13 -10   86.22   15.69
   2  11  10   63.64   13.29
  11 -13 -11   24.90   12.68
   2  11  11    6.23    9.25
   2  11  12    1.61   10.13
   1  12   0   53.68   12.04
 -12  13   0   68.16   14.07
  13  -1   0   58.98   13.09
  12 -13   0   67.55   12.12
   1  12   0   55.85   10.72
 -12  13   1  -11.59   11.06
 -12  13  -1   -1.64    9.99
   1  12  -1   -8.29    9.66
   1  12   1    1.36    8.52
   1  12   1   -1.15    8.40
  13  -1  -1   -7.02   10.54
   1  12  -1   -3.42    8.18
  12 -13  -1   -4.14    7.88
  12 -13   1    4.14    7.66
  13  -1   1   -5.15   10.89
 -12  13  -2    3.32    9.48
   1  12   2   12.26    9.10
   1  12  -2    6.81    8.84
 -12  13   2   13.07   10.15
   1  12   2   11.63    7.92
  12 -13  -2   -1.38    7.75
  12 -13   2    6.94    7.93
   1  12  -2   -1.13    7.64
  13  -1  -2   14.16   11.12
  13  -1   2   10.40    9.36
 -12  13   3  581.19   35.30
 -12  13  -3  630.26   36.78
   1  12  -3  518.62   31.93
   1  12  -3  592.22   31.14
  12 -13   3  557.02   32.75
   1  12   3  584.62   31.48
  13  -1   3  510.15   34.67
  13  -1  -3  552.23   35.93
   1  12  -4  -19.20    9.16
 -12  13  -4   -5.03    9.57
   1  12   4    4.81    8.63
   1  12  -4   -1.16    7.81
  13  -1  -4   -8.95   10.88
  13  -1   4   -8.72   10.47
   1  12   5    4.91    7.62
  13  -1   5    1.76   10.06
   1  12  -5   -4.69    6.78
   1  12   6   62.58   11.22
   1  12  -6   39.32    9.55
   1  12   7    3.88    8.05
  12 -13  -7  -15.93   14.41
 -12  13   7   -3.92    8.57
   1  12  -7   -4.92    8.06
   1  12   8   -5.30    9.19
  12 -13  -8   -6.00   12.00
  13  -1  -8   -2.10   12.30
 -12  13   8    1.37    8.10
   1  12  -8    2.56    8.37
  12 -13  -9  536.99   37.17
   1  12   9  477.95   30.40
   1  12  -9  516.43   30.76
   1  12  10   14.12    8.69
   1  12 -10   10.73    8.79
   1  12  11   11.71    9.40
 -13  13   0  -13.27   12.68
   0  13   0  -13.77   11.60
 -13  13   1  127.31   17.37
   0  13   1  101.09   15.49
 -13  13  -1   99.52   16.32
   0  13  -1  111.61   16.19
 -13  13  -2   47.52   13.23
   0  13  -2   48.29   12.52
 -13  13   2   52.09   13.82
   0  13   2   28.71   11.12
 -13  13   2   64.61   10.12
 -13  13  -3   18.24    9.96
   0  13  -3   12.12    9.42
 -13  13   3    6.57   10.66
 -13  13   3    9.03    7.48
  13 -13   3   30.55   10.30
 -13  13  -4   28.24   10.91
   0  13  -4   22.58   10.37
 -13  13   4   32.30    9.57
  13 -13   4   23.57    9.30
 -13  13  -5  134.20   17.34
   0  13  -5   96.48   14.84
 -13  13   5  127.92   14.83
 -13  13   6   26.58    9.73
  13 -13  -7   93.26   18.60
  13   0  -7   97.52   17.04
 -13  13   7   76.51   12.91
  -1  14   0  771.32   43.18
 -14  13   0  801.95   43.06
 -14  13  -1    8.20   11.16
 -14  13   1    4.81   11.02
  -1  14   1   -1.65   11.66
  -1  14  -1   11.70   11.17
 -14  13   2    9.70   10.48
 -14  13  -2    4.91   10.83
 -14  13   2   19.71    8.26
 -14  13  -3    1.62   11.03
 -14  13   3    7.42    7.33
 -14  13  -4   22.97   10.90
 -14  13   4   45.99   10.73
 -14  13  -5   -1.64   11.19
 -14  13   5    9.73    9.11
  13   1  -6  624.38   41.43
 -14  13  -6  743.75   41.16
  -2  14   0  292.99   25.66
 -14  12   0  330.11   24.87
 -14  12   0  304.65   21.29
 -14  12  -1    1.48   11.17
  -2  14   1  -11.88   12.86
  -2  14  -1   -5.06   12.69
 -14  12   1  -10.22   10.90
 -14  12   1   -1.17    7.54
  14 -12   1    1.33    7.19
  -2  14  -2    1.67   12.55
 -14  12  -2   -5.96   11.39
  -2  14   2    6.72   11.96
 -14  12   2   22.67    9.33
  14 -12   2   19.57    9.13
  -2  14   3  309.84   26.40
  -2  14  -3  279.36   25.50
 -14  12  -3  378.55   26.53
 -14  12   3  324.16   23.85
  14 -12   3  344.59   23.68
 -14  12  -4   20.94   10.66
 -14  12   4   11.34    8.73
  14 -12   4   26.91    9.44
 -14  12  -5   -4.50    8.68
 -14  12   5    2.98    8.62
  14 -12   5    3.81    7.16
  12   2  -6  270.70   25.29
 -14  12   6  268.35   23.09
  14 -12   6  298.39   21.66
  12   2  -7   14.45   12.19
  12   2  -8    7.23   11.11
  12   2  -9  291.75   27.28
  -3  14   0 1532.73   69.32
 -14  11   0 1572.66   65.44
 -14  11   0 1615.35   64.64
  14 -11   0 1508.05   64.57
  -3  14   1   58.52   13.47
  -3  14  -1   70.65   14.24
 -14  11   1   91.63   13.83
 -14  11  -1   68.29   12.18
 -14  11   1   83.83   13.63
  14 -11  -1   67.47   12.73
  14 -11   1   74.89   12.35
 -14  11  -2  535.53   31.85
  -3  14   2  601.89   35.99
  -3  14  -2  544.35   35.21
 -14  11   2  555.08   32.51
  14 -11  -2  486.37   30.42
  14 -11   2  586.79   31.54
  -3  14  -3   55.45   12.88
  -3  14   3   39.03   11.71
 -14  11  -3   34.49   10.97
 -14  11   3   24.99   10.86
  14 -11   3   29.31    8.97
  -3  14  -4  514.92   34.44
  -3  14   4  504.45   34.47
 -14  11  -4  598.74   33.40
 -14  11   4  567.41   34.05
  14 -11   4  590.90   31.21
  11   3  -5   23.91   10.89
 -14  11  -5   31.14   10.90
 -14  11   5   24.28   11.55
  14 -11   5   35.06    9.72
  11   3  -6 1206.84   58.13
 -14  11   6 1255.30   58.85
  14 -11   6 1242.72   53.08
  11   3  -7   38.62   12.75
 -14  11   7   56.03   13.38
  14 -11   7   60.70   10.49
  11   3  -8  386.56   28.82
  11   3  -9   41.11   12.34
  11   3 -10  504.83   33.36
  11   3 -11   63.62   14.27
  -4  14   0   49.51   13.34
 -14  10   0   47.02   11.22
  14 -10   0   61.25   10.84
   4 -14   0   61.20   10.45
  -4  14  -1  167.33   19.23
 -14  10  -1  133.76   15.38
  -4  14   1  168.85   19.25
   4 -14   1  198.01   16.91
   4 -14  -1  135.81   14.70
  14 -10   1  160.95   15.85
  14 -10  -1  157.97   15.91
 -14  10  -2  215.56   19.27
  -4  14   2  274.64   24.23
  -4  14  -2  227.97   22.17
   4 -14  -2  218.52   18.50
   4 -14   2  237.60   18.83
  14 -10   2  224.01   18.56
  14 -10  -2  224.81   19.35
  -4  14   3  653.47   39.79
  -4  14  -3  724.35   41.07
 -14  10  -3  764.65   36.84
 -14  10  -3  688.70   34.87
 -14  10   3  737.03   40.50
   4 -14   3  705.01   35.36
  14 -10   3  690.20   35.06
  14 -10  -3  684.99   36.74
  -4  14   4  142.44   18.69
 -14  10  -4  128.06   15.08
  10   4  -4  130.08   15.97
  14 -10  -4  136.16   21.14
   4 -14   4  146.58   14.42
 -14  10   4  136.13   17.72
  14 -10   4  154.91   14.85
  14 -10  -4  122.58   15.27
  10   4  -5  132.64   15.68
 -14  10  -5  125.64   14.72
  14 -10  -5  119.00   20.11
  14 -10   5  105.02   12.32
   4 -14   5  116.14   13.45
  10   4  -6  122.99   15.61
 -14  10   6  159.72   19.33
   4 -14   6  121.63   13.46
  14 -10   6  142.49   14.04
  10   4  -7  208.43   19.85
   4 -14   7  223.14   17.38
 -14  10   7  207.08   22.64
  14 -10   7  210.05   16.95
  10   4  -8  175.69   18.74
   4 -14   8  183.20   15.93
  14 -10   8  203.61   16.40
  10   4  -9  532.58   32.33
   4 -14   9  498.37   27.42
   4 -14  10  271.94   19.17
  -5  14   0    6.79   10.43
   9   5   0   21.47   11.72
  14  -9   0    5.98    7.91
   5 -14   0    7.10    7.35
 -14   9  -1    7.85    7.62
  -5  14  -1   15.34   10.00
  -5  14   1   -1.72   10.93
  14  -9  -1   20.70    8.31
  14  -9   1   13.89    7.90
   9   5   1   10.56    9.93
   5 -14   1   31.37    8.28
   5 -14  -1   30.12    8.37
   9   5  -1   29.04   11.78
  -5  14  -2   81.53   15.37
  -5  14   2   74.15   15.10
 -14   9  -2   74.35   11.13
  14  -9  -2   90.42   12.72
  14  -9   2  103.87   12.74
   9   5  -2   74.34   14.94
   5 -14   2   58.60   10.98
   9   5   2   90.41   15.60
 -14   9  -3  258.64   18.67
  -5  14   3  245.55   23.07
  -5  14  -3  243.92   23.08
   9   5  -3  213.56   18.77
   5 -14   3  237.64   18.97
  14  -9   3  272.47   19.53
   9   5   3  267.45   24.24
   9   5  -3  282.33   24.96
 -14   9  -4   77.32   11.47
   9   5  -4   72.22   11.91
  -5  14   4   89.08   15.32
  14  -9  -4   53.02   13.70
   9   5   4   56.88   13.88
  14  -9   4   81.41   11.12
   9   5  -4   80.51   15.15
   5 -14   4   69.20   11.00
   5 -14  -4  105.47   13.07
 -14   9  -5   39.03    9.11
  -5  14   5   45.02   11.93
   9   5  -5    8.24    7.29
  14  -9  -5   26.50   12.27
   5 -14  -5   45.80   13.49
   9   5   5   21.44    9.97
   9   5  -5   44.53   12.43
  14  -9   5   39.84    8.83
   5 -14   5   35.17    8.75
  14  -9  -6   26.69   13.62
   5 -14  -6   38.55   11.97
  14  -9   6   29.29    7.64
   5 -14   6   43.23    9.24
  14  -9  -7    6.16   11.09
   5 -14  -7   -3.53   10.06
  14  -9   7   14.05    6.32
   5 -14   7   -3.19    7.17
   5 -14  -8  147.64   18.29
  14  -9   8  130.97   12.32
   5 -14  -9  307.53   26.63
   5 -14   9  286.53   20.02
   5 -14 -10   41.73   12.87
   5 -14  10   42.30    9.09
   5 -14 -11   11.18    9.91
   5 -14  11    8.80    6.96
  -6  14   0  499.05   33.47
   6 -14   0  530.77   29.51
   8   6   0  545.91   34.66
  14  -8   0  550.29   29.77
  -6  14  -1   54.77   12.45
  -6  14   1   56.81   12.32
   8   6  -1   38.57   12.85
  14  -8   1   42.20    9.06
   8   6   1   39.05   11.84
   6 -14   1   41.99    9.63
   6 -14  -1   30.62    9.09
  -6  14  -2   23.93    9.42
  -6  14   2   57.11   12.76
  14  -8   2   34.74    9.33
   8   6  -2   21.08   10.96
   6 -14   2   26.67    8.52
   8   6   2   49.78   12.86
  -6  14   3 1033.10   53.09
  -6  14  -3 1042.25   53.39
   6 -14   3 1147.96   48.66
   8   6   3 1057.47   53.79
   8   6  -3 1067.31   54.10
  14  -8   3 1107.86   47.11
  -6  14   4   20.49   10.37
  14  -8  -4   13.44   11.11
  14  -8   4    9.88    7.27
   8   6  -4    8.89   10.68
   8   6   4    5.15   10.56
   6 -14   4   -3.41    7.88
   6 -14  -4    8.43    8.05
  -6  14   5   17.31   10.01
  14  -8  -5    1.92   10.21
   6 -14  -5    3.72    9.75
   8   6  -5    9.03    9.61
  14  -8   5    0.96    5.75
   8   6   5    6.93    9.49
   6 -14   5    7.86    6.90
   6 -14  -5    6.09    6.86
  14  -8  -6  446.77   31.74
   6 -14  -6  404.60   30.45
   6 -14   6  344.92   23.20
  14  -8   6  377.36   22.00
   8   6   6  381.19   29.44
   8   6  -6  402.07   30.08
   8   6   7   35.49   11.83
  14  -8  -7   27.06   12.87
   6 -14  -7   51.85   14.01
   8   6  -7   59.93   14.25
  14  -8   7   58.50    8.74
   6 -14   7   44.44    9.53
  14  -8  -8   21.47   12.01
   6 -14  -8    9.34   11.10
  14  -8   8   36.56    7.60
   6 -14   8   17.01    7.85
  14  -8  -9 1046.98   54.31
   6 -14  -9  976.83   52.63
   6 -14   9 1011.48   44.72
   6 -14 -10   13.55    9.83
   6 -14  10   13.12    7.49
   6 -14 -11   33.65   11.93
   6 -14  11   33.31    8.81
   6 -14  12  368.10   22.07
  -7  14   0   39.19   11.80
  14  -7   0   45.56   10.56
   7   7   0   49.65   12.64
   7 -14   0   58.47   10.76
  -7  14   1  219.65   21.44
  -7  14  -1  239.72   22.49
   7 -14   1  187.81   16.89
   7   7  -1  183.16   20.59
  14  -7  -1  193.50   17.98
   7   7   1  201.84   21.16
  14  -7   1  192.09   17.73
  -7  14   2  251.69   22.44
  -7  14  -2  236.00   22.45
   7 -14   2  226.96   18.32
  14  -7  -2  186.78   18.19
   7   7   2  216.55   21.13
  14  -7   2  159.65   17.04
  14  -7   2  200.98   16.41
   7   7  -2  200.13   21.05
  -7  14   3  385.54   28.47
  -7  14  -3  401.49   29.21
   7 -14   3  357.35   24.00
   7 -14  -3  401.12   25.15
  14  -7  -3  374.56   25.55
  14  -7   3  353.92   24.97
   7   7   3  376.75   28.37
   7   7  -3  399.89   29.09
  14  -7   3  403.17   23.08
  -7  14   4  282.25   24.27
   7 -14  -4  227.66   24.05
  14  -7  -4  278.14   25.11
   7 -14   4  259.93   19.62
   7 -14  -4  271.22   20.36
   7   7   4  265.79   23.61
   7   7  -4  281.37   24.65
  14  -7   4  268.18   21.45
  14  -7  -4  244.05   20.49
  14  -7   4  287.80   18.52
   7   7   5   90.52   15.00
  14  -7   5   83.80   12.94
  -7  14   5   57.19   13.45
   7 -14  -5   70.26   14.88
  14  -7  -5   79.29   15.12
   7   7  -5   94.00   15.06
  14  -7   5   81.50   10.10
  14  -7  -5   68.71   11.92
   7 -14   5   80.72   11.59
   7 -14  -5   69.26   11.23
   7   7   6   54.10   12.74
  14  -7   6   48.14   10.72
   7 -14  -6   60.70   14.27
  14  -7  -6   76.13   14.35
   7   7  -6   54.66   12.55
  14  -7  -6   56.38   11.66
  14  -7   6   48.68    8.32
   7 -14   6   56.08   10.00
   7 -14  -6   55.66   10.41
  14  -7   7  113.81   14.54
   7   7   7  113.83   16.56
   7 -14   7  131.39   13.56
   7 -14  -7   83.99   16.53
  14  -7  -7  107.23   16.23
  14  -7   7  103.90   10.38
   7   7  -7   89.94   15.17
  14  -7  -7  111.53   14.71
  14  -7   8  170.54   17.61
   7   7   8  167.82   19.75
   7 -14  -8  185.63   21.66
  14  -7  -8  203.75   21.35
   7 -14   8  169.07   15.79
   7   7  -8  186.46   20.70
  14  -7  -8  174.43   18.51
  14  -7   9  247.50   21.63
   7 -14  -9  282.90   26.01
  14  -7  -9  203.51   22.85
   7 -14   9  251.61   18.78
  14  -7  10  211.07   20.36
   7 -14 -10  223.42   24.20
  14  -7 -10  204.04   22.16
   7 -14  10  175.40   16.06
   7 -14  11   53.05    9.64
   7 -14  12   40.87    8.80
   8 -14   0   -3.68    7.62
   6   8   0   -1.58    8.99
  14  -6   0   -4.01    8.20
   8 -14   1   -1.22    7.49
   6   8  -1   -1.60    9.59
  14  -6   1   10.81    8.20
  14  -6  -1    2.68    8.15
   6   8   1    6.30    8.63
   8 -14   2   -3.65    7.55
  14  -6  -2    1.37    7.92
  14  -6   2    5.42    8.33
   6   8   2    7.93    8.94
   6   8  -2   -1.62    9.75
   8 -14   3   91.74   12.42
   6   8   3   69.96   13.98
  14  -6   3   83.73   12.91
   6   8  -3   72.95   13.76
   8 -14  -3   82.89   12.48
  14  -6  -3   92.63   13.80
  14  -6   4   50.22   11.35
   8 -14   4   40.76    9.90
   8 -14  -4   43.24   14.08
   6   8   4   48.09   12.32
  14  -6   4   42.55    8.25
   6   8  -4   59.12   12.80
  14  -6  -4   53.23   11.54
   8 -14  -4   34.09    8.70
   6   8   5   39.08   11.18
  14  -6   5   45.51   10.80
   8 -14   5   47.46    9.82
   8 -14  -5   43.04   13.77
  14  -6  -5   40.33   12.05
  14  -6   5   47.51    8.49
   6   8  -5   54.95   12.43
  14  -6  -5   47.58   11.51
   8 -14  -5   62.70   10.72
   6   8   6   47.67   12.39
  14  -6   6   46.26   10.85
   8 -14   6   59.76   10.32
   8 -14  -6   49.40   13.32
  14  -6  -6   79.16   14.48
   6   8  -6   49.16   12.18
  14  -6  -6   47.69   11.43
  14  -6   6   49.36    7.99
   8 -14  -6   71.44   10.90
   6   8   7   -3.36    9.60
  14  -6   7    7.38    8.32
   8 -14   7    3.47    6.33
   8 -14  -7    6.16    8.72
  14  -6  -7   -1.70    9.18
  14  -6  -7   -1.52    8.10
   6   8  -7   -1.71    8.51
   8 -14  -7   -3.02    8.40
  14  -6   8    9.08    8.86
   6   8   8    1.70    8.93
   8 -14   8    2.27    6.57
   8 -14  -8    4.16    8.82
  14  -6  -8    1.71    8.97
  14  -6  -8    1.55    8.50
   6   8  -8    3.43    9.66
  14  -6   9  125.62   16.39
   8 -14   9  134.77   14.07
   8 -14  -9  120.34   19.30
  14  -6  -9  144.93   17.97
  14  -6  10    9.63   10.20
  14  -6 -10    3.55   11.28
   8 -14  10   17.47    7.51
  14  -6  11    3.29    9.63
  14  -6 -11    5.43   10.88
   8 -14  11   14.90    7.38
   8 -14  12   12.47    6.54
   8 -14  13   33.21    8.08
  14  -5   0  -12.94   10.75
   5   9   0  -14.94   11.83
  -9  14  -1  128.28   17.80
  -9  14   1  100.24   16.17
  14  -5   1   84.38   13.76
   5   9   1  126.78   16.47
  14  -5  -1   83.11   14.11
   5   9  -1   89.31   14.83
  -9  14  -2   24.65   11.84
  -9  14   2   45.69   13.59
   9 -14  -2   54.18   10.97
   5   9  -2   59.98   13.43
  14  -5   2   35.22   11.69
   5   9   2   41.07   12.03
  14  -5  -2   47.53   12.07
  -9  14   3   24.28   11.37
  -9  14  -3   74.65   14.64
   9 -14  -3   61.61   11.24
  14  -5   3   51.60   12.85
   5   9   3   54.95   12.11
  14  -5  -3   55.18   12.47
   5   9  -3   66.44   13.38
   5   9   4    9.27    9.27
  14  -5   4   17.96    8.88
  -9  14   4   12.16    9.10
   9 -14  -4   12.53    8.46
   9 -14  -4   21.55   12.31
  14  -5  -4   10.60    9.52
   5   9  -4    3.10    8.75
   9 -14  -4    7.52    8.25
  -9  14   5  175.61   19.89
   9 -14  -5  206.08   23.36
  14  -5  -5  199.27   19.68
   9 -14  -5  204.62   17.71
   9 -14  -5  206.54   19.14
   5   9   5  215.10   20.53
  14  -5   5  180.92   18.75
  14  -5  -5  206.35   20.29
   5   9  -5  207.45   20.20
  14  -5   5  161.26   13.53
   5   9   6   -6.39    9.93
  14  -5   6    1.55    8.25
   9 -14  -6   -6.47   11.99
  14  -5  -6    3.12    8.90
  14  -5  -6   -6.40    8.89
   5   9  -6   -3.23    9.47
  14  -5   6    5.35    4.75
   5   9   7  133.06   17.46
  14  -5   7  152.38   17.80
  14  -5  -7  181.76   19.28
   9 -14  -7  189.48   22.40
  14  -5  -7  151.35   18.20
   5   9  -7  162.38   18.77
   5   9   8   18.24   10.08
  14  -5   8    6.42    9.16
  14  -5  -8    1.59    9.19
  14  -5  -8    8.27    9.19
   5   9  -8   14.84    9.29
   5   9   9   32.27   11.93
  14  -5   9   41.07   12.13
  14  -5  -9   25.98   10.59
   5   9  -9   43.35   12.02
  14  -5  -9   46.80   12.05
  14  -5  10   72.56   13.85
  14  -5 -10   52.96   13.06
  14  -5 -11   91.73   16.75
 -10  14   0  246.89   23.04
  14  -4   0  214.23   20.80
   4  10   0  259.88   21.59
 -10  14  -1   14.12   10.72
 -10  14   1    7.12   10.29
  14  -4  -1   10.98    9.85
   4  10  -1   -2.84    9.20
   4  10   1    1.45    9.57
  14  -4   1   -4.67    9.88
 -10  14  -2    7.09    9.14
 -10  14   2   -1.77    9.84
   4  10  -2   10.11    8.77
  14  -4   2    1.57    9.64
   4  10   2    4.34    9.28
  10 -14  -2    7.48    8.65
  14  -4  -2   -9.58   11.64
 -10  14   3   29.74   11.37
 -10  14  -3   30.40   11.74
   4  10   3   36.62   10.63
  14  -4   3   18.86   10.12
  10 -14  -3   41.81   11.10
  14  -4  -3   19.20   10.20
   4  10  -3   26.46   10.23
   4  10   4    8.93    8.39
 -10  14   4    7.03    9.21
  10 -14  -4   -9.00   11.97
  14  -4   4    1.59    9.43
  14  -4  -4    4.86    9.25
   4  10  -4    1.47    8.27
  14  -4   5   -4.86    9.36
   4  10   5   10.62    8.77
  10 -14  -5   -4.49   12.11
  14  -4  -5   -4.97    9.33
   4  10  -5    1.49    7.94
  14  -4   6  105.01   15.73
   4  10   6  147.99   17.49
  14  -4  -6  113.20   15.02
  14  -4  -6  142.98   17.82
   4  10  -6  107.98   15.05
  14  -4   7    1.67   10.15
   4  10   7    1.58    8.51
  14  -4  -7    4.32    8.43
  14  -4  -7   -1.73    9.76
   4  10  -7    3.12    8.29
   4  10   8   24.17   10.98
  14  -4   8   23.79   10.58
  14  -4  -8   27.74    9.96
  14  -4  -8   13.99   10.64
   4  10  -8   11.04    9.38
   4  10   9   18.13   10.25
  14  -4  -9   11.86    9.52
   4  10  -9   19.15   10.67
  14  -4 -10   24.44    9.83
   4  10 -10   24.13   10.35
  14  -4 -11   17.22   10.47
  14  -4 -12  104.81   16.41
 -11  14   0  442.94   31.87
  14  -3   0  421.96   30.14
   3  11   0  408.46   27.60
 -11  14   1   16.20   11.67
 -11  14  -1   10.63   11.37
  14  -3  -1    8.38   11.20
   3  11   1    9.57    9.73
  14  -3   1    4.97   10.63
   3  11  -1    6.78    9.56
 -11  14   2  273.71   24.98
 -11  14  -2  242.71   24.10
  14  -3  -2  265.62   24.02
   3  11   2  258.60   21.96
   3  11  -2  244.44   20.96
  14  -3   2  234.00   22.59
 -11  14  -3  -12.61   13.25
   3  11   3    2.81    9.46
  14  -3   3   -5.03   11.62
  14  -3  -3  -10.22   12.52
 -11  14   4  181.22   21.35
 -11  14  -4  211.04   22.46
   3  11  -4  212.13   19.81
  14  -3   4  182.26   20.26
  14  -3  -4  216.49   22.14
   3  11   4  239.96   20.95
  14  -3   5   30.79   12.00
   3  11   5   21.74   10.27
  14  -3  -5   31.54   11.96
   3  11  -5   37.68   10.30
   3  11   6  263.59   22.63
   3  11  -6  272.30   22.69
   3  11   7   15.10    9.50
   3  11  -7   16.07    8.99
   3  11   8  160.51   18.89
   3  11  -8  190.02   19.62
   3  11   9    3.19    9.45
   3  11  -9   -1.52    9.82
   3  11  10  226.10   21.89
   3  11 -10  217.88   21.01
 -12  14   0  207.58   22.09
   2  12   0  172.10   17.96
   2  12   0  221.35   19.55
   2  12  -1   15.81   10.72
   2  12   1   11.69    9.64
 -12  14   1   23.33   12.45
 -12  14  -1   21.48   11.62
   2  12   1   10.33    9.27
   2  12  -1   15.41   10.03
 -12  14  -2    1.79   12.74
   2  12  -2   -2.65   10.13
 -12  14   2    1.77   10.87
   2  12   2   -2.60    9.34
   2  12  -2   -1.27   10.08
   2  12  -3  688.86   37.91
   2  12   3  790.04   39.47
   2  12  -3  781.72   39.16
   2  12   4   -4.03    9.63
   2  12  -4    1.29    8.47
   2  12   5    4.09    7.69
   2  12  -5   17.16    8.73
   2  12   6  169.93   18.04
   2  12  -6  165.35   17.42
   2  12   7   32.83   10.53
   2  12  -7   27.10    9.85
   2  12   8   -4.40   11.61
   2  12  -8    1.39    8.06
   2  12   9  781.59   41.65
   2  12  -9  746.41   40.40
   2  12  10    3.09    9.69
   1  13   0  255.60   22.23
   1  13  -1  -10.32   11.26
   1  13   1   18.87   10.50
   1  13  -2   -1.48   10.76
   1  13  -3   52.55   12.35
   1  13  -4   44.03   11.46
   1  13  -5   -2.92    9.38
  13 -14  -6   99.75   18.46
   1  13  -6  123.23   15.95
 -15  13   0   37.57   13.42
 -15  13   1  140.08   17.96
 -15  13  -1  120.75   16.93
 -15  13  -2   -3.19   12.18
 -15  13  -3   72.03   14.77
 -15  13  -4   -3.18    9.31
 -15  13   4   -1.43    7.84
 -15  12   0   -9.90   10.88
 -15  12  -1   64.90   12.83
 -15  12  -2   80.57   14.11
 -15  12   2   91.41   14.10
 -15  12  -3  224.82   21.68
 -15  12   3  285.86   23.83
 -15  12  -4   85.02   14.49
 -15  12   4   82.02   14.84
 -15  12  -5   29.18   11.01
 -15  11   0  358.00   25.66
 -15  11   1   45.81   11.78
 -15  11   2   26.61   11.79
  15 -11   2   14.00    8.52
 -15  11   3  631.39   37.17
  15 -11   3  581.14   32.50
 -15  11   4    5.16    9.83
  15 -11   4   10.89    8.00
 -15  11   5   14.36   10.52
  15 -11   5   16.54    7.52
  15 -11   6  165.66   15.86
  15 -11   7   12.38    7.38
  15 -10   0    3.83    7.30
  15 -10  -1   71.40   12.30
  15 -10   1   83.97   12.18
  15 -10   2   80.02   11.88
  15 -10   3    2.37    7.37
  15 -10   4   29.85    8.75
  15 -10   5   81.98   11.44
  15 -10   6    8.55    6.42
  15 -10   7   55.55    9.40
  15  -9   0  368.93   24.57
  15  -9  -1    8.97    8.39
  15  -9   1    2.42    7.34
  15  -9  -2    6.62    8.13
  15  -9   2    8.12    7.60
  15  -9   3   80.22   11.71
  15  -9   4    3.26    6.52
  15  -9   5    9.39    6.63
   6 -15  -6  307.54   26.99
  15  -9   6  268.96   19.06
   6 -15  -7    7.80    9.89
   6 -15  -8    5.88   10.58
  15  -8   1   55.86   10.60
  15  -8   2   63.25   10.59
  15  -8   3   28.11    8.54
  15  -8   4   36.87    8.46
  15  -8  -5   37.90   13.65
   7 -15  -5   41.16   14.21
  15  -8   5   51.27    9.20
  15  -8  -6    4.02   11.32
   7 -15  -6    2.06   10.11
  15  -8   6    6.54    5.94
   7 -15  -7   82.14   16.34
  15  -7   0  108.03   15.00
   7   8   0   93.12   16.12
  15  -7   1    1.37   10.88
   7   8  -1    1.75   11.55
  15  -7  -1    6.81    9.93
   7   8   1    1.74   12.47
   7   8  -2  152.07   19.75
  15  -7   2  159.65   17.50
  15  -7  -2  175.04   18.30
   7   8   2  137.94   19.11
  15  -7   2  170.52   15.64
  15  -7   3  124.22   16.07
  15  -7  -3   97.76   15.39
   7   8   3  104.24   17.76
   7   8  -3  108.81   18.37
  15  -7   3  126.10   13.39
  15  -7   4  166.58   18.17
  15  -7   4  171.35   15.29
  15  -7  -4  165.38   18.15
   8 -15  -5   54.18   15.26
  15  -7   5   64.01    9.71
  15  -7  -5   54.35   12.28
   8 -15  -6  207.64   24.14
  15  -7  -6  202.58   22.35
  15  -7  -7   28.18   11.96
  15  -7  -8  203.79   22.38
  15  -6   0   28.15   11.69
   6   9   0   41.25   13.71
   6   9   1  162.75   19.92
   6   9  -1  132.48   18.71
  15  -6  -1  133.78   17.43
  15  -6   1  126.60   17.32
  15  -6   2  213.97   20.70
   6   9  -2  212.98   22.54
  15  -6  -2  164.32   19.46
   6   9   2  233.44   23.26
   6   9  -3  684.42   40.63
   6   9   3  688.73   40.18
  15  -6  -3  666.99   38.37
  15  -6   3  650.30   37.41
   6   9   4  192.42   20.87
  15  -6   4  193.64   20.07
  15  -6   4  198.78   15.97
   6   9  -4  210.68   22.15
  15  -6  -4  219.83   21.62
   6   9   5  186.04   20.27
  15  -6   5  209.77   20.31
   6   9  -5  179.18   20.56
  15  -6  -5  164.48   18.79
  15  -6   6   35.88   11.80
  15  -6  -6   27.90   11.82
  15  -6  -6   54.15   13.08
  15  -6  -7  201.68   21.00
  15  -6  -7  139.22   18.07
  15  -6   7  192.15   20.04
  15  -6   8  147.35   18.13
  15  -6  -8  155.83   19.91
  15  -6  -8  180.74   19.88
  15  -6  -9  742.27   43.27
   5  10   0   80.62   13.93
  15  -5   0   69.92   13.93
  15  -5   1  -11.16   11.44
  15  -5  -1    3.16   10.13
   5  10  -1   -4.70   10.25
   5  10   1    7.95    9.99
  15  -5   2   -6.39   11.26
   5  10  -2    9.50    9.94
   5  10   2    1.59   10.40
  15  -5  -3  391.87   29.89
  15  -5   3  492.98   31.83
   5  10  -3  475.62   31.43
   5  10   3  465.89   30.95
  15  -5   4    8.13    9.03
   5  10   4    4.86    9.13
  15  -5  -4   -6.58   10.99
   5  10  -4    8.13    9.28
  15  -5   5   -3.27    9.33
   5  10   5   -3.29   10.78
  15  -5  -5   -4.99    9.99
   5  10  -5    6.48    9.00
  15  -5   6   43.41   12.15
   5  10   6   31.74   11.34
   5  10  -6   59.18   13.34
  15  -5  -7    4.85    8.60
  15  -5  -8   -9.76   10.44
  15  -5  -9  432.04   30.41
   4  11   0   87.48   14.98
  15  -4   0   91.14   15.65
   4  11   1    4.51    9.24
   4  11  -1    7.50    9.52
   4  11   2    3.04   10.23
   4  11  -2   -4.44    9.70
   4  11  -3  724.74   39.41
   4  11   3  683.00   39.42
   4  11   4   -4.67   10.00
   4  11  -4   -3.06    9.82
   4  11   5    3.17    9.73
   4  11  -5    7.69    9.66
   4  11   6  166.92   19.43
   4  11  -6  160.51   18.46
   4  11  -7   18.89   10.73
   3  12   0  109.03   16.73
   3  12   1  264.12   23.28
   3  12  -1  271.48   23.08
   3  12   2  272.91   23.69
   3  12  -2  260.24   22.82
   3  12  -3  808.59   42.21
   3  12   3  836.83   43.47
   3  12   4  191.23   19.83
   3  12  -4  158.24   18.38
   3  12  -5  250.81   22.40
   3  12   5  229.71   21.90
   3  12   6   86.94   14.93
   3  12  -6  110.87   15.99
   3  12   7  239.12   22.72
   3  12  -7  270.20   22.97
 -16  11   2  -14.00   11.81
  16 -10   4   64.20   11.96
  16 -10   5  310.74   21.72
  16  -9   2   19.18    9.24
  16  -9   3  367.77   24.09
  16  -9   4   30.03    9.38
  16  -8   1   68.98   11.52
  16  -8   2   19.98    9.06
  16  -8   3  254.21   19.49
  16  -8   4   21.05    9.11
  16  -7   2   38.36   10.88
  16  -7   3 1178.96   50.77
  16  -6   0  747.68   41.97
  16  -6   1    3.22   11.86
  16  -6  -1   22.57   12.32
   0   0   0    0.00    0.00



TITL LQF-A4-100K in P6(3)/m
REM P6(3)/m (#176 in standard setting)
CELL 0.71073  12.076124  12.076124  17.860905  90.0000  90.0000 120.0000
ZERR   10.00   0.000266   0.000266   0.000470   0.0000   0.0000   0.0000
LATT  1
SYMM -y, x-y, z
SYMM -x+y,-x, z
SYMM -x,-y, z+1/2
SYMM  y,-x+y, z+1/2
SYMM  x-y, x, z+1/2
SFAC C H N O
UNIT 110.00 100.00 10.00 10.00
REM  CrysAlisPro recorded range (K): Min=100.0; max=100.0; aver:100.0
TEMP -173
TREF
HKLF 4
END
_computing_structure_solution     'SHELXT 2014/5 (Sheldrick, 2014)'
_computing_structure_solution     'SHELXT 2014/5 (Sheldrick, 2014)'
;
_shelx_hkl_checksum              42836
_shelx_fab_file
;
0 0 8 1.9893 0.1012
0 0 10 -0.2241 0.1306
0 0 14 2.8152 -0.1616
0 0 16 -1.9654 -0.0908
0 0 18 -6.2310 -0.1309
0 0 20 0.1913 -0.0719
0 1 0 23.3195 0.3042
0 1 1 0.0076 0.0024
0 1 2 5.5604 -0.1316
0 1 3 0.0149 0.0013
0 1 4 -10.8709 0.0390
0 1 5 -0.0076 0.0002
0 1 6 -3.3093 -0.0716
0 1 7 -0.0024 0.0014
0 1 8 1.6974 0.1552
0 1 9 0.0064 -0.0000
0 1 10 -0.2258 0.1252
0 1 11 0.0091 0.0004
0 1 12 7.8192 0.1599
0 1 13 0.0043 0.0016
0 1 14 2.5794 -0.1257
0 1 15 -0.0006 -0.0008
0 1 16 -1.8407 -0.0998
0 1 17 0.0172 0.0000
0 1 18 -5.8566 -0.1467
0 1 19 0.0064 -0.0020
0 1 20 0.3530 -0.0700
0 1 21 -0.0034 0.0032
0 2 0 19.1424 0.5447
0 2 1 0.0572 0.0176
0 2 2 4.2688 -0.0856
0 2 3 0.1121 0.0094
0 2 4 -9.2210 0.0254
0 2 5 -0.0571 0.0015
0 2 6 -2.7291 -0.0774
0 2 7 -0.0177 0.0102
0 2 8 0.9113 0.1766
0 2 9 0.0470 -0.0003
0 2 10 -0.2186 0.0916
0 2 11 0.0677 0.0030
0 2 12 6.6801 0.1120
0 2 13 0.0329 0.0118
0 2 14 1.9326 -0.0555
0 2 15 -0.0045 -0.0052
0 2 16 -1.4958 -0.0802
0 2 17 0.1286 0.0004
0 2 18 -4.8115 -0.1719
0 2 19 0.0475 -0.0149
0 2 20 0.7851 -0.0570
0 2 21 -0.0258 0.0242
0 3 1 0.1741 0.0520
0 3 2 2.4599 -0.0265
0 3 3 0.3409 0.0277
0 3 4 -6.8595 0.0093
0 3 5 -0.1729 0.0041
0 3 6 -1.8578 -0.0705
0 3 7 -0.0514 0.0303
0 3 8 -0.1323 0.1602
0 3 9 0.1363 -0.0015
0 3 10 -0.1711 0.0430
0 3 11 0.2009 0.0086
0 3 12 5.0049 0.0421
0 3 13 0.1015 0.0333
0 3 14 1.0396 0.0260
0 3 15 -0.0143 -0.0116
0 3 16 -1.0109 -0.0424
0 3 17 0.3884 0.0018
0 3 18 -3.3106 -0.1782
0 3 19 0.1404 -0.0461
0 3 20 1.3463 -0.0315
0 3 21 -0.0792 0.0722
0 4 0 6.8827 0.6778
0 4 1 0.3564 0.1013
0 4 2 0.5493 0.0231
0 4 3 0.6968 0.0536
0 4 4 -4.2632 -0.0069
0 4 5 -0.3505 0.0070
0 4 6 -0.8209 -0.0449
0 4 7 -0.0972 0.0598
0 4 8 -1.1293 0.1116
0 4 9 0.2590 -0.0046
0 4 10 -0.0487 -0.0036
0 4 11 0.3955 0.0167
0 4 12 3.0766 -0.0295
0 4 13 0.2118 0.0609
0 4 14 0.1199 0.0905
0 4 15 -0.0307 -0.0109
0 4 16 -0.4954 -0.0033
0 4 17 0.7853 0.0059
0 4 18 -1.6505 -0.1354
0 4 19 0.2751 -0.0968
0 4 20 1.8524 0.0063
0 4 21 -0.1636 0.1436
0 5 0 1.3240 0.5672
0 5 1 0.5736 0.1512
0 5 2 -1.0497 0.0447
0 5 3 1.1208 0.0791
0 5 4 -1.9202 -0.0212
0 5 5 -0.5554 0.0086
0 5 6 0.2381 0.0004
0 5 7 -0.1369 0.0905
0 5 8 -1.8100 0.0468
0 5 9 0.3726 -0.0103
0 5 10 0.1681 -0.0349
0 5 11 0.6024 0.0247
0 5 12 1.2001 -0.0829
0 5 13 0.3507 0.0818
0 5 14 -0.6157 0.1122
0 5 15 -0.0525 0.0109
0 5 16 -0.0589 0.0210
0 5 17 1.2442 0.0142
0 5 18 -0.1367 -0.0277
0 5 19 0.4162 -0.1611
0 5 20 2.1350 0.0529
0 6 0 -2.5231 0.3828
0 6 1 0.7752 0.1818
0 6 2 -2.0329 0.0311
0 6 3 1.5184 0.0931
0 6 4 -0.2126 -0.0325
0 6 5 -0.7324 0.0078
0 6 6 1.1826 0.0594
0 6 7 -0.1455 0.1100
0 6 8 -2.0228 -0.0134
0 6 9 0.4240 -0.0184
0 6 10 0.4692 -0.0470
0 6 11 0.7542 0.0299
0 6 12 -0.3597 -0.1040
0 6 13 0.4941 0.0821
0 6 14 -1.0225 0.0757
0 6 15 -0.0761 0.0671
0 6 16 0.2163 0.0212
0 6 17 1.6507 0.0280
0 6 18 0.9884 0.1354
0 6 19 0.5170 -0.2275
0 7 0 -4.2813 0.1759
0 7 1 0.9065 0.1750
0 7 2 -2.2767 -0.0115
0 7 3 1.7914 0.0854
0 7 4 0.6652 -0.0403
0 7 5 -0.8232 0.0046
0 7 6 1.9040 0.1210
0 7 7 -0.0997 0.1050
0 7 8 -1.7721 -0.0493
0 7 9 0.3720 -0.0269
0 7 10 0.8118 -0.0463
0 7 11 0.7914 0.0305
0 7 12 -1.4276 -0.0889
0 7 13 0.6143 0.0521
0 7 14 -1.0572 -0.0193
0 7 15 -0.0965 0.1621
0 7 16 0.2959 -0.0021
0 7 17 1.8918 0.0468
0 7 18 1.5957 0.3192
0 8 0 -4.1331 -0.0061
0 8 1 0.9255 0.1208
0 8 2 -1.8540 -0.0654
0 8 3 1.8708 0.0503
0 8 4 0.7336 -0.0448
0 8 5 -0.7852 0.0006
0 8 6 2.3372 0.1734
0 8 7 0.0132 0.0658
0 8 8 -1.2006 -0.0494
0 8 9 0.2065 -0.0323
0 8 10 1.1288 -0.0460
0 8 11 0.6863 0.0262
0 8 12 -1.9427 -0.0440
0 8 13 0.6877 -0.0073
0 8 14 -0.7796 -0.1570
0 8 15 -0.1087 0.2870
0 8 16 0.1984 -0.0391
0 8 17 1.8960 0.0683
0 9 0 -2.6837 -0.1318
0 9 1 0.8166 0.0216
0 9 2 -0.9955 -0.1093
0 9 3 1.7391 -0.0109
0 9 4 0.1968 -0.0464
0 9 5 -0.6069 -0.0024
0 9 6 2.4671 0.2089
0 9 7 0.1880 -0.0097
0 9 8 -0.5250 -0.0141
0 9 9 -0.0431 -0.0306
0 9 10 1.3483 -0.0590
0 9 11 0.4549 0.0192
0 9 12 -1.9554 0.0162
0 9 13 0.7009 -0.0844
0 9 14 -0.3241 -0.3091
0 9 15 -0.1093 0.4193
0 9 16 -0.0133 -0.0752
0 10 0 -0.7210 -0.1921
0 10 1 0.5948 -0.1080
0 10 2 -0.0093 -0.1259
0 10 3 1.4340 -0.0903
0 10 4 -0.6344 -0.0451
0 10 5 -0.3128 -0.0035
0 10 6 2.3259 0.2272
0 10 7 0.4000 -0.1148
0 10 8 0.0462 0.0447
0 10 9 -0.3156 -0.0189
0 10 10 1.4161 -0.0912
0 10 11 0.1523 0.0129
0 10 12 -1.6001 0.0741
0 10 13 0.6534 -0.1598
0 10 14 0.1483 -0.4421
0 11 0 1.0370 -0.1980
0 11 1 0.3021 -0.2455
0 11 2 0.8130 -0.1084
0 11 3 1.0340 -0.1750
0 11 4 -1.4375 -0.0407
0 11 5 0.0415 -0.0041
0 11 6 1.9817 0.2350
0 11 7 0.6095 -0.2339
0 11 8 0.3809 0.1072
0 11 9 -0.5377 0.0030
0 11 10 1.3131 -0.1378
0 11 11 -0.1456 0.0108
0 11 12 -1.0526 0.1142
0 12 0 2.1296 -0.1726
0 12 1 -0.0050 -0.3666
0 12 2 1.2752 -0.0627
0 12 3 0.6318 -0.2509
0 12 4 -1.9654 -0.0330
0 12 5 0.3839 -0.0084
0 12 6 1.5231 0.2420
0 12 7 0.7712 -0.3462
0 12 8 0.4549 0.1531
0 12 9 -0.6489 0.0317
0 13 0 2.4244 -0.1407
0 13 1 -0.2707 -0.4520
0 13 2 1.3185 -0.0046
0 13 3 0.3056 -0.3063
1 1 1 0.1519 -0.0071
1 1 2 4.6809 -0.0949
1 1 3 0.0727 -0.0089
1 1 4 -9.7501 0.0367
1 1 5 -0.1391 -0.0068
1 1 6 -2.9176 -0.0612
1 1 7 -0.0118 -0.0004
1 1 8 1.1591 0.0815
1 1 9 0.1458 -0.0042
1 1 10 -0.2230 0.0875
1 1 11 0.0381 0.0011
1 1 12 7.0481 0.1156
1 1 13 -0.1173 0.0047
1 1 14 2.1383 -0.0966
1 1 15 0.0157 -0.0046
1 1 16 -1.6059 -0.0518
1 1 17 -0.0279 -0.0001
1 1 18 -5.1471 -0.1578
1 1 19 0.0147 0.0094
1 1 20 0.6496 -0.0566
1 1 21 -0.0280 0.0298
1 2 1 0.4913 0.0012
1 2 2 3.1344 -0.0434
1 2 3 0.3308 -0.0132
1 2 4 -7.7462 0.0208
1 2 5 -0.4465 -0.0168
1 2 6 -2.1930 -0.0636
1 2 7 -0.0553 0.0110
1 2 8 0.2493 0.0994
1 2 9 0.4528 -0.0116
1 2 10 -0.1951 0.0494
1 2 11 0.1796 0.0063
1 2 12 5.6438 0.0588
1 2 13 -0.2791 0.0258
1 2 14 1.3698 -0.0176
1 2 15 0.0378 -0.0167
1 2 16 -1.1918 -0.0290
1 2 17 0.0721 0.0006
1 2 18 -3.8760 -0.1737
1 2 19 0.0933 0.0085
1 2 20 1.1446 -0.0379
1 2 21 -0.1060 0.1097
1 3 1 0.9681 0.0277
1 3 2 1.2886 0.0096
1 3 3 0.7526 -0.0091
1 3 4 -5.2730 0.0038
1 3 5 -0.8621 -0.0270
1 3 7 -0.1274 0.0346
1 3 8 -0.7559 0.0859
1 3 9 0.8502 -0.0207
1 3 10 -0.1070 0.0062
1 3 11 0.4019 0.0145
1 3 13 -0.4228 0.0584
1 3 14 0.4659 0.0592
1 3 15 0.0580 -0.0271
1 3 16 -0.6948 0.0017
1 3 17 0.3180 0.0033
1 3 18 -2.3003 -0.1542
1 3 19 0.2250 -0.0091
1 3 20 1.6737 -0.0071
1 3 21 -0.2234 0.2272
1 4 0 3.4900 0.4509
1 4 1 1.4994 0.0672
1 4 2 -0.4326 0.0440
1 4 3 1.2700 0.0035
1 4 4 -2.8156 -0.0113
1 4 5 -1.2942 -0.0347
1 4 6 -0.1963 -0.0266
1 4 7 -0.2133 0.0658
1 4 8 -1.5646 0.0472
1 4 9 1.2328 -0.0297
1 4 10 0.0713 -0.0278
1 4 11 0.6503 0.0235
1 4 12 1.9652 -0.0719
1 4 13 -0.4899 0.0905
1 4 14 -0.3600 0.1054
1 4 15 0.0686 -0.0200
1 4 16 -0.2269 0.0255
1 4 17 0.6788 0.0101
1 4 18 -0.7215 -0.0757
1 4 19 0.3772 -0.0457
1 4 20 2.0603 0.0343
1 4 21 -0.3587 0.3572
1 5 0 -1.0803 0.3802
1 5 1 1.9800 0.1055
1 5 3 1.7721 0.0191
1 5 4 -0.8113 -0.0219
1 5 5 -1.6363 -0.0383
1 5 6 0.8040 0.0101
1 5 7 -0.2864 0.0940
1 5 9 1.4848 -0.0369
1 5 10 0.3474 -0.0449
1 5 11 0.8464 0.0302
1 5 12 0.2744 -0.1129
1 5 13 -0.4476 0.1062
1 5 14 -0.9337 0.0993
1 5 15 0.0652 0.0213
1 5 16 0.1133 0.0317
1 5 17 1.0682 0.0225
1 5 18 0.5873 0.0648
1 5 19 0.5003 -0.0965
1 5 20 2.1711 0.0810
1 6 0 -3.7090 0.2415
1 6 1 2.3088 0.1247
1 6 2 -2.1807 0.0198
1 6 3 2.1413 0.0295
1 6 4 0.4514 -0.0267
1 6 5 -1.7973 -0.0365
1 6 6 1.6392 0.0468
1 6 7 -0.3153 0.1056
1 6 8 -1.8868 -0.0450
1 6 9 1.5164 -0.0402
1 6 10 0.6961 -0.0477
1 6 11 0.9171 0.0320
1 6 12 -1.0030 -0.1260
1 6 13 -0.2970 0.0919
1 6 14 -1.1653 0.0323
1 6 15 0.0479 0.1069
1 6 16 0.2660 0.0177
1 6 17 1.3770 0.0406
1 6 18 1.4424 0.2439
1 6 19 0.5476 -0.1513
1 7 0 -4.3187 0.0788
1 7 1 2.4139 0.1095
1 7 2 -1.9688 -0.0267
1 7 3 2.2903 0.0266
1 7 4 0.8872 -0.0250
1 7 5 -1.7270 -0.0285
1 7 6 2.2238 0.0716
1 7 7 -0.2736 0.0878
1 7 8 -1.4130 -0.0655
1 7 9 1.2946 -0.0374
1 7 10 1.0604 -0.0470
1 7 11 0.8232 0.0286
1 7 12 -1.7525 -0.1130
1 7 13 -0.0709 0.0435
1 7 14 -1.0654 -0.0879
1 7 15 0.0215 0.2328
1 7 16 0.2239 -0.0102
1 7 17 1.5131 0.0627
1 7 18 1.7822 0.4174
1 8 0 -3.3313 -0.0682
1 8 1 2.2700 0.0538
1 8 2 -1.1912 -0.0730
1 8 3 2.1896 0.0057
1 8 4 0.6118 -0.0171
1 8 5 -1.4304 -0.0144
1 8 6 2.5175 0.0764
1 8 7 -0.1503 0.0330
1 8 8 -0.7338 -0.0566
1 8 9 0.8561 -0.0264
1 8 10 1.3653 -0.0561
1 8 11 0.5754 0.0218
1 8 12 -1.9749 -0.0834
1 8 13 0.1776 -0.0312
1 8 14 -0.7304 -0.2383
1 8 15 -0.0067 0.3794
1 8 16 0.0315 -0.0402
1 8 17 1.4347 0.0850
1 9 0 -1.4716 -0.1741
1 9 1 1.9037 -0.0376
1 9 2 -0.1381 -0.1007
1 9 3 1.8753 -0.0326
1 9 4 -0.1124 -0.0036
1 9 5 -0.9659 0.0041
1 9 6 2.5259 0.0617
1 9 7 0.0449 -0.0577
1 9 8 -0.0719 -0.0216
1 9 9 0.2980 -0.0063
1 9 10 1.5397 -0.0835
1 9 11 0.2330 0.0155
1 9 12 -1.7686 -0.0498
1 9 13 0.3912 -0.1138
1 9 14 -0.3027 -0.3865
1 9 15 -0.0298 0.5148
1 10 0 0.4872 -0.2316
1 10 1 1.3846 -0.1497
1 10 2 0.8672 -0.0990
1 10 3 1.4348 -0.0826
1 10 4 -0.9642 0.0142
1 10 5 -0.4288 0.0231
1 10 6 2.2946 0.0368
1 10 7 0.2803 -0.1736
1 10 8 0.3967 0.0274
1 10 9 -0.2509 0.0219
1 10 10 1.5385 -0.1283
1 10 11 -0.1156 0.0140
1 10 12 -1.2938 -0.0242
1 10 13 0.5246 -0.1819
1 11 0 1.9483 -0.2486
1 11 1 0.8069 -0.2622
1 11 2 1.5613 -0.0688
1 11 3 0.9770 -0.1356
1 11 4 -1.6555 0.0348
1 11 5 0.0754 0.0367
1 11 6 1.8968 0.0169
1 11 7 0.5097 -0.2961
1 11 8 0.5935 0.0734
1 11 9 -0.6693 0.0544
1 11 10 1.3576 -0.1788
1 12 0 2.6217 -0.2414
1 12 1 0.2656 -0.3550
1 12 2 1.8063 -0.0216
1 12 3 0.5972 -0.1821
1 12 4 -2.0021 0.0561
1 12 5 0.4573 0.0379
1 12 6 1.4181 0.0165
2 1 0 15.4516 -0.2118
2 1 1 0.3569 -0.0395
2 1 3 0.0675 -0.0349
2 1 4 -7.7459 0.0281
2 1 5 -0.3127 -0.0201
2 1 6 -2.1939 -0.0472
2 1 7 -0.0148 -0.0126
2 1 8 0.2489 0.0051
2 1 9 0.3454 -0.0106
2 1 10 -0.1962 0.0341
2 1 11 0.0228 -0.0005
2 1 12 5.6438 0.0471
2 1 13 -0.3570 -0.0007
2 1 14 1.3710 -0.0377
2 1 15 0.0487 -0.0065
2 1 16 -1.1911 0.0070
2 1 17 -0.2288 -0.0006
2 1 18 -3.8768 -0.1657
2 1 19 -0.0164 0.0439
2 1 20 1.1442 -0.0328
2 1 21 -0.0450 0.0536
2 2 0 10.2685 0.0323
2 2 1 1.0327 -0.0447
2 2 2 1.5483 0.0069
2 2 3 0.4729 -0.0563
2 2 4 -5.6331 0.0119
2 2 5 -0.8975 -0.0430
2 2 6 -1.3950 -0.0432
2 2 7 -0.0919 -0.0013
2 2 8 -0.6124 0.0209
2 2 9 0.9476 -0.0253
2 2 10 -0.1308 0.0021
2 2 11 0.2307 0.0063
2 2 12 4.1277 -0.0064
2 2 13 -0.7460 0.0289
2 2 14 0.5996 0.0359
2 2 15 0.1030 -0.0245
2 2 16 -0.7640 0.0231
2 2 17 -0.1924 0.0005
2 2 18 -2.5380 -0.1529
2 2 19 0.0853 0.0634
2 2 20 1.6015 -0.0082
2 2 21 -0.1761 0.1944
2 3 0 4.7520 0.1901
2 3 1 1.8491 -0.0285
2 3 2 -0.1008 0.0434
2 3 3 1.0374 -0.0656
2 3 4 -3.3089 -0.0031
2 3 5 -1.5601 -0.0636
2 3 6 -0.4508 -0.0289
2 3 7 -0.2053 0.0235
2 3 8 -1.3980 0.0130
2 3 9 1.6068 -0.0397
2 3 10 0.0076 -0.0251
2 3 11 0.5027 0.0155
2 3 12 2.3973 -0.0602
2 3 13 -1.0750 0.0676
2 3 14 -0.1909 0.0940
2 3 15 0.1517 -0.0336
2 3 16 -0.3144 0.0370
2 3 17 -0.0002 0.0049
2 3 18 -1.0627 -0.0901
2 3 19 0.2322 0.0635
2 3 20 1.9959 0.0274
2 3 21 -0.3394 0.3684
2 4 0 0.0350 0.2467
2 4 1 2.6483 0.0034
2 4 2 -1.4318 0.0574
2 4 3 1.6386 -0.0607
2 4 4 -1.2107 -0.0131
2 4 5 -2.1363 -0.0761
2 4 6 0.5074 -0.0091
2 4 7 -0.3308 0.0546
2 4 8 -1.8688 -0.0128
2 4 9 2.1422 -0.0497
2 4 10 0.2372 -0.0383
2 4 11 0.7518 0.0236
2 4 12 0.7366 -0.1008
2 4 13 -1.2408 0.0987
2 4 14 -0.8213 0.1122
2 4 15 0.1812 -0.0141
2 4 16 0.0554 0.0386
2 4 17 0.3021 0.0146
2 4 18 0.2759 0.0341
2 4 19 0.3750 0.0408
2 4 20 2.1834 0.0703
2 5 0 -3.0722 0.2131
2 5 1 3.2719 0.0369
2 5 2 -2.1612 0.0445
2 5 3 2.1351 -0.0450
2 5 4 0.3171 -0.0155
2 5 5 -2.4803 -0.0765
2 5 6 1.3574 0.0054
2 5 7 -0.4336 0.0797
2 5 8 -1.8986 -0.0445
2 5 9 2.3964 -0.0521
2 5 10 0.5503 -0.0373
2 5 11 0.8876 0.0276
2 5 12 -0.6126 -0.1211
2 5 13 -1.1899 0.1053
2 5 14 -1.1737 0.0756
2 5 15 0.1840 0.0499
2 5 16 0.2682 0.0243
2 5 17 0.6237 0.0305
2 5 18 1.2635 0.2069
2 5 19 0.4596 -0.0005
2 6 0 -4.2603 0.1183
2 6 1 3.5979 0.0553
2 6 2 -2.1762 0.0113
2 6 3 2.4107 -0.0260
2 6 4 1.0968 -0.0089
2 6 5 -2.5047 -0.0631
2 6 6 2.0051 0.0017
2 6 7 -0.4765 0.0845
2 6 8 -1.5086 -0.0681
2 6 9 2.2830 -0.0447
2 6 10 0.9080 -0.0305
2 6 11 0.8500 0.0259
2 6 12 -1.4962 -0.1216
2 6 13 -0.9317 0.0774
2 6 14 -1.2182 -0.0164
2 6 15 0.1606 0.1616
2 6 16 0.2914 -0.0018
2 6 17 0.8641 0.0514
2 6 18 1.7879 0.3918
2 7 0 -3.7385 -0.0015
2 7 1 3.5678 0.0456
2 7 2 -1.5542 -0.0274
2 7 3 2.4093 -0.0114
2 7 4 1.1428 0.0069
2 7 5 -2.2026 -0.0362
2 7 6 2.3955 -0.0289
2 7 7 -0.4321 0.0573
2 7 8 -0.8479 -0.0731
2 7 9 1.8124 -0.0266
2 7 10 1.2457 -0.0314
2 7 11 0.6328 0.0198
2 7 12 -1.8703 -0.1093
2 7 13 -0.5315 0.0172
2 7 14 -1.0103 -0.1491
2 7 15 0.1187 0.3073
2 7 16 0.1439 -0.0296
2 7 17 0.9510 0.0740
2 8 1 3.1964 0.0035
2 8 2 -0.5292 -0.0551
2 8 3 2.1506 -0.0068
2 8 4 0.6347 0.0306
2 8 5 -1.6458 0.0012
2 8 7 -0.2924 -0.0065
2 8 8 -0.1307 -0.0560
2 8 9 1.0885 0.0016
2 8 10 1.4902 -0.0509
2 8 11 0.2880 0.0131
2 8 13 -0.0881 -0.0608
2 8 14 -0.6635 -0.2953
2 8 15 0.0698 0.4575
2 8 16 -0.1113 -0.0476
2 9 0 -0.0931 -0.1999
2 9 1 2.5636 -0.0655
2 9 2 0.5853 -0.0602
2 9 3 1.7197 -0.0139
2 9 4 -0.1501 0.0600
2 9 5 -0.9619 0.0430
2 9 6 2.3924 -0.1572
2 9 7 -0.0739 -0.1025
2 9 8 0.4423 -0.0221
2 9 9 0.2773 0.0373
2 9 10 1.5812 -0.0916
2 9 11 -0.0909 0.0104
2 9 12 -1.4061 -0.0862
2 9 13 0.2964 -0.1347
2 9 14 -0.3061 -0.4224
2 10 0 1.6148 -0.2519
2 10 1 1.7908 -0.1479
2 10 2 1.4889 -0.0405
2 10 3 1.2365 -0.0306
2 10 4 -0.9216 0.0924
2 10 5 -0.2960 0.0812
2 10 6 2.0804 -0.2220
2 10 7 0.1841 -0.2167
2 10 8 0.7488 0.0173
2 10 9 -0.4425 0.0757
2 10 10 1.4908 -0.1452
2 10 11 -0.4009 0.0156
2 11 0 2.6111 -0.2745
2 11 1 1.0106 -0.2268
2 11 2 1.9758 -0.0038
2 11 3 0.8163 -0.0521
2 11 4 -1.4547 0.1241
2 11 5 0.2281 0.1062
2 11 6 1.6524 -0.2577
2 11 7 0.4288 -0.3287
2 11 8 0.7742 0.0489
2 12 0 2.7992 -0.2774
2 12 1 0.3366 -0.2871
3 1 0 9.3593 -0.3619
3 1 1 0.5528 -0.0930
3 1 2 1.2737 0.0171
3 1 3 -0.0597 -0.0732
3 1 4 -5.2710 0.0144
3 1 5 -0.4519 -0.0358
3 1 6 -1.2470 -0.0245
3 1 7 -0.0100 -0.0363
3 1 8 -0.7581 -0.0570
3 1 9 0.5382 -0.0161
3 1 10 -0.1144 -0.0165
3 1 11 -0.0668 -0.0054
3 1 12 3.8504 -0.0247
3 1 13 -0.6674 -0.0163
3 1 14 0.4739 0.0291
3 1 15 0.0931 -0.0078
3 1 16 -0.6903 0.0560
3 1 17 -0.6019 -0.0024
3 1 18 -2.3049 -0.1414
3 1 19 -0.1017 0.1024
3 1 20 1.6710 0.0012
3 1 21 -0.0336 0.0578
3 2 0 4.7434 -0.1321
3 2 1 1.5565 -0.1098
3 2 2 -0.1281 0.0455
3 2 3 0.4656 -0.1085
3 2 4 -3.3053 0.0001
3 2 5 -1.2738 -0.0689
3 2 6 -0.4613 -0.0118
3 2 7 -0.1286 -0.0248
3 2 8 -1.4022 -0.0410
3 2 9 1.4016 -0.0354
3 2 10 -0.0060 -0.0326
3 2 11 0.1838 0.0022
3 2 12 2.3973 -0.0603
3 2 13 -1.2504 0.0203
3 2 14 -0.1761 0.0835
3 2 15 0.1774 -0.0293
3 2 16 -0.3063 0.0563
3 2 17 -0.6415 -0.0007
3 2 18 -1.0710 -0.0842
3 2 19 0.0108 0.1438
3 2 20 1.9908 0.0311
3 2 21 -0.2046 0.2520
3 3 0 0.4393 0.0260
3 3 1 2.6417 -0.0984
3 3 2 -1.3974 0.0604
3 3 3 1.1141 -0.1238
3 3 4 -1.3451 -0.0098
3 3 5 -2.0838 -0.0940
3 3 6 0.3790 0.0029
3 3 7 -0.2868 0.0015
3 3 8 -1.8316 -0.0407
3 3 9 2.2245 -0.0503
3 3 10 0.1723 -0.0365
3 3 11 0.4643 0.0109
3 3 12 0.9055 -0.0853
3 3 13 -1.6813 0.0614
3 3 14 -0.7492 0.1134
3 3 15 0.2455 -0.0325
3 3 16 0.0499 0.0467
3 3 17 -0.5033 0.0056
3 3 18 0.1461 0.0300
3 3 19 0.1543 0.1589
3 3 20 2.1731 0.0692
3 4 0 -2.6830 0.0996
3 4 1 3.5960 -0.0660
3 4 2 -2.2287 0.0563
3 4 3 1.7269 -0.1161
3 4 4 0.2618 -0.0114
3 4 5 -2.6766 -0.1035
3 4 6 1.1566 0.0072
3 4 7 -0.4507 0.0332
3 4 8 -1.8895 -0.0513
3 4 9 2.7816 -0.0556
3 4 10 0.4240 -0.0259
3 4 11 0.6706 0.0170
3 4 12 -0.3806 -0.0933
3 4 13 -1.8384 0.0883
3 4 14 -1.1219 0.1015
3 4 15 0.2810 0.0031
3 4 16 0.2957 0.0241
3 4 17 -0.2449 0.0180
3 4 18 1.1292 0.1971
3 4 19 0.2711 0.1444
3 5 0 -4.1515 0.0971
3 5 1 4.2380 -0.0272
3 5 2 -2.4400 0.0360
3 5 3 2.1558 -0.0890
3 5 4 1.2814 -0.0020
3 5 5 -2.9071 -0.0931
3 5 6 1.7771 -0.0141
3 5 7 -0.5771 0.0565
3 5 8 -1.5463 -0.0638
3 5 9 2.9151 -0.0481
3 5 10 0.7290 -0.0078
3 5 11 0.7185 0.0177
3 5 12 -1.2842 -0.0860
3 5 13 -1.6804 0.0857
3 5 14 -1.2400 0.0404
3 5 15 0.2773 0.0885
3 5 16 0.3796 -0.0082
3 5 17 0.0406 0.0363
3 5 18 1.7372 0.3889
3 6 0 -3.9764 0.0412
3 6 1 4.4566 0.0016
3 6 2 -2.0185 0.0099
3 6 3 2.3073 -0.0508
3 6 4 1.6383 0.0188
3 6 5 -2.7277 -0.0618
3 6 6 2.1811 -0.0726
3 6 7 -0.6253 0.0573
3 6 8 -0.9044 -0.0686
3 6 9 2.5797 -0.0268
3 6 10 1.0422 0.0048
3 6 11 0.5752 0.0132
3 6 12 -1.7270 -0.0712
3 6 13 -1.2533 0.0488
3 6 14 -1.1263 -0.0636
3 6 15 0.2384 0.2184
3 6 16 0.2944 -0.0406
3 6 17 0.2617 0.0580
3 7 0 -2.5844 -0.0398
3 7 1 4.2318 0.0087
3 7 2 -1.1153 -0.0089
3 7 3 2.1686 -0.0108
3 7 4 1.4150 0.0498
3 7 5 -2.1954 -0.0128
3 7 6 2.3481 -0.1694
3 7 7 -0.5691 0.0263
3 7 8 -0.1537 -0.0595
3 7 9 1.8527 0.0067
3 7 10 1.3021 -0.0015
3 7 11 0.2726 0.0062
3 7 12 -1.7341 -0.0596
3 7 13 -0.6710 -0.0139
3 7 14 -0.8631 -0.1917
3 7 15 0.1773 0.3691
3 7 16 0.0780 -0.0618
3 8 0 -0.6365 -0.1217
3 8 1 3.6307 -0.0097
3 8 2 0.0051 -0.0105
3 8 3 1.8068 0.0231
3 8 4 0.8119 0.0882
3 8 5 -1.4498 0.0474
3 8 6 2.2932 -0.2913
3 8 7 -0.4065 -0.0384
3 8 8 0.4993 -0.0364
3 8 9 0.9084 0.0486
3 8 10 1.4483 -0.0331
3 8 11 -0.1026 0.0014
3 8 12 -1.4141 -0.0602
3 8 13 -0.0781 -0.0834
3 8 14 -0.5579 -0.3163
3 9 0 1.1973 -0.1884
3 9 2 1.0447 0.0076
3 9 3 1.3417 0.0467
3 9 4 0.0791 0.1302
3 9 5 -0.6676 0.1092
3 9 6 2.0584 -0.4129
3 9 7 -0.1627 -0.1288
3 9 8 0.9025 -0.0054
3 9 9 -0.0355 0.0928
3 9 10 1.4392 -0.0855
3 9 11 -0.4394 0.0037
3 9 12 -0.9206 -0.0765
3 10 0 2.4319 -0.2336
3 10 1 1.8530 -0.0971
3 10 2 1.7571 0.0393
3 10 3 0.9042 0.0588
3 10 4 -0.5544 0.1710
3 10 5 -0.0118 0.1610
3 10 6 1.7014 -0.5029
3 10 7 0.1148 -0.2288
3 10 8 1.0024 0.0239
3 10 9 -0.7810 0.1323
3 11 0 2.8696 -0.2584
3 11 1 0.9850 -0.1421
3 11 2 2.0106 0.0721
3 11 3 0.5936 0.0608
3 11 4 -0.9373 0.2057
3 11 5 0.4102 0.1916
4 1 0 3.4738 -0.4104
4 1 1 0.6884 -0.1543
4 1 2 -0.4838 0.0500
4 1 3 -0.3144 -0.1131
4 1 4 -2.8087 -0.0024
4 1 5 -0.5033 -0.0486
4 1 6 -0.2160 0.0118
4 1 7 -0.0069 -0.0661
4 1 8 -1.5724 -0.0923
4 1 9 0.6777 -0.0169
4 1 10 0.0459 -0.0482
4 1 11 -0.2229 -0.0127
4 1 12 1.9651 -0.0772
4 1 13 -0.9791 -0.0355
4 1 14 -0.3323 0.0772
4 1 15 0.1408 -0.0171
4 1 16 -0.2115 0.0775
4 1 17 -1.0923 -0.0069
4 1 18 -0.7370 -0.0611
4 1 19 -0.2280 0.1785
4 1 20 2.0508 0.0439
4 1 21 0.0160 0.0374
4 2 0 -0.0005 -0.2059
4 2 2 -1.5415 0.0571
4 2 3 0.2949 -0.1527
4 2 4 -1.1958 -0.0130
4 2 6 0.4651 0.0335
4 2 8 -1.8858 -0.0732
4 2 9 1.7141 -0.0363
4 2 10 0.1834 -0.0431
4 2 11 0.0438 -0.0051
4 2 12 0.7365 -0.0809
4 2 13 -1.6656 0.0071
4 2 14 -0.7619 0.1034
4 2 15 0.2450 -0.0391
4 2 16 0.0883 0.0565
4 2 17 -1.1813 -0.0043
4 2 18 0.2431 0.0446
4 2 19 -0.1132 0.2361
4 2 20 2.1633 0.0765
4 3 0 -2.7214 -0.0569
4 3 1 3.2094 -0.1563
4 3 2 -2.3446 0.0532
4 3 3 0.9703 -0.1624
4 3 4 0.2777 -0.0159
4 3 5 -2.3130 -0.1082
4 3 6 1.1120 0.0438
4 3 7 -0.3804 -0.0215
4 3 8 -1.9077 -0.0622
4 3 9 2.5741 -0.0464
4 3 10 0.3681 -0.0224
4 3 11 0.2975 0.0022
4 3 12 -0.3805 -0.0653
4 3 13 -2.0856 0.0484
4 3 14 -1.0594 0.1035
4 3 15 0.3186 -0.0325
4 3 16 0.3304 0.0223
4 3 17 -1.0655 0.0039
4 3 18 1.0949 0.2034
4 3 19 0.0154 0.2583
4 4 0 -4.1439 0.0257
4 4 1 4.1977 -0.1134
4 4 2 -2.6810 0.0405
4 4 3 1.5386 -0.1407
4 4 4 1.3715 -0.0071
4 4 5 -2.8109 -0.1080
4 4 6 1.6344 0.0234
4 4 7 -0.5773 0.0124
4 4 8 -1.5750 -0.0564
4 4 9 3.0289 -0.0424
4 4 10 0.5929 0.0087
4 4 11 0.4340 0.0057
4 4 12 -1.2024 -0.0334
4 4 13 -2.1332 0.0697
4 4 14 -1.1658 0.0677
4 4 15 0.3463 0.0204
4 4 16 0.4559 -0.0212
4 4 17 -0.8140 0.0186
4 4 18 1.6731 0.3956
4 4 19 0.1008 0.2431
4 5 0 -4.1278 0.0472
4 5 1 4.7535 -0.0608
4 5 2 -2.4646 0.0266
4 5 3 1.8660 -0.0936
4 5 4 1.9538 0.0147
4 5 5 -2.8608 -0.0823
4 5 6 1.9750 -0.0444
4 5 7 -0.7169 0.0357
4 5 8 -0.9463 -0.0501
4 5 9 2.9602 -0.0225
4 5 10 0.8336 0.0376
4 5 11 0.3905 0.0036
4 5 12 -1.6287 0.0041
4 5 13 -1.8086 0.0597
4 5 14 -1.0854 -0.0047
4 5 15 0.3259 0.1232
4 5 16 0.4369 -0.0642
4 5 17 -0.5215 0.0383
4 5 18 1.9113 0.5816
4 6 0 -2.9343 0.0237
4 6 1 4.8036 -0.0147
4 6 2 -1.7563 0.0209
4 6 3 1.8957 -0.0317
4 6 4 2.0199 0.0489
4 6 5 -2.4771 -0.0324
4 6 6 2.1148 -0.1650
4 6 7 -0.7580 0.0359
4 6 8 -0.1782 -0.0382
4 6 9 2.3906 0.0120
4 6 10 1.0505 0.0492
4 6 11 0.1690 -0.0028
4 6 12 -1.6567 0.0328
4 6 13 -1.2107 0.0195
4 6 14 -0.8764 -0.1035
4 6 15 0.2677 0.2610
4 6 16 0.2841 -0.0945
4 7 0 -1.0996 -0.0249
4 7 1 4.3803 0.0134
4 7 2 -0.7428 0.0306
4 7 3 1.6603 0.0332
4 7 4 1.6779 0.0925
4 7 5 -1.7837 0.0357
4 7 6 2.0678 -0.3279
4 7 7 -0.6792 0.0062
4 7 8 0.5324 -0.0187
4 7 9 1.4706 0.0565
4 7 10 1.1965 0.0330
4 7 11 -0.1642 -0.0094
4 7 12 -1.3691 0.0405
4 7 13 -0.5018 -0.0373
4 7 14 -0.6242 -0.2094
4 7 15 0.1903 0.4024
4 8 0 0.7589 -0.0811
4 8 1 3.6032 0.0203
4 8 2 0.3203 0.0565
4 8 3 1.2632 0.0913
4 8 4 1.1056 0.1408
4 8 5 -0.9691 0.1126
4 8 6 1.8711 -0.5055
4 8 7 -0.4876 -0.0516
4 8 8 1.0183 0.0063
4 8 9 0.4293 0.1045
4 8 10 1.2314 -0.0114
4 8 11 -0.5015 -0.0114
4 8 12 -0.9025 0.0216
4 8 13 0.1443 -0.0897
4 9 0 2.1366 -0.1325
4 9 1 2.6414 0.0099
4 9 2 1.1830 0.0916
4 9 3 0.8404 0.1362
4 9 4 0.4959 0.1884
4 9 5 -0.2281 0.1860
4 9 6 1.5734 -0.6597
4 9 7 -0.2185 -0.1271
4 9 8 1.1950 0.0308
4 9 9 -0.4946 0.1480
4 9 10 1.1354 -0.0724
4 10 0 2.7696 -0.1726
4 10 1 1.6698 -0.0091
4 10 2 1.6696 0.1240
4 10 3 0.5124 0.1649
4 10 4 0.0055 0.2296
4 10 5 0.2936 0.2429
4 10 6 1.2246 -0.7528
5 1 0 -1.1216 -0.3679
5 1 1 0.7419 -0.2021
5 1 2 -1.7881 0.0484
5 1 3 -0.6485 -0.1402
5 1 4 -0.7941 -0.0202
5 1 5 -0.4529 -0.0538
5 1 6 0.7553 0.0632
5 1 7 -0.0236 -0.0916
5 1 8 -1.9844 -0.0951
5 1 9 0.7484 -0.0107
5 1 10 0.2858 -0.0543
5 1 11 -0.4023 -0.0201
5 1 12 0.2744 -0.0932
5 1 13 -1.2210 -0.0462
5 1 14 -0.8653 0.0837
5 1 15 0.1827 -0.0464
5 1 16 0.1512 0.0630
5 1 17 -1.5894 -0.0156
5 1 18 0.5497 0.0795
5 1 19 -0.3588 0.2594
5 1 20 2.1480 0.0904
5 2 0 -3.1643 -0.1970
5 2 1 2.1850 -0.2099
5 2 2 -2.4375 0.0372
5 2 3 0.0054 -0.1708
5 2 4 0.3551 -0.0266
5 2 5 -1.4631 -0.0881
5 2 6 1.2511 0.0927
5 2 7 -0.2476 -0.0699
5 2 8 -1.9422 -0.0698
5 2 9 1.8348 -0.0251
5 2 10 0.4176 -0.0289
5 2 11 -0.1454 -0.0130
5 2 12 -0.6121 -0.0542
5 2 13 -1.8911 0.0011
5 2 14 -1.0248 0.0803
5 2 15 0.2915 -0.0650
5 2 16 0.3509 0.0207
5 2 17 -1.6767 -0.0118
5 2 18 1.1821 0.2222
5 2 19 -0.2472 0.3225
5 3 0 -4.2750 -0.0641
5 3 1 3.4785 -0.1774
5 3 2 -2.8009 0.0246
5 3 3 0.6596 -0.1634
5 3 4 1.3317 -0.0223
5 3 5 -2.2205 -0.1015
5 3 6 1.6386 0.0930
5 3 7 -0.4948 -0.0340
5 3 8 -1.6044 -0.0464
5 3 9 2.6039 -0.0263
5 3 10 0.5588 0.0111
5 3 11 0.0560 -0.0074
5 3 12 -1.2828 0.0085
5 3 13 -2.1936 0.0404
5 3 14 -1.0463 0.0572
5 3 15 0.3553 -0.0451
5 3 16 0.4875 -0.0335
5 3 17 -1.5382 -0.0015
5 3 18 1.6325 0.4037
5 4 0 -4.2297 0.0212
5 4 1 4.3930 -0.1176
5 4 2 -2.7524 0.0177
5 4 3 1.1477 -0.1203
5 4 4 1.9946 -0.0042
5 4 5 -2.5536 -0.0884
5 4 6 1.8648 0.0407
5 4 7 -0.7128 0.0030
5 4 8 -0.9937 -0.0244
5 4 9 2.8650 -0.0112
5 4 10 0.7010 0.0542
5 4 11 0.1135 -0.0066
5 4 12 -1.6268 0.0814
5 4 13 -2.0689 0.0552
5 4 14 -0.9318 0.0109
5 4 15 0.3639 0.0250
5 4 16 0.5227 -0.0893
5 4 17 -1.2544 0.0153
5 4 18 1.8294 0.5919
5 5 0 -3.1532 0.0602
5 5 1 4.7942 -0.0485
5 5 2 -2.2749 0.0242
5 5 3 1.3658 -0.0511
5 5 4 2.2830 0.0278
5 5 5 -2.4155 -0.0484
5 5 6 1.9165 -0.0778
5 5 7 -0.8498 0.0272
5 5 8 -0.2304 -0.0020
5 5 9 2.5694 0.0198
5 5 10 0.8279 0.0845
5 5 11 -0.0051 -0.0109
5 5 12 -1.6208 0.1453
5 5 13 -1.5754 0.0395
5 5 14 -0.7274 -0.0554
5 5 15 0.3219 0.1399
5 5 16 0.4448 -0.1330
5 6 0 -1.4481 0.0619
5 6 1 4.6629 0.0134
5 6 2 -1.4655 0.0485
5 6 3 1.2991 0.0305
5 6 4 2.2207 0.0712
5 6 5 -1.8875 0.0148
5 6 6 1.8144 -0.2585
5 6 7 -0.8680 0.0283
5 6 8 0.5099 0.0218
5 6 9 1.8169 0.0626
5 6 10 0.9162 0.0879
5 6 11 -0.2637 -0.0181
5 6 12 -1.3258 0.1813
5 6 13 -0.8649 0.0004
5 6 14 -0.5033 -0.1315
5 6 15 0.2466 0.2762
5 7 0 0.3570 0.0381
5 7 1 4.0860 0.0579
5 7 2 -0.5068 0.0887
5 7 3 1.0181 0.1110
5 7 4 1.8980 0.1214
5 7 5 -1.1437 0.0933
5 7 6 1.6008 -0.4763
5 7 7 -0.7554 0.0034
5 7 8 1.0579 0.0457
5 7 9 0.8185 0.1106
5 7 10 0.9404 0.0587
5 7 11 -0.5721 -0.0239
5 7 12 -0.8615 0.1782
5 7 13 -0.1306 -0.0454
5 8 0 1.7838 0.0004
5 8 1 3.2228 0.0826
5 8 2 0.3863 0.1357
5 8 3 0.6474 0.1797
5 8 4 1.4404 0.1722
5 8 5 -0.3917 0.1760
5 8 6 1.3245 -0.6899
5 8 7 -0.5309 -0.0426
5 8 8 1.3083 0.0664
5 8 9 -0.1713 0.1555
5 8 10 0.8825 0.0035
5 8 11 -0.8190 -0.0239
5 9 0 2.5406 -0.0416
5 9 1 2.2588 0.0912
5 9 2 1.0283 0.1758
5 9 3 0.3196 0.2302
5 9 4 0.9721 0.2176
5 9 5 0.1904 0.2501
5 9 6 1.0287 -0.8523
5 9 7 -0.2402 -0.0974
6 1 0 -3.7935 -0.2666
6 1 1 0.7215 -0.2148
6 1 2 -2.4316 0.0134
6 1 3 -0.9784 -0.1408
6 1 4 0.4861 -0.0374
6 1 5 -0.3276 -0.0491
6 1 6 1.5427 0.1263
6 1 7 -0.0797 -0.0997
6 1 8 -1.9267 -0.0671
6 1 9 0.7614 0.0026
6 1 10 0.5764 -0.0401
6 1 11 -0.5437 -0.0248
6 1 12 -1.0023 -0.0652
6 1 13 -1.3404 -0.0364
6 1 14 -1.0303 0.0359
6 1 15 0.2100 -0.1057
6 1 16 0.3410 0.0166
6 1 17 -1.9639 -0.0291
6 1 18 1.3690 0.2587
6 1 19 -0.4489 0.3290
6 2 0 -4.4470 -0.1328
6 2 1 2.2183 -0.2002
6 2 2 -2.7167 -0.0059
6 2 3 -0.3189 -0.1498
6 2 4 1.1724 -0.0408
6 2 5 -1.2697 -0.0742
6 2 6 1.7977 0.1615
6 2 7 -0.3557 -0.0681
6 2 8 -1.5961 -0.0331
6 2 9 1.7648 -0.0031
6 2 10 0.6545 -0.0010
6 2 11 -0.3199 -0.0185
6 2 12 -1.4937 0.0212
6 2 13 -1.8802 0.0128
6 2 14 -0.9284 0.0101
6 2 15 0.3069 -0.1152
6 2 16 0.4529 -0.0418
6 2 17 -1.9954 -0.0236
6 2 18 1.6319 0.4137
6 3 0 -4.2420 -0.0184
6 3 1 3.4437 -0.1464
6 3 2 -2.7640 -0.0130
6 3 3 0.2783 -0.1179
6 3 4 1.7443 -0.0316
6 3 5 -1.8719 -0.0761
6 3 6 1.8958 0.1477
6 3 7 -0.6320 -0.0262
6 3 8 -1.0276 0.0031
6 3 9 2.3392 0.0060
6 3 10 0.7000 0.0483
6 3 11 -0.1849 -0.0148
6 3 12 -1.7217 0.1300
6 3 13 -1.9956 0.0466
6 3 14 -0.7288 -0.0225
6 3 15 0.3483 -0.0782
6 3 16 0.5167 -0.1068
6 3 17 -1.7971 -0.0107
6 4 0 -3.2119 0.0663
6 4 1 4.2052 -0.0705
6 4 2 -2.5070 0.0003
6 4 3 0.6699 -0.0527
6 4 4 2.1290 -0.0078
6 4 5 -2.0226 -0.0521
6 4 6 1.8287 0.0610
6 4 7 -0.8518 0.0122
6 4 8 -0.3054 0.0391
6 4 10 0.7152 0.0926
6 4 11 -0.2008 -0.0159
6 4 12 -1.6492 0.2375
6 4 13 -1.6908 0.0531
6 4 14 -0.4787 -0.0619
6 4 15 0.3315 0.0087
6 4 16 0.5074 -0.1639
6 5 0 -1.6396 0.1178
6 5 1 4.4245 0.0088
6 5 2 -1.9607 0.0372
6 5 3 0.7898 0.0323
6 5 4 2.2946 0.0290
6 5 5 -1.7425 -0.0043
6 5 6 1.6267 -0.1052
6 5 7 -0.9655 0.0351
6 5 8 0.4236 0.0725
6 5 9 1.8731 0.0679
6 5 10 0.7024 0.1154
6 5 11 -0.3667 -0.0216
6 5 12 -1.3191 0.3176
6 5 13 -1.0828 0.0324
6 5 14 -0.2433 -0.1051
6 5 15 0.2691 0.1313
6 6 0 0.0499 0.1375
6 6 1 4.1406 0.0765
6 6 2 -1.2201 0.0936
6 6 3 0.6617 0.1213
6 6 4 2.2508 0.0750
6 6 5 -1.1657 0.0620
6 6 6 1.3441 -0.3341
6 6 7 -0.9443 0.0361
6 6 8 1.0004 0.1009
6 6 9 1.0346 0.1119
6 6 10 0.6610 0.1059
6 6 11 -0.6204 -0.0293
6 6 12 -0.8359 0.3498
6 6 13 -0.3585 -0.0041
6 7 0 1.4366 0.1300
6 7 1 3.4845 0.1247
6 7 2 -0.4335 0.1578
6 7 3 0.3815 0.2009
6 7 4 2.0405 0.1242
6 7 5 -0.4884 0.1386
6 7 6 1.0395 -0.5864
6 7 7 -0.7893 0.0162
6 7 8 1.3090 0.1211
6 7 9 0.0925 0.1547
6 7 10 0.5880 0.0646
6 7 11 -0.8621 -0.0347
6 8 0 2.2356 0.1022
6 8 1 2.6353 0.1533
6 8 2 0.2404 0.2131
6 8 3 0.0782 0.2623
6 8 4 1.7255 0.1703
6 8 5 0.0960 0.2150
6 8 6 0.7594 -0.8104
6 8 7 -0.5323 -0.0164
6 8 8 1.3136 0.1302
6 9 0 2.3685 0.0622
6 9 1 1.7709 0.1670
6 9 2 0.6786 0.2429
7 1 0 -4.4669 -0.1495
7 1 1 0.6565 -0.1775
7 1 2 -2.3919 -0.0409
7 1 3 -1.2149 -0.1062
7 1 4 0.9468 -0.0529
7 1 5 -0.1838 -0.0355
7 1 6 2.0616 0.1939
7 1 7 -0.1874 -0.0795
7 1 8 -1.4822 -0.0164
7 1 9 0.7405 0.0197
7 1 10 0.8639 -0.0207
7 1 11 -0.5924 -0.0252
7 1 12 -1.7501 0.0016
7 1 13 -1.3166 -0.0001
7 1 14 -0.8391 -0.0637
7 1 15 0.2169 -0.1960
7 1 16 0.3502 -0.0468
7 1 17 -2.1118 -0.0467
7 1 18 1.6611 0.4337
7 2 0 -4.0589 -0.0496
7 2 1 2.0896 -0.1355
7 2 2 -2.4432 -0.0547
7 2 3 -0.5852 -0.0858
7 2 4 1.2700 -0.0564
7 2 5 -0.9783 -0.0485
7 2 6 2.0555 0.2331
7 2 7 -0.5007 -0.0382
7 2 8 -0.9960 0.0275
7 2 9 1.5446 0.0240
7 2 10 0.8412 0.0224
7 2 11 -0.4199 -0.0196
7 2 12 -1.8632 0.1328
7 2 13 -1.6491 0.0456
7 2 14 -0.5372 -0.0978
7 2 15 0.2882 -0.1890
7 2 16 0.4088 -0.1123
7 2 17 -2.0515 -0.0386
7 3 0 -3.0460 0.0487
7 3 1 3.1560 -0.0634
7 3 2 -2.3522 -0.0422
7 3 3 -0.0679 -0.0291
7 3 4 1.5957 -0.0467
7 3 5 -1.3965 -0.0406
7 3 6 1.8770 0.2038
7 3 7 -0.7833 0.0059
7 3 8 -0.3646 0.0751
7 3 9 1.8622 0.0418
7 3 10 0.7537 0.0705
7 3 11 -0.3548 -0.0171
7 3 12 -1.7209 0.2791
7 3 13 -1.5617 0.0693
7 3 14 -0.2090 -0.1226
7 3 15 0.2998 -0.1311
7 3 16 0.4456 -0.1774
7 4 0 -1.6185 0.1329
7 4 1 3.7206 0.0194
7 4 2 -2.0759 0.0009
7 4 3 0.2263 0.0510
7 4 4 1.8776 -0.0232
7 4 5 -1.3948 -0.0123
7 4 6 1.5629 0.0858
7 4 7 -0.9793 0.0404
7 4 8 0.2990 0.1204
7 4 9 1.6598 0.0715
7 4 10 0.6243 0.1068
7 4 11 -0.4282 -0.0194
7 4 12 -1.3505 0.4079
7 4 13 -1.1232 0.0648
7 4 14 0.0748 -0.1385
7 4 15 0.2576 -0.0276
7 5 0 -0.1006 0.1934
7 5 1 3.7673 0.0949
7 5 2 -1.6254 0.0703
7 5 3 0.2685 0.1380
7 5 4 2.0712 0.0117
7 5 5 -1.0498 0.0329
7 5 6 1.1806 -0.1173
7 5 7 -1.0477 0.0567
7 5 8 0.8562 0.1575
7 5 9 1.0482 0.1085
7 5 10 0.4793 0.1167
7 5 11 -0.6114 -0.0259
7 5 12 -0.8416 0.4892
7 5 13 -0.4922 0.0378
7 6 0 1.1621 0.2242
7 6 1 3.3855 0.1519
7 6 2 -1.0661 0.1522
7 6 3 0.1117 0.2167
7 6 4 2.1427 0.0531
7 6 5 -0.5227 0.0900
7 6 6 0.8047 -0.3751
7 6 7 -0.9735 0.0535
7 6 8 1.1910 0.1817
7 6 9 0.2390 0.1461
7 6 10 0.3403 0.0945
7 6 11 -0.8277 -0.0338
7 7 0 1.9173 0.2242
7 7 1 2.7320 0.1873
7 7 2 -0.4987 0.2268
7 7 3 -0.1369 0.2766
7 7 4 2.0769 0.0949
7 7 5 -0.0002 0.1526
7 7 6 0.4949 -0.6368
7 7 7 -0.7731 0.0362
7 7 8 1.2508 0.1894
7 8 0 2.0791 0.1974
7 8 1 1.9825 0.2044
7 8 2 -0.0282 0.2737
7 8 3 -0.3573 0.3130
8 1 0 -3.5611 -0.0565
8 1 1 0.5833 -0.0879
8 1 2 -1.8176 -0.0929
8 1 3 -1.2936 -0.0359
8 1 4 0.7023 -0.0664
8 1 5 -0.0852 -0.0171
8 1 6 2.2784 0.2577
8 1 7 -0.3453 -0.0257
8 1 8 -0.8395 0.0451
8 1 9 0.7064 0.0349
8 1 10 1.0841 -0.0137
8 1 11 -0.5212 -0.0209
8 1 12 -1.9690 0.0915
8 1 13 -1.1641 0.0587
8 1 14 -0.3981 -0.1972
8 1 15 0.2016 -0.3057
8 1 16 0.2179 -0.1068
8 1 17 -1.9893 -0.0660
8 2 0 -2.5840 0.0187
8 2 1 1.8520 -0.0224
8 2 2 -1.8065 -0.0886
8 2 3 -0.7224 0.0144
8 2 4 0.8228 -0.0745
8 2 5 -0.6932 -0.0188
8 2 6 2.0300 0.3004
8 2 7 -0.6692 0.0202
8 2 8 -0.3509 0.0985
8 2 9 1.2323 0.0477
8 2 10 0.9307 0.0250
8 2 11 -0.4114 -0.0157
8 2 12 -1.7798 0.2579
8 2 13 -1.2665 0.0940
8 2 14 0.0099 -0.2225
8 2 15 0.2394 -0.2749
8 2 16 0.2677 -0.1701
8 3 0 -1.3302 0.1080
8 3 1 2.7001 0.0567
8 3 2 -1.7539 -0.0477
8 3 3 -0.2959 0.0886
8 3 4 1.0774 -0.0700
8 3 5 -0.9419 -0.0065
8 3 6 1.6279 0.2578
8 3 7 -0.9278 0.0589
8 3 8 0.1884 0.1538
8 3 9 1.2813 0.0704
8 3 10 0.7016 0.0641
8 3 11 -0.4100 -0.0136
8 3 12 -1.3877 0.4264
8 3 13 -1.0143 0.1024
8 3 14 0.3620 -0.2233
8 4 0 -0.0382 0.1942
8 4 1 3.0579 0.1299
8 4 2 -1.6074 0.0269
8 4 3 -0.0904 0.1697
8 4 4 1.4059 -0.0530
8 4 5 -0.8466 0.0168
8 4 6 1.1477 0.1168
8 4 7 -1.0727 0.0809
8 4 8 0.6680 0.2018
8 4 9 0.9044 0.0997
8 4 10 0.4446 0.0878
8 4 11 -0.5204 -0.0160
8 4 12 -0.8664 0.5589
8 4 13 -0.5246 0.0840
8 5 0 1.0243 0.2609
8 5 1 2.9665 0.1834
8 5 2 -1.3502 0.1216
8 5 3 -0.1039 0.2410
8 5 4 1.7221 -0.0265
8 5 5 -0.5166 0.0483
8 5 6 0.6804 -0.1071
8 5 7 -1.0773 0.0831
8 5 8 0.9827 0.2341
8 5 9 0.2677 0.1302
8 5 10 0.2078 0.0850
8 5 11 -0.6956 -0.0224
8 6 0 1.6522 0.2960
8 6 1 2.5492 0.2121
8 6 2 -1.0076 0.2147
8 6 3 -0.2665 0.2909
8 6 4 1.9389 0.0050
8 6 5 -0.1104 0.0855
8 6 6 0.3045 -0.3714
8 6 7 -0.9437 0.0700
8 6 8 1.0716 0.2449
8 7 1 1.9670 0.2195
8 7 2 -0.6372 0.2821
8 7 3 -0.4715 0.3148
9 1 0 -1.7930 -0.0133
9 1 1 0.5310 0.0420
9 1 2 -0.9677 -0.1221
9 1 3 -1.1954 0.0614
9 1 4 0.0113 -0.0779
9 1 5 -0.0801 0.0010
9 1 6 2.2112 0.3115
9 1 7 -0.5345 0.0587
9 1 8 -0.2170 0.1046
9 1 9 0.6658 0.0418
9 1 10 1.1828 -0.0311
9 1 11 -0.3415 -0.0137
9 1 12 -1.7572 0.1829
9 1 13 -0.9249 0.1267
9 1 14 0.1327 -0.3358
9 1 15 0.1671 -0.4126
9 2 0 -0.7518 0.0512
9 2 1 1.5639 0.1188
9 2 2 -1.0520 -0.0921
9 2 3 -0.7016 0.1347
9 2 4 0.0999 -0.0955
9 2 5 -0.5034 0.0071
9 2 6 1.7744 0.3584
9 2 7 -0.8342 0.0998
9 2 8 0.1489 0.1651
9 2 9 0.8853 0.0601
9 2 10 0.8981 -0.0014
9 2 11 -0.2957 -0.0080
9 2 12 -1.3788 0.3693
9 2 13 -0.8290 0.1449
9 2 14 0.5464 -0.3365
9 3 0 0.2678 0.1406
9 3 1 2.1681 0.1877
9 3 2 -1.1636 -0.0223
9 3 3 -0.3663 0.2131
9 3 4 0.4267 -0.1015
9 3 5 -0.6259 0.0163
9 3 6 1.2314 0.3071
9 3 7 -1.0367 0.1222
9 3 8 0.4961 0.2230
9 3 9 0.7007 0.0831
9 3 10 0.5530 0.0265
9 3 11 -0.3445 -0.0050
9 3 12 -0.8760 0.5413
9 4 0 1.0688 0.2317
9 4 1 2.3366 0.2328
9 4 2 -1.2204 0.0762
9 4 3 -0.2357 0.2783
9 4 4 0.8893 -0.0961
9 4 5 -0.5009 0.0257
9 4 6 0.6836 0.1543
9 4 7 -1.1078 0.1217
9 4 8 0.7394 0.2661
9 4 9 0.2293 0.1071
9 4 10 0.2169 0.0386
9 5 0 1.4985 0.3016
9 5 1 2.1531 0.2472
9 5 2 -1.1713 0.1818
9 5 3 -0.2870 0.3169
9 5 4 1.3510 -0.0817
9 5 5 -0.2428 0.0349
9 5 6 0.2282 -0.0727
9 5 7 -1.0392 0.1021
9 6 0 1.5048 0.3344
9 6 1 1.7548 0.2345
9 6 2 -1.0090 0.2681
10 1 0 0.0766 -0.0250
10 1 1 0.5126 0.1898
10 1 2 -0.1263 -0.1162
10 1 3 -0.9495 0.1702
10 1 4 -0.8100 -0.0873
10 1 5 -0.1835 0.0155
10 1 6 1.9209 0.3530
10 1 7 -0.7218 0.1621
10 1 8 0.2154 0.1518
10 1 9 0.6101 0.0361
10 1 10 1.1338 -0.0735
10 1 11 -0.0978 -0.0064
10 1 12 -1.2751 0.2546
10 1 13 -0.6542 0.1855
10 2 0 0.7974 0.0442
10 2 1 1.2735 0.2606
10 2 2 -0.4044 -0.0610
10 2 3 -0.5405 0.2540
10 2 4 -0.6191 -0.1182
10 2 5 -0.4540 0.0242
10 2 6 1.3736 0.4046
10 2 7 -0.9611 0.1863
10 2 8 0.3943 0.2155
10 2 9 0.5472 0.0561
10 2 10 0.7495 -0.0519
10 2 11 -0.1070 0.0011
10 3 0 1.3028 0.1423
10 3 1 1.6390 0.3014
10 3 2 -0.7245 0.0301
10 3 3 -0.2885 0.3210
10 3 4 -0.1425 -0.1382
10 3 5 -0.5027 0.0236
10 3 6 0.7854 0.3499
10 3 7 -1.0811 0.1811
10 3 8 0.5240 0.2697
10 3 9 0.1997 0.0759
10 4 0 1.4894 0.2394
10 4 1 1.6528 0.3029
10 4 2 -0.9732 0.1383
10 4 3 -0.2178 0.3549
10 4 4 0.4666 -0.1464
10 4 5 -0.3953 0.0127
10 4 6 0.2657 0.1963
11 1 0 1.4655 -0.0763
11 1 1 0.5230 0.3285
11 1 2 0.4797 -0.0761
11 1 3 -0.6213 0.2725
11 1 4 -1.4791 -0.0943
11 1 5 -0.3720 0.0264
11 1 6 1.4950 0.3834
11 1 7 -0.8671 0.2666
11 1 8 0.3864 0.1806
11 1 9 0.5234 0.0173
11 1 10 0.9481 -0.1292
11 2 0 1.6792 0.0102
11 2 1 1.0102 0.3762
11 2 2 -0.0070 -0.0032
11 2 3 -0.2931 0.3519
11 2 4 -1.1189 -0.1399
11 2 5 -0.5352 0.0327
11 2 6 0.9240 0.4383
11 2 7 -1.0170 0.2619
11 2 8 0.3834 0.2428
11 3 0 1.6158 0.1215
11 3 1 1.1663 0.3751
11 3 2 -0.4963 0.0956
11 3 3 -0.1107 0.3933
11 3 4 -0.4914 -0.1739
11 3 5 -0.5532 0.0179
12 1 0 2.0974 -0.1393
12 1 1 0.5436 0.4344
12 1 2 0.7365 -0.0147
12 1 3 -0.2888 0.3516
12 1 4 -1.8160 -0.0977
12 1 5 -0.5912 0.0372
12 1 6 1.0280 0.4047
12 2 0 1.8204 -0.0291
12 2 1 0.7850 0.4466
0 0 0 0.0 0.0
;
_shelx_fab_checksum              22194
_olex2_submission_special_instructions 'No special instructions were received'
_oxdiff_exptl_absorpt_empirical_details
;
Empirical correction (ABSPACK) includes:
- Absorption correction using spherical harmonics
- Frame scaling
;
_oxdiff_exptl_absorpt_empirical_full_max 1.331
_oxdiff_exptl_absorpt_empirical_full_min 0.597
loop_
_space_group_symop_operation_xyz
'x, y, z'
'-y, x-y, z'
'-x+y, -x, z'
'-x, -y, z+1/2'
'y, -x+y, z+1/2'
'x-y, x, z+1/2'
'-x, -y, -z'
'y, -x+y, -z'
'x-y, x, -z'
'x, y, -z-1/2'
'-y, x-y, -z-1/2'
'-x+y, -x, -z-1/2'
loop_
_atom_site_label
_atom_site_type_symbol
_atom_site_fract_x
_atom_site_fract_y
_atom_site_fract_z
_atom_site_U_iso_or_equiv
_atom_site_adp_type
_atom_site_occupancy
_atom_site_site_symmetry_order
_atom_site_calc_flag
_atom_site_refinement_flags_posn
_atom_site_refinement_flags_adp
_atom_site_refinement_flags_occupancy
_atom_site_disorder_assembly
_atom_site_disorder_group
Dy1 Dy 0.47625(4) 0.60370(4) 0.58379(2) 0.01278(15) Uani 1 1 d . . . . .
Dy2 Dy 0.333333 0.666667 0.750000 0.0092(2) Uani 1 6 d S T P A .
O1 O 0.333333 0.666667 0.5311(6) 0.011(2) Uani 1 3 d S T P A .
H1 H 0.333334 0.666666 0.475131 0.013 Uiso 1 3 calc RS T P . .
O1W O 0.4505(7) 0.4021(6) 0.6307(4) 0.0232(15) Uani 1 1 d . . . . .
H1WA H 0.475046 0.365039 0.596960 0.035 Uiso 1 1 d GR . . . .
H1WB H 0.368639 0.345270 0.637020 0.035 Uiso 1 1 d GR . . . .
O2 O 0.2914(6) 0.5170(6) 0.6522(3) 0.0113(11) Uani 1 1 d . . . . .
H2 H 0.265244 0.429518 0.671328 0.014 Uiso 1 1 calc R . . A .
O3 O 0.6259(6) 0.5505(6) 0.5176(4) 0.0167(13) Uani 0.5 1 d . . . A 1
O4 O 0.8288(6) 0.6092(7) 0.4902(4) 0.0242(15) Uani 0.5 1 d . . . A 1
O5 O 0.5039(10) 0.6093(11) 0.7303(6) 0.012(3) Uani 0.5 1 d . U . A -1
O6 O 0.6303(12) 0.6435(12) 0.8230(5) 0.023(3) Uani 0.5 1 d D . . A -1
N1 N 0.7076(15) 0.7192(15) 0.6374(8) 0.016(3) Uani 0.5 1 d . . . A .
H1A H 0.724624 0.795232 0.649078 0.019 Uiso 0.5 1 d R . . B 1
C1 C 0.7455(9) 0.6212(9) 0.5254(5) 0.0181(18) Uani 0.5 1 d . . . A 1
C2 C 0.7993(16) 0.7341(16) 0.5810(9) 0.011(3) Uani 0.5 1 d . U . A 1
H2A H 0.876180 0.741556 0.605651 0.013 Uiso 0.5 1 calc R . . A 1
H2B H 0.825790 0.814322 0.553017 0.013 Uiso 0.5 1 calc R . . A 1
C3 C 0.7190(17) 0.6616(18) 0.7094(11) 0.018(4) Uani 0.5 1 d . U . A -1
H3A H 0.719858 0.581265 0.699935 0.022 Uiso 0.5 1 calc R . . A -1
H3B H 0.798054 0.721787 0.736481 0.022 Uiso 0.5 1 calc R . . A -1
C4 C 0.6116(13) 0.6380(12) 0.750000 0.023(3) Uani 1 2 d DS TU P . .
Cl1 Cl 0.333333 0.666667 0.3466(7) 0.045(3) Uani 0.5 3 d S T P . .
Cl2 Cl 0.7302(6) 0.9544(6) 0.750000 0.0435(15) Uani 0.759(12) 2 d S TU P C 1
Cl3 Cl 0.209(3) 0.259(3) 0.6874(16) 0.0435(15) Uani 0.121(6) 1 d . U . C 2
O3A O 0.6259(6) 0.5505(6) 0.5176(4) 0.0167(13) Uani 0.5 1 d . . . A 2
O4A O 0.8288(6) 0.6092(7) 0.4902(4) 0.0242(15) Uani 0.5 1 d . . . A 2
C1A C 0.7455(9) 0.6212(9) 0.5254(5) 0.0181(18) Uani 0.5 1 d . . . A 2
H1AA H 0.774615 0.688712 0.560855 0.022 Uiso 0.5 1 calc R . . A 2
loop_
_atom_site_aniso_label
_atom_site_aniso_U_11
_atom_site_aniso_U_22
_atom_site_aniso_U_33
_atom_site_aniso_U_23
_atom_site_aniso_U_13
_atom_site_aniso_U_12
Dy1 0.0122(2) 0.0119(2) 0.0165(2) 0.00303(15) 0.00280(15) 0.00784(16)
Dy2 0.0089(3) 0.0089(3) 0.0098(4) 0.000 0.000 0.00447(14)
O1 0.009(3) 0.009(3) 0.014(5) 0.000 0.000 0.0047(14)
O1W 0.036(4) 0.019(3) 0.022(3) 0.002(3) 0.003(3) 0.020(3)
O2 0.016(3) 0.012(3) 0.008(3) -0.001(2) -0.001(2) 0.008(2)
O3 0.016(3) 0.016(3) 0.020(3) 0.001(3) 0.002(3) 0.009(3)
O4 0.012(3) 0.024(3) 0.035(4) -0.011(3) -0.002(3) 0.008(3)
O5 0.008(4) 0.020(5) 0.010(7) -0.001(4) -0.002(3) 0.007(4)
O6 0.018(7) 0.015(6) 0.034(8) 0.007(6) 0.000(6) 0.007(5)
N1 0.022(8) 0.021(8) 0.010(7) -0.004(6) 0.004(6) 0.015(7)
C1 0.020(4) 0.021(5) 0.017(5) -0.005(4) 0.000(4) 0.013(4)
C2 0.011(3) 0.010(3) 0.010(3) -0.0001(10) 0.0000(10) 0.0051(18)
C3 0.013(7) 0.023(7) 0.024(8) -0.001(6) -0.007(6) 0.013(6)
C4 0.025(6) 0.010(5) 0.038(7) 0.000 0.000 0.012(5)
Cl1 0.033(3) 0.033(3) 0.069(8) 0.000 0.000 0.0166(16)
Cl2 0.043(2) 0.041(2) 0.045(2) 0.000 0.000 0.0200(16)
Cl3 0.043(2) 0.041(2) 0.045(2) 0.000 0.000 0.0200(16)
O3A 0.016(3) 0.016(3) 0.020(3) 0.001(3) 0.002(3) 0.009(3)
O4A 0.012(3) 0.024(3) 0.035(4) -0.011(3) -0.002(3) 0.008(3)
C1A 0.020(4) 0.021(5) 0.017(5) -0.005(4) 0.000(4) 0.013(4)
loop_
_atom_type_symbol
_atom_type_description
_atom_type_scat_dispersion_real
_atom_type_scat_dispersion_imag
_atom_type_scat_source
C C 0.0033 0.0016 'International Tables Vol C Tables 4.2.6.8 and 6.1.1.4'
H H 0.0000 0.0000 'International Tables Vol C Tables 4.2.6.8 and 6.1.1.4'
Cl Cl 0.1484 0.1585 'International Tables Vol C Tables 4.2.6.8 and 6.1.1.4'
Dy Dy -0.1892 4.4098 'International Tables Vol C Tables 4.2.6.8 and 6.1.1.4'
N N 0.0061 0.0033 'International Tables Vol C Tables 4.2.6.8 and 6.1.1.4'
O O 0.0106 0.0060 'International Tables Vol C Tables 4.2.6.8 and 6.1.1.4'
loop_
_geom_angle_atom_site_label_1
_geom_angle_atom_site_label_2
_geom_angle_atom_site_label_3
_geom_angle
_geom_angle_site_symmetry_1
_geom_angle_site_symmetry_3
_geom_angle_publ_flag
Dy2 Dy1 Dy1 58.895(5) . 2_665 ?
O1 Dy1 Dy1 37.19(13) . 2_665 ?
O1 Dy1 Dy2 76.5(2) . . ?
O1 Dy1 O1W 134.20(18) . . ?
O1 Dy1 O3 77.4(2) . 7_666 ?
O1 Dy1 O3 128.6(3) . . ?
O1 Dy1 O5 118.9(3) . . ?
O1 Dy1 N1 136.4(3) . . ?
O1 Dy1 O3A 128.6(3) . . ?
O1W Dy1 Dy1 152.39(17) . 2_665 ?
O1W Dy1 Dy2 95.13(16) . . ?
O1W Dy1 O3 69.8(2) . . ?
O1W Dy1 O3 74.4(2) . 7_666 ?
O1W Dy1 O5 68.7(3) . . ?
O1W Dy1 N1 88.6(4) . . ?
O1W Dy1 O3A 69.8(2) . . ?
O2 Dy1 Dy1 34.09(14) 2_665 2_665 ?
O2 Dy1 Dy1 77.61(14) . 2_665 ?
O2 Dy1 Dy2 38.88(14) 2_665 . ?
O2 Dy1 Dy2 38.44(15) . . ?
O2 Dy1 O1 69.1(2) 2_665 . ?
O2 Dy1 O1 70.3(2) . . ?
O2 Dy1 O1W 75.6(2) . . ?
O2 Dy1 O1W 128.6(2) 2_665 . ?
O2 Dy1 O2 73.9(3) . 2_665 ?
O2 Dy1 O3 143.2(2) . . ?
O2 Dy1 O3 92.4(2) . 7_666 ?
O2 Dy1 O3 139.1(2) 2_665 . ?
O2 Dy1 O3 146.3(2) 2_665 7_666 ?
O2 Dy1 O4 142.0(2) . 8_566 ?
O2 Dy1 O5 64.1(3) . . ?
O2 Dy1 O5 61.0(3) 2_665 . ?
O2 Dy1 N1 126.1(3) . . ?
O2 Dy1 N1 77.4(3) 2_665 . ?
O2 Dy1 O3A 143.2(2) . . ?
O2 Dy1 O3A 139.1(2) 2_665 . ?
O3 Dy1 Dy1 113.69(14) 7_666 2_665 ?
O3 Dy1 Dy1 137.82(14) . 2_665 ?
O3 Dy1 Dy2 129.93(14) 7_666 . ?
O3 Dy1 Dy2 154.80(15) . . ?
O3 Dy1 O3 66.9(2) 7_666 . ?
O3 Dy1 O5 112.2(3) . . ?
O3 Dy1 O5 139.9(3) 7_666 . ?
O3 Dy1 N1 65.9(3) . . ?
O3 Dy1 N1 132.7(3) 7_666 . ?
O4 Dy1 Dy1 64.79(16) 8_566 2_665 ?
O4 Dy1 Dy2 116.40(17) 8_566 . ?
O4 Dy1 O1 76.3(2) 8_566 . ?
O4 Dy1 O1W 142.3(2) 8_566 . ?
O4 Dy1 O2 77.7(2) 8_566 2_665 ?
O4 Dy1 O3 73.2(2) 8_566 . ?
O4 Dy1 O3 97.6(2) 8_566 7_666 ?
O4 Dy1 O5 121.2(3) 8_566 . ?
O4 Dy1 N1 69.8(4) 8_566 . ?
O5 Dy1 Dy1 93.5(2) . 2_665 ?
O5 Dy1 Dy2 42.6(2) . . ?
N1 Dy1 Dy1 101.8(3) . 2_665 ?
N1 Dy1 Dy2 94.6(3) . . ?
N1 Dy1 O5 62.1(4) . . ?
O3A Dy1 Dy1 137.82(14) . 2_665 ?
O3A Dy1 Dy2 154.80(15) . . ?
O3A Dy1 N1 65.9(3) . . ?
Dy1 Dy2 Dy1 106.755(13) 3_565 12_567 ?
Dy1 Dy2 Dy1 62.212(10) 2_665 3_565 ?
Dy1 Dy2 Dy1 62.212(10) 2_665 . ?
Dy1 Dy2 Dy1 145.292(5) 11_667 3_565 ?
Dy1 Dy2 Dy1 62.212(10) . 3_565 ?
Dy1 Dy2 Dy1 62.212(10) 11_667 12_567 ?
Dy1 Dy2 Dy1 106.755(12) 11_667 2_665 ?
Dy1 Dy2 Dy1 145.292(5) 2_665 12_567 ?
Dy1 Dy2 Dy1 145.292(5) . 12_567 ?
Dy1 Dy2 Dy1 145.292(5) 11_667 . ?
O2 Dy2 Dy1 79.35(14) . 2_665 ?
O2 Dy2 Dy1 38.55(14) 3_565 2_665 ?
O2 Dy2 Dy1 38.55(14) 2_665 . ?
O2 Dy2 Dy1 113.39(14) 10_557 3_565 ?
O2 Dy2 Dy1 113.38(14) 11_667 . ?
O2 Dy2 Dy1 113.38(14) . 12_567 ?
O2 Dy2 Dy1 36.72(14) . . ?
O2 Dy2 Dy1 113.39(14) 3_565 11_667 ?
O2 Dy2 Dy1 173.80(14) 12_567 . ?
O2 Dy2 Dy1 112.17(14) 10_557 . ?
O2 Dy2 Dy1 38.55(14) 12_567 11_667 ?
O2 Dy2 Dy1 112.17(14) 12_567 3_565 ?
O2 Dy2 Dy1 36.72(14) 2_665 2_665 ?
O2 Dy2 Dy1 38.55(14) . 3_565 ?
O2 Dy2 Dy1 79.35(14) 3_565 . ?
O2 Dy2 Dy1 173.80(14) 11_667 3_565 ?
O2 Dy2 Dy1 36.72(14) 12_567 12_567 ?
O2 Dy2 Dy1 36.72(14) 11_667 11_667 ?
O2 Dy2 Dy1 173.80(14) 2_665 12_567 ?
O2 Dy2 Dy1 173.80(14) 10_557 2_665 ?
O2 Dy2 Dy1 38.55(14) 10_557 12_567 ?
O2 Dy2 Dy1 112.17(14) 2_665 11_667 ?
O2 Dy2 Dy1 112.17(14) 11_667 2_665 ?
O2 Dy2 Dy1 173.80(14) . 11_667 ?
O2 Dy2 Dy1 79.35(14) 2_665 3_565 ?
O2 Dy2 Dy1 113.39(14) 12_567 2_665 ?
O2 Dy2 Dy1 112.17(14) 3_565 12_567 ?
O2 Dy2 Dy1 36.72(14) 3_565 3_565 ?
O2 Dy2 Dy1 79.35(14) 11_667 12_567 ?
O2 Dy2 Dy1 79.35(14) 10_557 11_667 ?
O2 Dy2 O2 94.5(3) 3_565 12_567 ?
O2 Dy2 O2 72.0(2) 11_667 10_557 ?
O2 Dy2 O2 140.33(11) 11_667 . ?
O2 Dy2 O2 140.33(11) 3_565 10_557 ?
O2 Dy2 O2 72.0(2) 12_567 11_667 ?
O2 Dy2 O2 72.0(2) 3_565 . ?
O2 Dy2 O2 140.33(11) 3_565 11_667 ?
O2 Dy2 O2 72.0(2) 2_665 . ?
O2 Dy2 O2 94.5(3) . 10_557 ?
O2 Dy2 O2 94.5(3) 11_667 2_665 ?
O2 Dy2 O2 140.33(11) 12_567 . ?
O2 Dy2 O2 140.33(11) 2_665 10_557 ?
O2 Dy2 O2 140.33(11) 12_567 2_665 ?
O2 Dy2 O2 72.0(2) 3_565 2_665 ?
O2 Dy2 O2 72.0(2) 12_567 10_557 ?
O2 Dy2 O5 65.1(3) . . ?
O2 Dy2 O5 77.6(3) 10_557 . ?
O2 Dy2 O5 140.8(3) 12_567 . ?
O2 Dy2 O5 75.5(3) 11_667 . ?
O2 Dy2 O5 62.8(3) 2_665 . ?
O2 Dy2 O5 124.6(3) 3_565 . ?
O5 Dy2 Dy1 98.7(2) . 2_665 ?
O5 Dy2 Dy1 45.4(2) . . ?
O5 Dy2 Dy1 102.2(2) . 3_565 ?
O5 Dy2 Dy1 115.9(2) . 12_567 ?
O5 Dy2 Dy1 112.2(2) . 11_667 ?
Dy1 O1 Dy1 105.6(3) 2_665 3_565 ?
Dy1 O1 Dy1 105.6(3) 2_665 . ?
Dy1 O1 Dy1 105.6(3) 3_565 . ?
Dy1 O1 H1 113.1 . . ?
Dy1 O1 H1 113.1 2_665 . ?
Dy1 O1 H1 113.1 3_565 . ?
Dy1 O1W H1WA 111.2 . . ?
Dy1 O1W H1WB 110.7 . . ?
H1WA O1W H1WB 102.8 . . ?
Dy1 O2 Dy1 110.6(2) . 3_565 ?
Dy1 O2 Dy2 104.8(2) . . ?
Dy1 O2 Dy2 102.6(2) 3_565 . ?
Dy1 O2 H2 112.7 . . ?
Dy1 O2 H2 112.7 3_565 . ?
Dy2 O2 H2 112.7 . . ?
Dy1 O3 Dy1 113.1(2) 7_666 . ?
C1 O3 Dy1 120.2(5) . . ?
C1 O3 Dy1 124.5(6) . 7_666 ?
C1 O4 Dy1 146.4(6) . 9_656 ?
Dy2 O5 Dy1 92.0(3) . . ?
C4 O5 Dy1 113.4(6) . . ?
C4 O5 Dy2 142.1(9) . . ?
Dy1 N1 H1A 106.3 . . ?
C2 N1 Dy1 111.2(10) . . ?
C2 N1 H1A 106.1 . . ?
C2 N1 C3 114.5(13) . . ?
C3 N1 Dy1 112.9(11) . . ?
C3 N1 H1A 105.0 . . ?
O3 C1 C2 120.1(9) . . ?
O4 C1 O3 125.3(8) . . ?
O4 C1 C2 114.6(9) . . ?
N1 C2 C1 112.5(13) . . ?
N1 C2 H2A 109.1 . . ?
N1 C2 H2B 109.1 . . ?
C1 C2 H2A 109.1 . . ?
C1 C2 H2B 109.1 . . ?
H2A C2 H2B 107.8 . . ?
N1 C3 H3A 110.8 . . ?
N1 C3 H3B 110.8 . . ?
H3A C3 H3B 108.9 . . ?
C4 C3 N1 104.5(12) . . ?
C4 C3 H3A 110.8 . . ?
C4 C3 H3B 110.8 . . ?
O5 C4 O6 115.5(11) . . ?
O5 C4 C3 131.6(9) . . ?
O6 C4 C3 112.8(13) . . ?
Dy1 O3A Dy1 113.1(2) 7_666 . ?
C1A O3A Dy1 120.2(5) . . ?
O3A C1A H1AA 117.4 . . ?
O4A C1A O3A 125.3(8) . . ?
O4A C1A H1AA 117.4 . . ?
loop_
_geom_bond_atom_site_label_1
_geom_bond_atom_site_label_2
_geom_bond_distance
_geom_bond_site_symmetry_2
_geom_bond_publ_flag
Dy1 Dy1 3.8220(7) 2_665 ?
Dy1 Dy2 3.6990(4) . ?
Dy1 O1 2.399(4) . ?
Dy1 O1W 2.443(6) . ?
Dy1 O2 2.362(6) 2_665 ?
Dy1 O2 2.288(6) . ?
Dy1 O3 2.444(6) 7_666 ?
Dy1 O3 2.497(6) . ?
Dy1 O4 2.335(7) 8_566 ?
Dy1 O5 2.635(10) . ?
Dy1 N1 2.602(15) . ?
Dy1 O3A 2.497(6) . ?
Dy2 O2 2.379(6) 10_557 ?
Dy2 O2 2.379(6) . ?
Dy2 O2 2.379(6) 2_665 ?
Dy2 O2 2.379(6) 3_565 ?
Dy2 O2 2.379(6) 11_667 ?
Dy2 O2 2.379(6) 12_567 ?
Dy2 O5 2.505(11) . ?
O1 H1 1.0000 . ?
O1W H1WA 0.8856 . ?
O1W H1WB 0.8845 . ?
O2 H2 1.0000 . ?
O3 C1 1.266(11) . ?
O4 C1 1.254(11) . ?
O5 C4 1.219(17) . ?
O6 C4 1.319(8) . ?
N1 H1A 0.8600 . ?
N1 C2 1.44(2) . ?
N1 C3 1.50(2) . ?
C1 C2 1.543(18) . ?
C2 H2A 0.9900 . ?
C2 H2B 0.9900 . ?
C3 H3A 0.9900 . ?
C3 H3B 0.9900 . ?
C3 C4 1.38(2) . ?
Cl3 Cl3 2.24(6) 10_557 ?
O3A C1A 1.266(11) . ?
O4A C1A 1.254(11) . ?
C1A H1AA 0.9500 . ?
