#------------------------------------------------------------------------------
#$Date: 2022-06-28 01:33:40 +0300 (Tue, 28 Jun 2022) $
#$Revision: 276298 $
#$URL: file:///home/coder/svn-repositories/cod/cif/7/24/51/7245105.cif $
#------------------------------------------------------------------------------
#
# This file is available in the Crystallography Open Database (COD),
# http://www.crystallography.net/
#
# All data on this site have been placed in the public domain by the
# contributors.
#
data_7245105
loop_
_publ_author_name
'Gu, Wen-Jun'
'Gu, Jinzhong'
'Kirillova, Marina'
'Kirillov, Alexander'
_publ_section_title
;
 Zn(II) metal-organic architectures from ether-bridged tetracarboxylate
 linkers: assembly, structural variety and catalytic features
;
_journal_name_full               CrystEngComm
_journal_paper_doi               10.1039/D2CE00722C
_journal_year                    2022
_chemical_formula_sum            'C26 H16 N2 O9 Zn2'
_chemical_formula_weight         631.15
_space_group_crystal_system      monoclinic
_space_group_IT_number           14
_space_group_name_Hall           '-P 2ybc'
_space_group_name_H-M_alt        'P 1 21/c 1'
_atom_sites_solution_hydrogens   geom
_audit_creation_method           SHELXL-2014/7
_audit_update_record
;
2021-12-01 deposited with the CCDC.	2022-06-27 downloaded from the CCDC.
;
_cell_angle_alpha                90
_cell_angle_beta                 92.702(7)
_cell_angle_gamma                90
_cell_formula_units_Z            4
_cell_length_a                   13.9820(8)
_cell_length_b                   8.5001(5)
_cell_length_c                   20.1799(18)
_cell_measurement_reflns_used    8190
_cell_measurement_temperature    293(2)
_cell_measurement_theta_max      65.000
_cell_measurement_theta_min      4.387
_cell_volume                     2395.7(3)
_computing_cell_refinement       'Bruker SAINT'
_computing_data_collection       'Bruker APEX2'
_computing_data_reduction        'Bruker SAINT'
_computing_molecular_graphics    'Bruker SHELXTL'
_computing_publication_material  'Bruker SHELXTL'
_computing_structure_refinement  'SHELXL-2014/7 (Sheldrick, 2014)'
_computing_structure_solution    'SHELXL-2014/7 (Sheldrick, 2014)'
_diffrn_ambient_temperature      293(2)
_diffrn_measured_fraction_theta_full 0.970
_diffrn_measured_fraction_theta_max 0.970
_diffrn_measurement_device_type  'Bruker APE-II CCD'
_diffrn_measurement_method       '\f and \w scans'
_diffrn_radiation_type           CuK\a
_diffrn_radiation_wavelength     1.54178
_diffrn_reflns_av_R_equivalents  0.0634
_diffrn_reflns_av_unetI/netI     0.0782
_diffrn_reflns_Laue_measured_fraction_full 0.970
_diffrn_reflns_Laue_measured_fraction_max 0.970
_diffrn_reflns_limit_h_max       12
_diffrn_reflns_limit_h_min       -16
_diffrn_reflns_limit_k_max       9
_diffrn_reflns_limit_k_min       -8
_diffrn_reflns_limit_l_max       23
_diffrn_reflns_limit_l_min       -23
_diffrn_reflns_number            8190
_diffrn_reflns_point_group_measured_fraction_full 0.970
_diffrn_reflns_point_group_measured_fraction_max 0.970
_diffrn_reflns_theta_full        65.000
_diffrn_reflns_theta_max         65.000
_diffrn_reflns_theta_min         4.387
_diffrn_source                   'fine-focus sealed tube'
_exptl_absorpt_coefficient_mu    3.007
_exptl_absorpt_correction_T_max  0.585
_exptl_absorpt_correction_T_min  0.545
_exptl_absorpt_correction_type   multi-scan
_exptl_absorpt_process_details   SADABS
_exptl_crystal_colour            colourless
_exptl_crystal_density_diffrn    1.750
_exptl_crystal_description       block
_exptl_crystal_F_000             1272
_exptl_crystal_size_max          0.230
_exptl_crystal_size_mid          0.210
_exptl_crystal_size_min          0.200
_exptl_transmission_factor_max   0.548
_exptl_transmission_factor_min   0.526
_refine_diff_density_max         0.712
_refine_diff_density_min         -0.698
_refine_diff_density_rms         0.102
_refine_ls_extinction_method     none
_refine_ls_goodness_of_fit_ref   1.064
_refine_ls_hydrogen_treatment    constr
_refine_ls_matrix_type           full
_refine_ls_number_parameters     352
_refine_ls_number_reflns         3945
_refine_ls_number_restraints     0
_refine_ls_restrained_S_all      1.064
_refine_ls_R_factor_all          0.0781
_refine_ls_R_factor_gt           0.0546
_refine_ls_shift/su_max          0.000
_refine_ls_shift/su_mean         0.000
_refine_ls_structure_factor_coef Fsqd
_refine_ls_weighting_details
'w=1/[\s^2^(Fo^2^)+(0.0599P)^2^] where P=(Fo^2^+2Fc^2^)/3'
_refine_ls_weighting_scheme      calc
_refine_ls_wR_factor_gt          0.1272
_refine_ls_wR_factor_ref         0.1432
_reflns_Friedel_coverage         0.000
_reflns_number_gt                2917
_reflns_number_total             3945
_reflns_threshold_expression     'I > 2\s(I)'
_cod_data_source_file            d2ce00722c1.cif
_cod_data_source_block           471-24Zn
_cod_original_sg_symbol_H-M      'P 21/c'
_cod_database_code               7245105
_shelx_shelxl_version_number     2014/7
_shelx_space_group_comment
;
The symmetry employed for this shelxl refinement is uniquely defined
by the following loop, which should always be used as a source of
symmetry information in preference to the above space-group names.
They are only intended as comments.
;
_shelx_estimated_absorpt_t_min   0.545
_shelx_estimated_absorpt_t_max   0.585
_shelx_res_file
;

    471-24Zn.res created by SHELXL-2014/7

TITL 471-24Zn in P2(1)/c
CELL 1.54178  13.9820   8.5001  20.1799  90.000  92.702  90.000
ZERR   4.00   0.0008   0.0005   0.0018   0.000   0.007   0.000
LATT 1
SYMM -X, 0.5+Y, 0.5-Z
SFAC C  H  N  O  Zn
UNIT 104  64  8  36  8
OMIT -3 130
L.S. 22
ACTA
BOND $H
FMAP 2
PLAN 2
HTAB C26 O3_$1
HTAB C22 O4
HTAB C21 O2
SIZE 0.23 0.21 0.20
HTAB
CONF
HTAB C21 O2
HTAB C22 O4
EQIV $1 -x, -y+1, -z+1
HTAB C26 O3_$1
FREE Zn1  C1
WGHT    0.059900
FVAR       4.13415
MOLE 1
ZN1   5    0.441211    0.062567    0.222501    11.00000    0.00911    0.02760 =
         0.04909    0.00126    0.00221    0.00179
ZN2   5   -0.088347    0.411566    0.511021    11.00000    0.01053    0.02793 =
         0.04224    0.00306    0.00636    0.00012
N1    3    0.480208   -0.063585    0.140090    11.00000    0.02790    0.02444 =
         0.06042   -0.00196    0.00587    0.00468
N2    3   -0.180593    0.251375    0.547607    11.00000    0.02105    0.03213 =
         0.04065    0.00242    0.00800   -0.00200
O1    4    0.338820    0.176707    0.289049    11.00000    0.01345    0.04547 =
         0.05680    0.00091    0.00902   -0.00392
O2    4    0.302772   -0.014573    0.221016    11.00000    0.01573    0.04071 =
         0.06571   -0.00597    0.01260    0.00494
O3    4    0.090080    0.427597    0.414818    11.00000    0.02412    0.03355 =
         0.04553   -0.00237    0.00991   -0.00263
O4    4   -0.045184    0.294815    0.430506    11.00000    0.01875    0.04090 =
         0.04756   -0.00375    0.01228    0.00003
O5    4   -0.113019    0.161790    0.311084    11.00000    0.00987    0.02689 =
         0.07659    0.00199    0.00736   -0.00334
O6    4   -0.039987   -0.327845    0.440919    11.00000    0.01862    0.05767 =
         0.05352    0.01305   -0.00529    0.01012
O7    4   -0.180210   -0.445697    0.454903    11.00000    0.02816    0.03652 =
         0.05663    0.01544   -0.00525    0.00419
O8    4   -0.451338    0.029390    0.285540    11.00000    0.01406    0.03019 =
         0.06790    0.00568   -0.01485    0.00406
O9    4   -0.467952   -0.221228    0.315566    11.00000    0.00915    0.02414 =
         0.06290   -0.00665    0.00915   -0.00380
C1    1    0.278473    0.087868    0.261567    11.00000    0.01363    0.03898 =
         0.04636    0.00492    0.01045    0.00315
C2    1    0.175158    0.104649    0.275997    11.00000    0.01106    0.03318 =
         0.05100   -0.00534    0.00920    0.00261
C3    1    0.148205    0.202249    0.326620    11.00000    0.01251    0.02575 =
         0.04245   -0.00003    0.00129   -0.00330
AFIX  43
H3    2    0.195179    0.258801    0.350504    11.00000   -1.20000
AFIX   0
C4    1    0.053072    0.218829    0.343101    11.00000    0.02021    0.01925 =
         0.04657   -0.00065    0.00884   -0.00097
C5    1    0.030376    0.322939    0.400439    11.00000    0.01419    0.03117 =
         0.04095    0.00272    0.00328    0.00700
C6    1   -0.015313    0.138377    0.302660    11.00000    0.00862    0.02521 =
         0.06439   -0.00096    0.00409   -0.00325
C7    1    0.008863    0.048440    0.248936    11.00000    0.02374    0.04052 =
         0.07628   -0.02738    0.00466   -0.01107
AFIX  43
H7    2   -0.038398    0.002697    0.221264    11.00000   -1.20000
AFIX   0
C8    1    0.104956    0.027642    0.237040    11.00000    0.02292    0.04316 =
         0.06624   -0.01888    0.01274   -0.00289
AFIX  43
H8    2    0.122561   -0.038106    0.202852    11.00000   -1.20000
AFIX   0
C9    1   -0.163047    0.032160    0.332024    11.00000    0.01232    0.02684 =
         0.05627    0.00459    0.00479   -0.00547
C10   1   -0.121324   -0.087469    0.369071    11.00000    0.01087    0.03155 =
         0.06507    0.00350    0.00358    0.00104
AFIX  43
H10   2   -0.055842   -0.086127    0.379557    11.00000   -1.20000
AFIX   0
C11   1   -0.177632   -0.210676    0.390817    11.00000    0.01675    0.02446 =
         0.05037    0.00556   -0.00121    0.00040
C12   1   -0.129676   -0.338781    0.432412    11.00000    0.02528    0.03226 =
         0.04895    0.00144    0.00062    0.00826
C13   1   -0.260509    0.031920    0.315866    11.00000    0.01104    0.02552 =
         0.05849    0.00305   -0.00072    0.00271
AFIX  43
H13   2   -0.288566    0.114930    0.292054    11.00000   -1.20000
AFIX   0
C14   1   -0.315628   -0.093692    0.335667    11.00000    0.01062    0.02741 =
         0.04548   -0.00178    0.00125   -0.00167
C15   1   -0.419407   -0.097501    0.310742    11.00000    0.00804    0.03506 =
         0.03512   -0.00208    0.00493    0.00153
C16   1   -0.275336   -0.213505    0.373497    11.00000    0.01277    0.02038 =
         0.04944    0.00156    0.00264   -0.00133
AFIX  43
H16   2   -0.313169   -0.296014    0.387441    11.00000   -1.20000
AFIX   0
C17   1    0.569742   -0.063692    0.120132    11.00000    0.02826    0.04302 =
         0.07629    0.00009    0.00985    0.00052
AFIX  43
H17   2    0.616842   -0.014492    0.146805    11.00000   -1.20000
AFIX   0
C18   1    0.595776   -0.132124    0.062711    11.00000    0.05301    0.05885 =
         0.07746    0.00214    0.02811    0.02201
AFIX  43
H18   2    0.659209   -0.128435    0.050851    11.00000   -1.20000
AFIX   0
C19   1    0.529229   -0.205432    0.022980    11.00000    0.08964    0.07184 =
         0.05871   -0.00732    0.02075    0.02651
AFIX  43
H19   2    0.545692   -0.252594   -0.016475    11.00000   -1.20000
AFIX   0
C20   1    0.436581   -0.208140    0.042653    11.00000    0.06897    0.11241 =
         0.07852   -0.04077   -0.00136    0.00887
AFIX  43
H20   2    0.389032   -0.258115    0.016651    11.00000   -1.20000
AFIX   0
C21   1    0.414383   -0.135684    0.101683    11.00000    0.04148    0.06346 =
         0.07177   -0.02307    0.00266    0.00013
AFIX  43
H21   2    0.351440   -0.137838    0.114639    11.00000   -1.20000
AFIX   0
C22   1   -0.196210    0.114341    0.517589    11.00000    0.04670    0.04403 =
         0.05315   -0.00973    0.01199   -0.01655
AFIX  43
H22   2   -0.159903    0.089498    0.481587    11.00000   -1.20000
AFIX   0
C23   1   -0.263173    0.006800    0.536748    11.00000    0.07146    0.04790 =
         0.06928   -0.00412    0.01115   -0.03299
AFIX  43
H23   2   -0.270198   -0.090093    0.515674    11.00000   -1.20000
AFIX   0
C24   1   -0.319161    0.047760    0.588056    11.00000    0.03803    0.04819 =
         0.06358    0.01946    0.00477   -0.01600
AFIX  43
H24   2   -0.367891   -0.018797    0.600622    11.00000   -1.20000
AFIX   0
C25   1   -0.303129    0.185097    0.620169    11.00000    0.04150    0.05133 =
         0.05798    0.00475    0.02289   -0.00726
AFIX  43
H25   2   -0.339435    0.212600    0.655838    11.00000   -1.20000
AFIX   0
C26   1   -0.232988    0.283447    0.599761    11.00000    0.03581    0.03668 =
         0.06120    0.00413    0.02068   -0.00845
AFIX  43
H26   2   -0.221196    0.376388    0.623052    11.00000   -1.20000
AFIX   0
HKLF 4

REM  471-24Zn in P2(1)/c
REM R1 =  0.0546 for    2917 Fo > 4sig(Fo)  and  0.0781 for all    3945 data
REM    352 parameters refined using      0 restraints

END

WGHT      0.0625      0.0000

REM Instructions for potential hydrogen bonds
HTAB C21 O2
HTAB C22 O4
HTAB C26 O3_$1

REM Highest difference peak  0.712,  deepest hole -0.698,  1-sigma level  0.102
Q1    1  -0.0207 -0.1658  0.3178  11.00000  0.05    0.71
Q2    1  -0.1579 -0.0214  0.2763  11.00000  0.05    0.47
;
_shelx_res_checksum              609
_shelx_hkl_file
;
   0   0  -2 35674.8 1212.18   2
   0   0  -3-130.746 181.960   2
   0   0   4 316770. 5305.04   2
   0   0  -4 307238. 5265.33   2
   0   0   5-254.025 381.780   2
   0   0  -5 152.544 334.581   2
   0   0  -6 5596.10 790.454   2
   0   0  -7 75.5502 421.237   8
   0   0  -8 2020.43 994.019   8
   0   0  -9-94.4402 614.452   8
   0   0 -10 87645.1 5809.10   8
   0   0 -11-846.143 1187.99   8
   0   0 -12 3455.54 1538.21   8
   0   0 -13 2834.60 1783.87   8
   0   0 -14 31378.3 4502.11   8
   0   0 -15 94.5614 1296.22   8
   0   0 -16 2072.23 1566.33  12
   0   0 -16-3997.68 1977.37   8
   0   0 -17 1878.11 1968.30   8
   0   0 -17 1675.27 1070.41  12
   0   0 -18 34227.0 5203.80  12
   0   0 -19 1113.94 1186.17  12
   0   0 -20 7544.27 2433.72  12
   0   0 -21-226.987 1082.36  12
   0   0 -22 8556.48 2487.46  12
   0   0 -23 181.389 849.597  12
   0   0 -23 298.176 791.548  11
   0   0 -24 993.830 705.251  12
   0   0 -24 2352.52 1234.05  11
   0   1   0 962.026 165.581   3
   0   1   1 238006. 3134.67   3
   0   1  -1 244916. 3415.21   4
   0   1   2 2685.69 266.270   3
   0  -1  -2 2467.56 238.018   3
   0   1  -2 2839.39 378.198   4
   0   1   2 2409.62 251.196   1
   0   1   3 369632. 4379.53   1
   0  -1  -3 376024. 4025.28   3
   0   1  -3 380327. 5577.38   4
   0   1   4 42127.7 1297.37   1
   0  -1  -4 43610.0 978.338   3
   0  -1  -5 2465.13 684.561   8
   0   1  -5 4801.34 917.766   8
   0  -1   5 5444.85 775.952   2
   0   1   5 2741.42 385.783   1
   0  -1  -5 2938.73 235.935   3
   0   1  -6 6197.32 1186.99   8
   0  -1  -6 4108.02 968.459   8
   0   1   6 4508.08 525.163   1
   0  -1  -6 4584.84 743.751   2
   0  -1  -7 22110.3 2330.36   8
   0   1   7 20601.1 1171.78   1
   0   1  -7 19975.7 2248.01   8
   0  -1  -7 20460.6 1654.40   2
   0   1  -8 8655.44 1668.65   8
   0  -1  -8 9342.76 1209.10   2
   0   1  -8 8481.04 628.735   3
   0  -1  -8 9551.11 1733.61   8
   0   1   8 8393.36 838.437   1
   0  -1  -9 203119. 6097.25   2
   0   1  -9 194726. 8209.47   8
   0   1   9 201993. 4508.67   1
   0  -1  -9 193021. 7972.28   8
   0   1 -10 63793.4 5042.68   8
   0  -1 -10 64856.7 4929.25   8
   0  -1 -10 62552.8 3567.86   2
   0   1 -11 48327.8 4708.48   8
   0  -1 -11 45424.5 4422.09   8
   0   1 -12 6547.01 1849.05   8
   0  -1 -12 1065.12 805.483   8
   0  -1 -13 119345. 8293.22   8
   0   1 -13 131405. 8793.25   8
   0   1 -14-885.295 904.421   8
   0  -1 -14 663.405 1038.10   8
   0   1 -15-679.891 1263.20   8
   0  -1 -15-628.785 1176.73   8
   0  -1 -16 1344.61 1509.47   8
   0   1 -16 1933.83 1467.72   8
   0   1 -16 40.3646 1207.86  12
   0  -1 -16 2737.35 1654.55  12
   0  -1 -17 599.057 849.107  12
   0   1 -17 4827.33 1800.44  12
   0  -1 -17 653.697 1070.64   8
   0   1 -17 4965.24 1993.41   8
   0   1 -18 7759.89 2688.29  12
   0  -1 -18 14105.3 3275.48  12
   0  -1 -19 3497.41 1300.86  12
   0   1 -19 1748.58 1205.69  12
   0  -1 -20 1295.62 1225.23  12
   0   1 -20 1059.35 834.575  12
   0   1 -21-548.915 717.394  12
   0  -1 -21-969.389 701.995  12
   0  -1 -22 1831.72 1410.14  11
   0  -1 -22 1599.75 1132.07  12
   0   1 -22 1399.23 917.366  12
   0   1 -23 2161.32 1351.03  11
   0   1 -23 1256.20 923.094  12
   0  -1 -23 948.960 987.404  11
   0  -1 -23 1734.26 1130.62  12
   0   1 -24 3097.37 1092.05  12
   0   1 -24 2674.85 1148.48  11
   0  -1 -24 5057.01 1565.25  11
   0  -1 -24 4888.80 1456.01  12
   0   1  24 6917.59 2021.76  17
   0   2   0 172273. 3431.21   3
   0   2   1 121165. 2801.29   3
   0   2  -1 114174. 2714.46   3
   0  -2  -1 117833. 2394.06   1
   0   2   2 269384. 4426.70   3
   0   2  -2 262501. 4516.89   3
   0  -2  -2 275214. 3894.17   1
   0   2  -2 271292. 4762.03   4
   0  -2  -3 703832. 7522.26   1
   0   2   3 690704. 8211.72   3
   0   2  -3 684719. 9160.16   4
   0   2  -4 461332. 7412.41   4
   0   2   4 447046. 6201.22   1
   0   2  -5 287598. 7614.17   8
   0   2  -5 293439. 6067.19   4
   0   2  -5 287114. 5024.14   3
   0  -2  -5 290559. 6980.13   8
   0   2   5 284111. 4757.21   1
   0  -2  -6 8009.59 1301.39   8
   0   2   6 12274.2 916.769   1
   0   2  -6 12925.5 1721.36   8
   0   2  -6 11656.9 930.087   3
   0   2  -6 10060.6 1225.54   4
   0   2   7 61576.3 2279.03   1
   0   2  -7 61460.6 3001.16   4
   0  -2  -7 61409.9 3843.39   8
   0   2  -7 61620.5 4044.28   8
   0   2  -7 57088.6 2104.98   3
   0   2  -8 109394. 3094.45   3
   0  -2  -8 111171. 4337.91   2
   0   2  -8 107674. 5836.07   8
   0   2  -8 117885. 4405.87   4
   0  -2  -8 106270. 5525.90   8
   0   2   8 118638. 3338.63   1
   0  -2  -9 8272.62 1260.52   2
   0  -2  -9 8911.00 1796.15   8
   0   2  -9 9477.08 2001.44   8
   0   2  -9 9442.77 1316.42   4
   0   2   9 8399.54 942.599   1
   0  -2 -10 3421.35 1190.22   8
   0   2 -10 5424.84 1600.66   8
   0   2 -11 13923.3 2787.48   8
   0  -2 -11 15334.6 2653.02   8
   0   2 -12-1801.80 1558.85   8
   0  -2 -12 839.341 857.888   8
   0   2 -13-71.9915 912.241   8
   0  -2 -13 4056.90 1805.34   8
   0  -2 -14 30094.6 4432.23   8
   0   2 -14 36306.6 4977.64   8
   0   2 -15 24408.0 3993.09  12
   0  -2 -15 35540.3 4847.46   8
   0   2 -15 30125.8 4773.47   8
   0  -2  15 42007.6 5663.83  10
   0   2 -15 36764.1 5517.79  14
   0  -2 -16 13981.2 3045.40  12
   0   2 -16 21754.4 4247.93   8
   0   2 -16 18629.2 3521.45  12
   0   2 -16 22335.1 4657.14  14
   0  -2 -16 15350.9 3378.10   8
   0  -2 -17 404.281 744.900  12
   0   2 -17 334.233 954.290   8
   0   2 -17-2351.97 1641.03  12
   0   2 -17 1486.88 1610.34  14
   0  -2 -18 875.780 1135.31  12
   0   2 -18 230.637 844.384  12
   0   2 -19 19966.3 3881.26  12
   0  -2 -19 24816.6 4092.38  12
   0   2 -20 8093.00 2513.82  12
   0  -2 -20 4644.36 1918.99  12
   0   2 -21 2164.40 1480.69  12
   0  -2 -21 2658.63 1410.27  12
   0  -2 -22 6601.83 1838.38  12
   0   2 -22 7003.69 2226.81  12
   0  -2 -22 6231.34 1904.12  11
   0   2 -22 6889.35 1744.21  11
   0   2  23 12719.1 3068.26  17
   0   2 -23 6081.83 1651.26  12
   0  -2 -23 10564.8 1989.05  12
   0  -2 -23 6718.92 2019.78  11
   0   2  24-1548.14 1026.58  17
   0   3   0 134.657 96.0700   5
   0   3   0 539.312 301.356   3
   0   3  -1 34860.1 1576.35   5
   0   3   1 38551.2 1928.58   3
   0   3   1 41712.2 3182.25   6
   0   3  -1 36617.7 1889.70   3
   0   3   2 6648.00 768.402   3
   0   3  -2 6579.53 817.795   3
   0   3   2 6224.75 1328.15   6
   0   3  -3 300271. 5979.12   3
   0   3   3 307103. 9699.87   6
   0   3   3 313416. 5871.44   3
   0   3  -4 1013.09 335.469   4
   0   3   4 162.560 851.007   6
   0   3  -4 1134.94 398.932   3
   0   3  -5 168115. 4805.31   4
   0   3   5 164371. 7751.95   6
   0   3  -5 172638. 6018.58   8
   0   3  -5 163617. 4391.20   3
   0   3   6 173400. 8471.40   6
   0   3  -6 188226. 6917.64   8
   0   3  -6 180522. 4720.80   3
   0   3  -6 197972. 5521.71   4
   0   3   7 79.4038 601.755   6
   0   3  -7 966.084 713.420   8
   0   3  -7 707.669 275.767   3
   0   3  -8 20726.5 2726.49   8
   0   3  -8 21692.0 1634.55   3
   0   3  -9 61052.6 4811.99   8
   0   3 -10 80570.7 5957.65   8
   0   3 -11 18979.4 3100.38   8
   0   3 -12 478.480 1237.16   8
   0   3 -13 1332.95 1382.36   8
   0   3  14 88595.6 8161.23   6
   0   3 -14 70540.7 7025.99   8
   0   3 -14 67898.2 7365.32  14
   0   3  15 2028.67 1263.85   6
   0   3 -15 853.875 1097.14  12
   0   3 -15 1829.19 1339.04   8
   0  -3  15 998.265 1194.45  10
   0   3 -15 4669.75 2802.13  14
   0   3 -16 8029.80 2432.07   8
   0   3  16 8832.26 2708.26   6
   0   3 -16 8554.03 2452.42  12
   0   3 -16 12260.2 3572.75  14
   0   3 -17-1276.45 1471.73  14
   0   3 -17-689.438 1101.98  12
   0   3 -18 10862.8 2612.37  12
   0   3 -18 9000.97 3074.26  14
   0   3 -19 3888.77 1854.97  12
   0  -3 -20 17026.4 3836.99  11
   0   3 -20 21239.1 3676.05  12
   0  -3 -21 1032.37 709.017  11
   0   3  21 655.732 988.449  17
   0   3 -21 1267.93 922.382  12
   0   3  22 1048.12 984.294  17
   0   3 -22 1571.77 1072.39  12
   0  -3 -22 621.684 656.124  11
   0   3  23 2896.31 1570.77  17
   0  -3 -23 756.724 775.980  11
   0   3 -23 1355.40 773.100  12
   0   4   0 1601.15 470.993   3
   0   4   1 68830.7 3175.92   3
   0   4  -1 68810.6 3199.02   3
   0   4  -2 51020.5 2782.33   3
   0   4   2 51856.3 2723.25   3
   0   4  -2 47165.1 2204.39   5
   0   4   3 93885.5 6069.97   6
   0   4  -3 84798.6 3232.41   5
   0   4   4 21418.6 3061.85   6
   0   4   5 192683. 9533.77   6
   0   4   6 20878.0 3332.16   6
   0   4   7 2727.43 1396.62   6
   0   4   8 22912.4 3668.89   6
   0   4   9 61795.1 6345.58   6
   0   4  10 33022.0 4886.65   6
   0   4  11 45313.1 5877.79   6
   0   4  12 11291.9 3279.93   6
   0   4 -13 2001.53 1145.95  14
   0   4  13 2267.06 1395.02   6
   0   4  14 11547.2 3189.37   6
   0   4 -14 5823.14 2922.32  14
   0   4 -15 11892.9 3357.04  14
   0   4 -15 16526.9 1979.86  21
   0   4  15 17557.6 3799.95   6
   0   4 -16 6072.15 2739.19  14
   0   4 -17 703.988 1029.77  14
   0   4  18 1490.00 1858.68  17
   0   4 -18-572.838 1152.17  14
   0  -4 -18 1596.03 1211.17  11
   0  -4 -19 27289.7 4358.61  11
   0   4  19 37746.6 6618.00  17
   0  -4 -20-1791.97 1117.10  11
   0   4  20-855.930 1461.29  17
   0   4  21-339.034 1033.93  17
   0   4  22-1196.80 1271.05  17
   0   5   5 78033.4 6711.49   6
   0   5   6 104403. 8061.12   6
   0   5   7 34502.3 4849.16   6
   0   5  -7 36799.2 2836.53   5
   0   5   8 37752.6 5234.74   6
   0   5  -8 27708.5 2609.20   5
   0   5   9 39899.8 5609.70   6
   0   5 -10 77521.3 10076.7  13
   0   5  10 63121.3 7017.03   6
   0   5 -11 20245.9 5671.61  13
   0   5  11 11061.3 3139.49   6
   0   5  11 10947.2 3740.87  17
   0   5 -11 8484.42 2543.87  14
   0   5 -11 13014.6 1831.77  21
   0   5  12-626.569 1224.46   6
   0   5 -12 2449.63 848.921  21
   0   5  12-107.383 1645.35  17
   0   5 -12-168.142 1310.55  14
   0   5 -13 307.760 1475.46  14
   0   5  13 3931.18 2051.55   6
   0   5 -13 4273.19 1121.77  21
   0   5  13 3747.75 2261.66  17
   0   5  14 6071.61 2813.35  17
   0   5 -14 5245.08 1199.74  21
   0   5 -14 2226.09 1716.54  14
   0   5 -15 1525.46 669.778  21
   0   5  15 3038.18 1996.37  17
   0   5 -15 1308.67 1223.47  14
   0   5 -16 1078.44 1646.18  14
   0   5  16 1243.58 1570.70  17
   0   5 -16 1673.70 558.664  21
   0   5  17-1344.69 1941.66  17
   0   5 -17-75.4133 1415.68  14
   0   5  18 152.295 1370.41  17
   0   5 -18 1736.99 1783.76  14
   0   5  19-272.448 906.951  17
   0   5  20 459.712 985.474  17
   0   5  21 1379.85 1283.89  17
   0   6  -7 2520.39 732.189  21
   0   6  -7 7329.14 2851.68  13
   0   6  -8 87785.1 11186.6  13
   0   6   8 70370.1 8593.45  17
   0   6  -8 74893.1 4416.92  21
   0   6  -9 1034.75 603.501  21
   0   6  -9-1099.01 1387.97  14
   0   6  -9 1693.89 2353.92  13
   0   6   9-956.216 1429.91  17
   0   6 -10 4616.73 3053.67  13
   0   6  10 2138.18 1147.73  17
   0   6 -10 3087.49 1041.94  21
   0   6 -10 3194.34 1492.15  14
   0   6 -11 3789.37 1013.25  21
   0   6  11 2605.31 2363.64  17
   0   6 -11 2108.06 1866.00  14
   0   6  12 8498.78 3271.62  17
   0   6 -12 5235.47 1264.15  21
   0   6 -12 6538.62 3137.19  14
   0   6  13-939.729 1728.95  17
   0   6 -13-76.2007 1268.56  14
   0   6 -13-123.345 470.703  21
   0   6  14 9100.46 3372.27  17
   0   6 -14 10225.7 1591.04  21
   0   6 -14 8280.81 3106.04  14
   0   6  15-816.096 1400.54  17
   0   6 -15 330.302 347.299  21
   0   6 -16 744.231 1243.38  14
   0   6 -16-135.920 363.274  21
   0   6  16-81.7690 1361.10  17
   0   6 -17 11622.6 3161.80  14
   0   6  17 11901.7 3566.98  17
   0   6 -17 16711.9 1614.95  21
   0   6 -18 2663.63 1785.37  14
   0   6  18 2321.65 1433.03  17
   0   6  19 2452.61 1423.12  17
   0   7   0 70.9642 429.034  20
   0   7   1 29735.7 2765.64  20
   0   7  -1 31965.2 2916.23  20
   0   7  -2 8507.22 1526.43  20
   0   7   2 10576.9 1584.44  20
   0   7  -2 13030.5 4245.15  13
   0   7  -3 40052.7 7477.75  13
   0   7   3 21328.2 2323.01  20
   0   7  -4 9523.78 3833.84  13
   0   7   4 9405.22 1516.90  20
   0   7  -5 62409.1 9415.62  13
   0   7  -6 3.15361 1757.06  13
   0   7  -7 4861.44 1054.98  14
   0   7  -7 14240.3 4597.25  13
   0   7  -8 17702.5 5593.62  13
   0   7  -8 18833.3 2334.37  21
   0   7  -8 12040.4 3391.55  14
   0   7  -9 44559.2 8522.22  13
   0   7  -9 28449.7 5002.31  14
   0   7  -9 39686.6 3325.48  21
   0   7  10 816.027 996.788  17
   0   7 -10-52.8306 378.878  21
   0   7 -11 1990.94 802.644  21
   0   7 -11 3138.34 1317.24  14
   0   7  11 3937.76 2018.96  17
   0   7 -12 39307.3 3109.52  21
   0   7  12 31514.5 5719.22  17
   0   7 -12 24808.4 4896.78  14
   0   7 -13 7077.56 2408.54  14
   0   7  13 14307.2 3950.05  17
   0   7 -14 541.880 1226.59  14
   0   7  14 3497.57 1909.70  17
   0   7  15 1057.35 1384.96  17
   0   7 -15 1362.78 1087.88  14
   0   7 -16 928.453 974.960  14
   0   7  16 3496.19 1673.70  17
   0   7  17 650.622 872.714  17
   0   7 -17-87.8185 224.989  20
   0   8   0 72955.7 4558.52  20
   0   8  -1 15185.7 2066.45  20
   0   8   1 17875.2 2192.77  20
   0   8  -2 6427.12 1470.09  20
   0   8   2 5263.79 1149.96  20
   0   8  -2 4713.74 2188.98  13
   0   8   3 373.757 298.266  20
   0   8  -3 2.99167 1395.30  13
   0   8  -3 241.187 383.413  20
   0   8   4 1187.10 528.282  20
   0   8  -4 535.440 474.801  20
   0   8  -4 3386.78 2987.14  13
   0   8  -5 8275.03 3738.07  13
   0   8  -5 3186.34 1063.76  20
   0   8  -6 2930.60 2105.84  13
   0   8  -6 3404.55 1102.50  20
   0   8  -7 976.502 603.431  20
   0   8  -7 1269.97 1698.70  13
   0   8  -8 5110.70 1299.04  20
   0   8  -8 7257.03 3883.62  13
   0   8  -9 14174.9 2028.21  20
   0   8 -10 1452.27 671.836  20
   0   8 -10-1645.89 1105.26  14
   0   8 -11 1374.70 651.029  20
   0   8 -11-177.427 1290.72  14
   0   8 -12-233.317 383.695  20
   0   8 -12-1817.00 1388.00  14
   0   8 -13 5571.66 1050.77  20
   0   8 -13 3928.61 1425.71  14
   0   8 -14 854.571 806.552  14
   0   8 -14 2748.77 639.335  20
   0   8 -15 8648.03 989.065  20
   0   8 -15 4711.56 1400.12  14
   0   9   0 108.056 328.462  20
   0   9   1 4431.97 958.110  20
   0   9  -1 7109.04 1312.67  20
   0   9  -2 4318.54 1118.99  20
   0   9   2 2316.13 696.196  20
   0   9   3 11823.5 1539.26  20
   0   9  -3 11427.8 1723.01  20
   0   9  -4 7638.61 1425.08  20
   0   9  -4 8504.59 3301.88  13
   0   9  -5 236.522 1722.87  13
   0   9  -5 244.311 324.557  20
   0   9  -6 1992.42 756.468  20
   0   9  -7 3685.91 915.028  20
   0   9  -8-560.462 483.044  20
   0   9  -9 1909.92 618.289  20
   0   9 -10 6820.31 1102.75  20
   0   9 -11 11314.3 1281.28  20
   0  10   0 494.878 267.423  20
   0  10  -1 301.568 251.399  20
   0  10   1 1153.05 429.340  20
   0  10  -2 9822.19 1162.43  20
   0  10  -3 521.837 273.222  20
   0  10  -4 21.3355 207.350  20
   0  10  -5 10116.6 1151.22  20
   0  10  -6 6491.55 881.230  20
   1   0 -24 1977.22 1090.37  11
   1   0 -24 55.9601 468.362  12
   1   0 -23 1278.21 835.608  12
   1   0 -22 18471.4 3433.76  12
   1   0 -21 1426.28 1309.93  12
   1   0 -20 6221.73 2117.62  12
   1   0 -19-1200.39 1514.00  12
   1   0 -18 2214.60 1329.24  12
   1   0 -17 62.7991 760.146  12
   1   0 -17 2480.51 1646.36   8
   1   0 -16 9405.16 2831.30   8
   1   0 -16 10494.1 2725.22  12
   1   0 -15 264.487 1001.01   8
   1   0 -14 39673.8 5030.92   8
   1   0 -13 128.582 1059.01   8
   1   0 -12 69379.0 5827.87   8
   1   0 -11-234.986 829.802   8
   1   0 -10 12132.5 2169.57   8
   1   0  -9 796.594 815.997   8
   1   0  -8 13986.3 1993.16   8
   1   0  -7-18.0656 386.097   8
  -1   0   5 414.975 254.538   2
  -1   0   4 232190. 4067.03   2
  -1   0   3 1897.64 310.334   2
  -1   0   2 999999. 9020.78   2
  -1   0   1 273.064 53.6405   1
  -1   0  -1 569.004 152.105   2
  -1   0  -2 444730. 6015.16   2
   1   0   3 197.769 54.8936   3
  -1   0  -3 28.8290 229.645   2
  -1   0  -4 270577. 5456.79   2
  -1   0  -5 1093.34 475.450   2
  -1   0  -6 8067.29 1115.08   2
  -1   0  -7 679.383 605.028   8
  -1   0  -7 435.688 361.725   2
  -1   0  -8 22373.1 2007.99   2
  -1   0  -8 21878.2 2625.79   8
  -1   0  -9-454.964 909.011   8
  -1   0 -10 7933.80 1970.70   8
  -1   0 -11 1639.95 1322.55   8
  -1   0 -12 369261. 14269.5   8
  -1   0 -13-496.664 1088.86   8
  -1   0 -14 18140.2 3619.65   8
  -1   0 -15-519.175 1117.61   8
  -1   0 -16 112302. 8902.39  12
  -1   0 -16 135846. 10454.4   8
  -1   0 -17-875.292 923.419  12
  -1   0 -17 3219.03 2004.79   8
  -1   0 -18 1139.31 1125.52  12
  -1   0 -19-1377.14 1694.22  12
  -1   0 -20 22150.3 4193.00  12
  -1   0 -21 101.093 768.946  12
  -1   0 -22 1242.63 1789.39  11
  -1   0 -22 1438.50 1230.62  12
  -1   0 -23-681.278 772.620  12
  -1   0 -23-542.497 876.047  11
  -1   0 -24 2571.44 1167.30  11
  -1   0 -24 1980.85 872.718  12
   1  -1 -24 951.598 726.144  12
   1   1 -24 608.288 476.793  11
   1   1 -24 1306.69 937.579  12
   1  -1 -24 1666.23 1212.42  11
   1   1 -23 2583.95 1204.02  12
   1  -1 -23 1750.71 936.983  12
   1  -1 -23 2300.12 1451.96  11
   1  -1 -22 3540.45 1581.89  12
   1   1 -22 3954.76 1736.70  12
   1   1 -21 1039.90 938.660  12
   1  -1 -21-1354.50 1366.12  12
   1   1 -20 17474.3 3758.40  12
   1  -1 -20 11446.4 2890.52  12
   1  -1 -19-1479.84 1689.58  12
   1   1 -19-3092.70 1829.40  12
   1  -1 -18 850.145 792.596  12
   1   1 -18-3592.24 2098.68  12
   1   1 -17 17999.0 3764.44  12
   1  -1 -17 13015.7 3230.99  12
   1  -1 -17 16297.8 3497.75   8
   1   1 -17 17903.7 3687.12   8
   1   1 -16 8787.82 2844.69  12
   1  -1 -16 8183.59 2267.05  12
   1   1 -16 6727.37 2230.08   8
   1  -1 -16 9542.57 2618.01   8
   1   1 -16 8726.63 2470.95  14
   1  -1 -15 21502.7 3820.02   8
   1   1 -15 21575.4 4038.47   8
   1   1 -14 1176.49 823.791   8
   1  -1 -14 3720.98 1319.41   8
   1  -1 -13 21507.2 3507.27   8
   1   1 -13 22375.4 3684.89   8
   1  -1 -12 8051.80 2007.21   8
   1   1 -12 8632.38 2216.16   8
   1   1 -11 149485. 8229.91   8
   1  -1 -11 151580. 8017.45   8
   1   1 -10 126369. 6961.92   8
   1  -1 -10 124921. 6782.19   8
   1  -1  -9 199.211 394.959   2
  -1   1   9 670.938 279.594   1
   1   1  -9 141.031 717.560   8
   1  -1  -9-382.344 595.366   8
   1  -1  -8 100171. 3620.60   2
   1  -1  -8 95417.8 5011.48   8
  -1   1   8 98877.9 2891.60   1
   1   1  -8 94328.9 5198.80   8
   1  -1  -7 8409.07 1380.58   8
   1   1  -7 6883.02 1244.97   8
  -1   1   7 7937.83 740.490   1
   1  -1  -7 8964.39 1043.00   2
  -1   1   6 25447.7 1229.72   1
   1   1  -6 21480.5 2122.03   8
   1  -1  -6 26455.4 2183.31   8
   1  -1  -6 24770.7 1516.82   2
   1   1  -6 21074.3 1466.58   4
   1  -1  -5 332381. 5559.98   2
  -1   1   5 325829. 4738.86   1
   1   1  -5 329376. 5689.68   4
   1   1  -4 510097. 6932.89   4
  -1   1   4 519869. 6096.12   1
  -1   1   4 511032. 5929.43   5
  -1   1   3 143782. 2494.34   1
   1   1  -3 141858. 2846.18   4
  -1   1   2 81655.0 1731.35   1
   1   1  -2 85936.8 1899.67   4
   1  -1  -1 186286. 2504.76   4
   1  -1   0 34379.7 1083.89   4
  -1   1   0 32970.3 1023.97   4
  -1  -1  -1 3184.06 213.062   1
  -1   1  -1 2542.10 310.633   3
  -1   1  -1 2715.49 344.231   4
   1  -1   2 287892. 3822.56   3
  -1   1  -2 277506. 3935.26   3
  -1  -1  -2 293818. 3191.37   1
   1   1   2 283995. 3242.85   1
   1   1   3 599294. 6120.46   1
  -1   1  -3 619596. 6773.28   3
  -1   1  -4 233007. 3561.35   3
   1   1   4 239413. 3386.43   1
   1   1   5 277289. 4077.89   1
  -1  -1  -5 277395. 7350.35   8
  -1   1  -5 265206. 3936.21   3
  -1   1  -5 279379. 7447.35   8
  -1  -1  -6 9458.81 1142.43   2
  -1  -1  -6 9586.99 1567.78   8
  -1   1  -6 9178.65 632.947   3
  -1   1  -6 10845.9 1673.98   8
   1   1   6 9434.15 722.974   1
  -1  -1  -7 98557.7 3945.23   2
  -1  -1  -7 92251.5 5105.96   8
  -1   1  -7 97568.2 2234.56   3
   1   1   7 102366. 2653.86   1
  -1   1  -7 103183. 5252.32   8
  -1   1  -8 32061.8 3223.43   8
   1   1   8 33587.8 1663.44   1
  -1  -1  -8 32999.9 2418.31   2
  -1  -1  -8 37624.4 3432.56   8
   1   1   9 33012.6 1770.39   1
  -1  -1  -9 27141.8 3223.73   8
  -1  -1  -9 34462.7 2682.89   2
  -1   1  -9 33239.2 3529.64   8
  -1  -1 -10 21319.8 2146.34   2
  -1   1 -10 23076.1 3154.40   8
  -1  -1 -10 15884.4 2653.12   8
  -1   1 -11 163750. 8949.29   8
  -1  -1 -11 161990. 8752.98   8
  -1  -1 -12 264.752 875.860   8
  -1   1 -12 1185.57 1352.18   8
  -1  -1 -13 31732.7 4287.05   8
  -1   1 -13 38483.2 4844.62   8
  -1   1 -14-1150.23 1417.30   8
  -1  -1 -14 682.618 1036.45   8
  -1  -1 -15 8913.29 2818.33   8
  -1   1 -15 10345.4 3030.01   8
  -1   1 -16 2568.93 1767.65   8
  -1  -1 -16-1051.98 1352.05   8
  -1   1 -16 1245.08 1140.58  12
  -1  -1 -16 1166.00 1013.17  12
  -1  -1 -17 22142.9 3982.89  12
  -1  -1 -17 23545.0 4199.40   8
  -1   1 -17 22956.3 4464.42   8
  -1   1 -17 18432.4 3984.45  12
  -1  -1 -18 1781.89 1200.28  12
  -1   1 -18 1078.25 936.552  12
  -1  -1 -19 1067.57 1275.26  12
  -1   1 -19 1910.24 1547.03  12
  -1   1 -20 534.892 1176.50  12
  -1  -1 -20-249.524 948.151  12
  -1  -1 -21 13098.7 3305.89  11
  -1  -1 -21 12606.2 2923.40  12
  -1   1 -21 11104.1 2837.07  12
  -1  -1 -22 3564.49 1707.05  11
  -1  -1 -22 4637.86 1887.66  12
  -1   1 -22 863.097 1027.30  12
  -1   1 -22 1085.71 1059.29  11
  -1  -1 -23 2390.11 1526.96  11
  -1   1 -23 1107.23 887.480  11
  -1  -1 -23-876.257 837.618  12
  -1   1 -23 1819.05 1241.26  12
  -1  -1 -24 546.218 545.867  12
  -1  -1 -24 975.032 864.357  11
  -1   1 -24 546.334 663.512  12
  -1   2  24 4925.59 1758.27  17
   1  -2 -23 2141.89 932.409  12
   1   2 -23 1615.10 1262.48  12
   1  -2 -23 1701.12 1282.25  11
   1  -2 -22 3995.30 1450.65  12
   1  -2 -22 3144.11 1930.35  11
   1   2 -22 3678.30 1603.49  12
   1  -2 -21 17901.0 3216.57  12
   1   2 -21 15711.2 3340.59  12
   1   2 -20 466.658 806.777  12
   1  -2 -20 1071.23 961.644  12
   1   2 -19 3419.88 1767.09  12
   1  -2 -19 1440.12 1388.39  12
   1  -2 -18 24328.8 4294.76  12
   1   2 -18 30078.6 4823.61  12
   1   2 -18 34787.5 5970.48  14
   1  -2 -17 55659.3 6107.24  12
   1   2 -17 59374.0 7355.25  14
   1   2 -17 47493.9 6197.03   8
   1   2 -17 44477.4 5869.69  12
   1   2 -16 662.617 981.568  12
  -1  -2  16 102.058 922.774  10
   1   2 -16-291.243 1154.55   8
   1  -2 -16 612.247 1176.35  12
   1  -2 -16-220.965 911.957   8
   1   2 -16-2294.43 2278.71  14
   1   2 -15 3686.71 1441.94   8
   1  -2 -15 5090.35 1953.76   8
   1   2 -15 1633.83 1114.23  12
  -1  -2  15 4072.23 2038.74  10
   1   2 -14 21470.7 3861.48   8
   1  -2 -14 15669.3 3107.55   8
   1   2 -13 56378.1 5887.74   8
   1  -2 -13 57739.7 5581.83   8
   1   2 -12 235.780 939.830   8
   1  -2 -12-195.362 581.454   8
   1  -2 -11 11488.3 2315.89   8
   1   2 -11 13591.4 2650.40   8
   1  -2 -10 7556.35 1724.50   8
   1   2 -10 10488.4 2064.00   8
   1   2  -9 111202. 6379.14   8
   1  -2  -9 113935. 6003.28   8
   1   2  -9 121630. 4412.27   4
   1  -2  -8 11109.0 1264.57   2
   1  -2  -8 11323.1 1714.54   8
  -1   2   8 12873.3 1121.66   1
   1   2  -8 9894.05 1806.37   8
   1   2  -8 10633.2 1318.07   4
   1  -2  -7 455908. 10507.5   8
   1   2  -7 467833. 8378.96   4
   1   2  -7 447266. 11294.5   8
  -1   2   7 466022. 7213.49   1
   1   2  -6 268557. 7941.02   8
   1  -2  -6 262957. 7016.03   8
   1   2  -6 265922. 5709.31   4
  -1   2   6 265319. 4982.72   1
   1  -2  -6 260794. 4212.02   3
  -1   2   5 8056.06 745.973   1
   1  -2  -5 7642.25 659.351   3
  -1   2   5 8783.14 667.483   5
   1   2  -5 7682.86 899.289   4
   1  -2  -4 43535.3 1580.67   3
  -1   2   4 40933.4 1337.19   5
  -1   2   4 39046.8 1616.34   1
   1   2  -4 43006.5 1890.57   4
   1   2  -3 63854.9 2177.76   4
  -1   2   3 58984.5 1557.69   5
   1  -2  -3 64460.7 1976.36   3
   1  -2  -2 286149. 4594.02   3
   1  -2  -1 28439.1 1234.92   4
  -1   2   1 31203.6 2079.95   6
  -1   2   0 65490.9 2153.93   3
   1  -2   0 66610.9 2091.79   4
  -1  -2  -1 22494.1 878.708   1
  -1   2  -1 20806.5 1173.06   3
   1  -2   1 19789.3 1247.73   4
  -1   2  -1 21583.7 1150.43   5
  -1   2  -1 21123.7 1158.52   4
  -1   2  -2 44929.4 1781.92   3
  -1   2  -2 48158.5 1965.09   4
   1   2   3 165837. 3152.87   3
  -1   2  -3 158552. 3561.73   3
  -1  -2  -3 166958. 2721.77   1
  -1   2  -3 165259. 4092.31   4
  -1   2  -4 322331. 5483.95   3
  -1   2  -4 341592. 6554.46   4
   1   2   4 326715. 4838.14   1
   1   2   4 324141. 9333.07   6
  -1  -2  -4 332116. 4492.75   1
  -1   2  -4 328504. 7737.72   8
  -1  -2  -5 42464.7 2850.36   8
  -1   2  -5 48811.9 2528.41   4
  -1   2  -5 47620.2 1929.08   3
  -1   2  -5 50444.4 3196.13   8
   1   2   5 47925.5 1698.50   1
  -1   2  -6 1428.98 483.980   4
   1   2   6 1703.19 343.179   1
  -1  -2  -6 1778.07 676.663   8
  -1   2  -6 1477.25 359.252   3
  -1   2  -6 925.191 740.494   8
  -1  -2  -7 29838.0 2852.72   8
  -1   2  -7 31753.0 2339.84   4
  -1   2  -7 31816.5 3015.30   8
   1   2   7 32761.4 1573.64   1
  -1   2  -7 33023.2 1617.82   3
  -1  -2  -8 42053.5 3752.93   8
  -1  -2  -8 43234.3 2834.55   2
  -1   2  -8 48644.2 4058.53   8
  -1   2  -8 50518.4 3033.49   4
   1   2   8 48953.8 2080.68   1
   1   2   9 899.077 301.786   1
  -1  -2  -9 958.461 505.040   2
  -1   2  -9 1207.03 700.830   8
  -1  -2  -9-14.7361 617.175   8
  -1   2 -10-658.966 872.378   8
  -1  -2 -10 408.639 667.563   8
  -1  -2 -11 1578.23 765.167   8
  -1   2 -11 722.305 764.895   8
  -1   2 -12 80040.6 6703.43   8
  -1  -2 -12 74134.5 6267.20   8
  -1  -2 -13 20293.7 3500.34   8
  -1   2 -13 16160.4 3149.22   8
  -1  -2 -14 20803.9 3825.89   8
  -1   2 -14 23019.3 4087.96   8
  -1  -2 -15 9285.55 2730.64   8
  -1   2 -15 9791.44 2639.21  12
  -1  -2 -15 9041.94 2290.88  12
  -1   2 -15 6001.10 2694.31  14
  -1   2 -15 8976.49 2652.67   8
  -1   2 -16 54296.2 6665.35   8
   1   2  16 51561.2 6105.89   6
  -1   2 -16 49309.5 5980.90  12
  -1  -2 -16 45499.8 5690.47   8
  -1   2 -16 65244.8 7661.92  14
  -1  -2 -16 38615.7 4950.47  12
  -1  -2 -17 26129.4 4127.78  12
  -1   2 -17 23670.5 4541.13   8
  -1   2 -17 19626.3 3927.71  12
  -1  -2 -18 1476.52 1358.02  12
  -1   2 -18 1565.49 1228.19  12
  -1   2 -19 1622.24 1735.87  12
  -1  -2 -19-289.818 766.937  12
  -1   2 -20 2010.25 1698.39  12
  -1  -2 -20 926.126 909.536  12
  -1  -2 -20 1331.18 1273.38  11
  -1   2 -21 8471.30 2392.52  12
  -1  -2 -21 13833.3 2834.27  12
  -1  -2 -21 13536.5 3290.78  11
   1   2  22 1302.72 1471.33  17
  -1  -2 -22-701.011 875.237  12
  -1  -2 -22 74.8767 671.591  11
  -1   2 -22-425.790 651.998  12
  -1  -2 -23 2764.39 1443.37  11
  -1  -2 -23 3004.31 1162.07  12
   1   2  23 2269.08 1250.13  17
  -1   2 -23 1815.76 886.305  12
   1  -3 -23 1261.11 997.051  11
   1   3 -23 316.042 673.353  12
  -1   3  23 1953.56 1273.68  17
   1   3 -22 2596.37 1386.49  12
   1  -3 -22 2273.47 1155.44  11
  -1   3  22 4065.21 1978.97  17
   1  -3 -21 119.142 901.610  11
   1   3 -21 489.343 875.776  12
   1   3 -20 5716.41 1786.13  12
   1   3 -19 2257.86 1381.13  12
   1   3 -18 15073.2 4226.58  14
   1   3 -18 13013.0 3169.76  12
   1   3 -17 5854.80 1950.06  12
   1   3 -17 3534.82 1919.46  14
   1   3 -16 41440.2 5732.10   8
   1   3 -16 47104.5 5716.03  12
  -1   3  16 55610.4 6920.07   6
   1   3 -16 42640.8 6331.23  14
  -1  -3  16 55114.9 6721.81  10
   1   3 -15 2705.64 1438.93   8
   1   3 -15-2511.60 1896.90  12
  -1  -3  15 1355.76 1107.52  10
   1   3 -15 1793.88 1851.46  14
   1   3 -14 2040.01 1082.77  14
   1   3 -14-329.556 1600.28   8
   1   3 -13 15280.9 4192.54   8
   1   3 -12 110956. 7879.00   8
   1   3 -11 18349.3 3081.61   8
   1   3 -10 42573.2 4315.86   8
   1   3  -9 1113.94 863.063   8
   1   3  -8 287677. 6300.31   3
   1   3  -8 310510. 10384.8   8
   1   3  -7 4614.60 1278.18   8
   1   3  -7 3998.06 807.569   4
   1   3  -6 23857.7 2404.53   8
   1   3  -6 23104.7 1766.62   4
   1   3  -5 43606.8 3014.88   8
  -1   3   5 43457.3 1561.92   5
  -1   3   4 24709.1 1118.43   5
  -1   3   4 21230.5 2649.00   6
   1   3  -4 23101.3 1991.70   8
  -1   3   3 719.502 189.590   5
  -1   3   3 1053.40 695.116   6
  -1   3   2 122042. 5578.73   6
  -1   3   2 113162. 2469.93   5
  -1   3   1 186.350 510.799   6
  -1   3   1 855.483 222.528   5
   1   3   0 8711.08 885.401   3
  -1   3   0 9263.88 977.343   3
  -1   3   0 7803.07 708.817   5
  -1   3  -1 8971.99 857.650   5
   1   3   1 10432.7 960.765   3
  -1   3  -1 9911.92 987.051   3
   1   3   2 4955.31 671.192   3
   1   3   2 5876.77 1338.28   6
  -1   3  -2 5699.43 764.519   5
  -1   3  -2 5329.61 750.420   3
   1   3   3 508.225 707.744   6
   1   3   3-227.660 268.654   3
  -1   3  -3 55.1124 192.279   4
  -1   3  -3 351.354 306.322   3
   1   3   4 24340.3 1449.10   3
   1   3   4 24509.2 2943.78   6
  -1   3  -4 26258.6 1809.91   4
  -1   3  -4 25134.0 1667.74   3
  -1   3  -5 4225.08 793.995   4
  -1   3  -5 4661.43 1089.51   8
  -1   3  -5 4300.35 680.621   3
   1   3   5 3415.72 1021.96   6
  -1   3  -6 381484. 8208.14   4
   1   3   6 363984. 12302.2   6
  -1   3  -6 354805. 10034.8   8
  -1   3  -6 346176. 6912.63   3
  -1   3  -7 29156.4 3091.01   8
  -1   3  -7 25860.7 1734.38   3
   1   3   7 24874.6 3393.14   6
  -1   3  -8 53825.9 4484.20   8
   1   3   8 59193.0 2588.96   1
   1   3   8 53107.0 5122.45   6
  -1   3  -9 11678.2 2230.22   8
   1   3   9 5131.43 1809.62   6
   1   3  10 58259.2 5835.04   6
  -1   3 -10 47392.4 4798.63   8
   1   3  11-1095.36 1415.28   6
  -1   3 -11 1079.93 988.705   8
   1   3  12 4458.76 2002.58   6
  -1   3 -12 3030.22 1349.75   8
   1   3  13 12074.3 3097.98   6
  -1   3 -13 15146.5 3333.32   8
  -1   3 -14 113.280 1380.71   8
  -1   3 -14 2473.21 1587.41  14
   1   3  14-581.622 852.600   6
  -1   3 -15 1014.82 1210.47   8
  -1   3 -15 317.502 777.924  12
   1   3  15 286.821 1229.12   6
  -1   3 -15-555.697 1141.83  14
  -1   3 -16 5156.94 1882.56  12
  -1   3 -16 2866.30 1582.22   8
  -1   3 -16 5908.46 2601.72  14
   1   3  16 6944.30 2536.53   6
  -1   3 -17 632.614 1772.82  14
  -1   3 -17 5175.77 2499.75  12
  -1  -3 -18 23323.3 4410.52  11
  -1   3 -18 18742.4 3546.41  12
  -1   3 -19-1544.33 1235.77  12
  -1  -3 -19-170.575 773.790  11
   1   3  20 5221.54 2559.84  17
  -1  -3 -20 2779.36 1497.17  11
  -1   3 -20 3637.68 1727.37  12
  -1   3 -21 1003.71 1091.94  12
  -1  -3 -21-379.892 949.500  11
  -1   3 -22 14223.9 2512.45  12
   1   3  22 19622.5 3836.44  17
  -1  -3 -22 19730.4 3224.37  11
   1   3  23 2232.64 1441.87  17
  -1  -3 -23 581.737 678.271  11
  -1   4  22-839.338 1354.81  17
  -1   4  21 20759.2 4261.07  17
  -1   4  20 4914.78 2457.72  17
   1   4 -19 1552.89 1692.92  14
  -1   4  19 1447.43 1774.64  17
   1   4 -18 7564.44 2988.09  14
   1   4 -17 41628.3 3085.82  21
   1   4 -17 27552.9 5370.05  14
   1   4 -16 530.178 1995.73  14
  -1   4  15 8095.74 2627.53   6
   1   4 -15 5051.41 2044.52  14
  -1   4  14 44.7894 1232.91   6
   1   4 -14 526.550 2020.15  14
  -1   4  13 57889.3 7190.99   6
   1   4 -13 45280.4 6122.39  14
  -1   4  12-452.786 1164.95   6
  -1   4  11 8827.14 2769.22   6
  -1   4  10 797.025 1102.08   6
  -1   4   9 25552.6 4156.94   6
  -1   4   8 19833.1 3548.34   6
  -1   4   7 50426.0 5286.30   6
  -1   4   6 7167.69 2004.19   6
  -1   4   5 2204.07 1169.01   6
  -1   4   4 93151.5 6259.39   6
  -1   4   3 193662. 8646.62   6
   1   4  -2 14021.6 1447.71   3
  -1   4   2 15076.5 2342.81   6
   1   4  -1 118830. 4190.25   3
  -1   4   0 47335.8 1985.70   5
   1   4   0 56027.0 2809.98   3
  -1   4  -1 40265.6 2458.26   3
   1   4   1 40290.9 2408.89   3
  -1   4  -1 37576.1 1933.91   5
  -1   4  -2 8308.99 965.697   5
   1   4   2 9355.95 1131.55   3
  -1   4  -3 4539.45 796.643   5
   1   4   3 3981.49 719.714   3
   1   4   4 14720.4 2663.09   6
   1   4   4 15425.9 1408.92   3
  -1   4  -4 16362.9 1614.11   5
   1   4   5 33088.3 4038.70   6
  -1   4  -5 32183.5 2342.94   5
   1   4   6 73318.9 6136.70   6
   1   4   7 57965.1 5649.84   6
   1   4   8 527.553 1222.87   6
   1   4   9 31013.3 4402.54   6
   1   4  10 96836.4 8185.07   6
   1   4  11 3969.39 1746.44   6
   1   4  12-833.696 979.064   6
  -1   4 -13 23033.4 4430.56  14
   1   4  13 24015.0 4299.94   6
  -1   4 -14 26774.2 4936.89  14
   1   4  14 22903.9 4440.56   6
  -1   4 -15 10872.9 3259.02  14
   1   4  16 10852.9 3806.51  17
  -1   4 -16 2301.52 1977.84  14
  -1  -4 -17 14330.1 3315.08  11
  -1   4 -17 8580.02 2918.85  14
   1   4  17 19252.5 5070.62  17
  -1   4 -18 4645.64 2650.11  14
  -1  -4 -18 3182.24 1775.47  11
   1   4  18 5633.11 2693.39  17
   1   4  19 1681.34 1898.73  17
  -1  -4 -19 453.016 708.075  11
   1   4  20 2947.09 2022.31  17
  -1  -4 -20 755.472 1177.30  11
   1   4  21 8411.36 2878.49  17
  -1  -4 -21 8832.34 2129.41  11
   1   4  22 2352.87 1326.34  17
  -1   5  21 3333.77 1703.76  17
  -1   5  20-454.260 719.298  17
   1   5 -19 1346.31 1475.00  14
  -1   5  19 1468.18 1272.54  17
   1   5 -18 178.251 269.684  21
  -1   5  18 1745.04 1507.96  17
   1   5 -18 261.349 1586.11  14
   1   5 -17 1970.81 1006.66  14
   1   5 -17 3082.51 849.418  21
  -1   5  17 3491.85 1867.40  17
   1   5 -16 6312.37 1258.86  21
  -1   5  16 5863.80 2801.11  17
   1   5 -16 3371.97 2829.26  14
   1   5 -15 3029.00 1065.28  21
   1   5 -15 2253.38 1923.62  14
  -1   5  15 5353.77 2733.45  17
   1   5 -14 1741.90 1751.36  14
  -1   5  14 2491.28 1749.71  17
   1   5 -14 6000.61 1268.43  21
  -1   5  13-1466.52 1405.79  17
  -1   5  13 1924.11 1619.30   6
   1   5 -13 1346.78 629.110  21
   1   5 -13-87.8753 1461.15  14
  -1   5  12 55750.4 6772.91   6
  -1   5  12 51341.1 7582.72  17
   1   5 -12 67099.8 4094.96  21
  -1   5  11 57429.9 7757.27  17
   1   5 -11 65244.6 9780.33  13
  -1   5  11 55014.1 6733.93   6
   1   5 -11 36251.5 5691.29  14
   1   5 -11 54051.6 3708.16  21
   1   5 -10 5649.45 3022.05  13
  -1   5  10 2736.32 1664.79   6
  -1   5   9 2660.68 1895.92   6
  -1   5   8 11308.1 3002.02   6
  -1   5   7 35611.7 4875.78   6
  -1   5   6 8910.33 2517.38   6
  -1   5   5 28421.6 4119.54   6
  -1   5   4 3776.64 1495.83   6
  -1   5  -4 2024.38 573.192   5
  -1   5  -5 39716.4 2740.32   5
  -1   5  -6 31307.2 2600.72   5
   1   5   7 238329. 12551.7   6
  -1   5  -7 200300. 7152.48   5
   1   5   8 75050.0 7613.25   6
  -1   5  -8 82066.4 4638.14   5
  -1   5  -9 1037.44 650.789   5
   1   5   9 913.059 1472.77   6
   1   5  10 1019.11 1060.64  17
   1   5  10-180.317 832.852   6
  -1   5 -10 184.115 328.582   5
  -1   5 -11 36755.6 5429.95  14
  -1   5 -11 36843.0 3567.45   5
   1   5  11 46062.8 6087.26   6
  -1   5 -11 50453.5 3416.84  21
   1   5  11 41975.9 6997.97  17
   1   5  12 9106.30 3446.97  17
   1   5  12 13400.6 3431.47   6
  -1   5 -12 8954.24 1894.45   5
  -1   5 -12 16279.3 1930.85  21
  -1   5 -12 8507.82 2711.34  14
   1   5  13 2674.32 1560.01   6
  -1   5 -13 1601.57 1866.86  14
  -1   5 -13 1761.46 639.345  21
  -1   5 -13 1186.06 727.716   5
   1   5  13 3127.89 2421.43  17
   1   5  14 8535.36 3582.70  17
  -1   5 -14 6788.68 3021.58  14
  -1   5 -14 10646.6 1552.06  21
   1   5  15 5356.21 2631.85  17
  -1   5 -15 1746.86 1597.34  14
  -1   5 -16 3755.79 2269.89  14
   1   5  16 2935.06 1963.56  17
   1   5  17 1575.31 1190.74  17
  -1   5 -17 2160.27 1479.26  14
  -1   5 -18-543.174 1440.68  14
   1   5  18-545.279 1289.80  17
   1   5  19 3746.67 2170.73  17
   1   5  20 2150.76 1305.79  17
   1   5  21 1020.96 998.096  17
  -1   6  19 1759.42 1367.85  17
  -1   6  18 4370.64 2053.81  17
   1   6 -18 4889.77 860.585  21
   1   6 -18 891.624 1060.43  14
   1   6 -17 1678.81 586.488  21
   1   6 -17 2338.70 1353.53  14
  -1   6  16 606.829 1276.43  17
   1   6 -16-143.898 256.518  21
   1   6 -16 1482.29 1467.85  14
   1   6 -15 4283.25 2453.47  14
  -1   6  15 5952.64 2691.37  17
   1   6 -15 3551.20 948.070  21
   1   6 -14 525.285 1132.86  14
   1   6 -14 728.141 329.133  21
  -1   6  14 818.786 1391.25  17
   1   6 -13 1551.62 1543.86  14
  -1   6  13 2416.91 2447.98  17
   1   6 -13 1379.27 652.825  21
  -1   6  12 873.241 1429.45  17
   1   6 -12 1363.28 1578.57  14
   1   6 -12 430.711 357.080  21
   1   6 -11 77.0310 1309.93  14
   1   6 -11 622.417 1487.23  13
   1   6 -11 4009.34 1124.19  21
  -1   6  11 2762.95 1993.15  17
   1   6 -10 5846.83 2167.48  14
   1   6 -10 5743.90 1288.11  21
  -1   6  10 4859.41 2270.49   6
   1   6 -10 10964.2 4535.20  13
   1   6  -9 18273.3 5502.88  13
  -1   6   9 14400.2 3383.73   6
   1   6  -9 15018.1 2044.66  21
   1   6  -8 36932.9 7375.46  13
   1   6  -8 28343.9 2748.59  21
   1   6  -7 18139.5 4684.99  13
   1   6  -7 18207.8 2138.76  21
  -1   6  -7 2614.92 808.272  21
   1   6   7 1885.44 1773.48  17
  -1   6  -7 572.876 2468.60  13
  -1   6  -8 43294.2 3262.62  21
   1   6   8 43382.3 6845.96  17
  -1   6  -8 48343.4 8183.93  13
  -1   6  -8 30049.6 4702.79  14
  -1   6  -9 30591.6 6828.67  13
   1   6   9 22317.1 5189.02  17
  -1   6  -9 24322.1 2524.78  21
  -1   6  -9 17020.5 3494.16  14
  -1   6 -10 4033.43 1878.78  14
  -1   6 -10 4891.00 1153.28  21
   1   6  10 5608.39 1915.27  17
  -1   6 -11 11028.5 3409.33  14
  -1   6 -11 13696.7 1891.84  21
   1   6  11 12982.7 4301.54  17
   1   6  12 21391.0 5213.92  17
  -1   6 -12 11718.6 3405.48  14
  -1   6 -12 18768.6 2204.17  21
  -1   6 -13 18573.9 2149.19  21
  -1   6 -13 14768.2 4104.91  14
   1   6  13 18462.2 4915.51  17
  -1   6 -14 9773.29 1471.15  21
   1   6  14 4025.18 2612.64  17
  -1   6 -14 4497.37 2517.78  14
   1   6  15 21275.1 5157.59  17
  -1   6 -15 19955.6 2049.14  21
  -1   6 -15 14594.8 3797.03  14
  -1   6 -16 4073.60 2149.10  14
   1   6  16 9005.95 3299.91  17
  -1   6 -17 3709.05 1884.38  14
   1   6  17 4653.88 2339.65  17
   1   6  18 2095.98 1110.51  17
   1   6  19 2085.79 1383.59  17
   1   7 -17 2305.32 1336.86  14
   1   7 -16 1169.97 880.616  14
   1   7 -15 5333.18 2346.54  14
   1   7 -14 15223.8 1801.32  21
   1   7 -14 10164.5 3112.04  14
   1   7 -13 9791.74 3092.27  14
   1   7 -13 11889.7 1683.38  21
   1   7 -12 1626.55 640.383  21
   1   7 -12-1545.12 1536.29  14
   1   7 -11 14218.6 3994.60  14
   1   7 -11 24749.6 2638.58  21
   1   7 -10 4866.10 1180.09  21
   1   7 -10 6197.61 3330.69  13
   1   7 -10 4608.75 2188.40  14
   1   7  -9 8032.79 3963.50  13
   1   7  -9 4911.02 1941.14  14
   1   7  -9 8285.40 1548.37  21
   1   7  -8 2096.39 2155.74  13
   1   7  -8 2726.29 920.353  21
   1   7  -7 16425.3 5460.77  13
   1   7  -7 11191.5 1796.07  21
  -1   7   7 11794.1 1660.29  20
   1   7  -6-1012.99 2070.72  13
  -1   7   6-362.523 453.106  20
   1   7  -6-1373.09 682.272  21
   1   7  -5 5626.66 2985.96  13
  -1   7   5 2908.01 833.873  20
   1   7  -4 37046.7 7619.36  13
  -1   7   4 25575.4 2553.78  20
   1   7  -3 2328.09 2604.17  13
  -1   7   3 2478.36 838.563  20
   1   7  -2 39423.9 7191.36  13
  -1   7   2 30512.3 2812.81  20
   1   7  -1 12899.9 1811.07  20
  -1   7   1 14684.6 1950.93  20
   1   7   0 1259.37 582.116  20
  -1   7   0 1688.53 609.456  20
  -1   7  -1 6612.14 1358.85  20
   1   7   1 6306.10 1209.13  20
  -1   7  -2 19797.7 2363.70  20
   1   7   2 17503.0 2024.24  20
  -1   7  -3 91964.5 5212.76  20
  -1   7  -4 4806.55 1280.67  20
  -1   7  -4 11317.2 4223.10  13
  -1   7  -5 2080.62 2693.50  13
  -1   7  -6 4651.85 3550.37  13
   1   7   6 950.414 1048.60  17
   1   7   7 5544.32 2991.88  17
  -1   7  -7 5874.82 3344.57  13
  -1   7  -8-232.364 1703.55  13
   1   7   8 1533.19 1465.47  17
  -1   7  -9 38.9964 980.415  14
   1   7   9 753.296 1639.20  17
  -1   7 -10 1179.24 1599.60  14
   1   7  10 187.257 1277.81  17
  -1   7 -11 68620.4 7554.81  14
   1   7  11 85461.9 9970.83  17
   1   7  12 4131.55 2111.90  17
  -1   7 -12 6967.04 2755.40  14
   1   7  13-898.939 1550.47  17
  -1   7 -13 2263.04 1702.63  14
   1   7  14 2613.77 1647.29  17
  -1   7 -14 1064.58 1052.16  14
  -1   7 -15 3227.49 1471.28  14
   1   7  15 7979.21 2737.91  17
   1   7  16 294.579 899.683  17
  -1   7 -16-838.878 942.997  14
  -1   7 -16 671.661 303.746  20
   1   7  17 2665.64 1343.04  17
   1   8 -15 2599.04 1368.39  14
   1   8 -15 2190.71 534.232  20
   1   8 -14 2972.53 1281.74  14
   1   8 -14 5557.99 954.349  20
   1   8 -13 5399.92 2249.57  14
   1   8 -12 3054.10 1874.85  14
   1   8 -11 14925.1 3396.83  14
   1   8 -10 3585.03 2386.35  14
   1   8  -9 3958.71 2592.53  13
   1   8  -9 1431.24 1159.63  14
   1   8  -8-448.993 1346.51  14
   1   8  -8 3881.40 2012.60  13
   1   8  -7 14666.0 3549.56  14
   1   8  -7 19942.0 5467.87  13
   1   8  -6 9079.32 1715.94  20
   1   8  -6 11168.4 4527.67  13
  -1   8   6 9052.79 1493.98  20
   1   8  -5 452.767 415.476  20
  -1   8   5 1449.95 642.789  20
  -1   8   4 1645.72 553.287  20
   1   8  -4 1993.78 784.448  20
  -1   8   3 6378.76 1292.82  20
   1   8  -3 6157.68 1308.72  20
   1   8  -3 9436.03 3155.92  13
  -1   8   2 35572.2 3162.88  20
   1   8  -2 31544.7 2960.22  20
  -1   8   1 40392.0 3430.44  20
   1   8  -1 37389.0 3212.56  20
  -1   8   0 4586.63 1166.10  20
   1   8   0 4082.15 1031.12  20
   1   8   1 26681.8 2620.85  20
  -1   8  -1 27852.8 2842.09  20
  -1   8  -2 24605.9 2749.09  20
   1   8   2 24527.5 2449.21  20
  -1   8  -3 11.9090 293.934  20
  -1   8  -4 10041.0 1760.38  20
  -1   8  -5 11204.1 1892.08  20
  -1   8  -5 16883.7 5104.21  13
  -1   8  -6 4479.10 2668.18  13
  -1   8  -6 2242.30 873.358  20
  -1   8  -7 4318.46 1183.08  20
  -1   8  -8 3933.71 1151.91  20
  -1   8  -9 948.125 524.613  20
  -1   8 -10 618.036 489.516  20
  -1   8 -11 779.185 440.567  20
  -1   8 -12 18843.6 1969.29  20
  -1   8 -13 1097.99 726.964  14
  -1   8 -13 3237.24 750.942  20
  -1   8 -14 1499.25 1206.66  14
  -1   8 -14 1195.23 400.984  20
  -1  -8 -14 1195.55 998.997  16
   1   9 -12 8891.94 1035.70  20
   1   9 -11 2493.47 605.413  20
   1   9 -10 3138.94 760.966  20
   1   9  -9 4423.47 923.289  20
   1   9  -8 24686.4 2247.45  20
   1   9  -7 1492.19 676.401  20
   1   9  -6 470.107 340.968  20
   1   9  -6-386.478 1971.61  13
   1   9  -5 10540.3 1569.03  20
   1   9  -5 13000.2 4318.31  13
  -1   9   5 11641.0 1493.44  20
  -1   9   4 4789.29 1002.32  20
   1   9  -4 5132.85 1104.08  20
  -1   9   3 8003.20 1305.28  20
   1   9  -3 8479.13 1412.07  20
   1   9  -3 12839.1 4045.02  13
  -1   9   2 5368.87 1057.15  20
   1   9  -2 9988.69 3632.90  13
   1   9  -2 6762.30 1261.54  20
  -1   9   1 830.433 375.800  20
   1   9  -1 1528.85 669.203  20
   1   9   0 8754.95 1399.02  20
  -1   9   0 6755.83 1241.81  20
   1   9   1 1534.00 483.728  20
  -1   9  -1 3588.20 1017.69  20
  -1   9  -2 20054.6 2273.29  20
  -1   9  -3 1281.99 589.455  20
  -1   9  -4 1010.48 725.364  20
  -1   9  -5 19907.9 2223.20  20
  -1   9  -6 2462.92 743.747  20
  -1   9  -7 3914.67 937.099  20
  -1   9  -8 2236.97 678.740  20
  -1   9  -9 5100.98 975.938  20
  -1   9 -10 434.512 411.613  20
  -1   9 -11-1.46369 215.233  20
   1  10  -5 1678.16 462.115  20
   1  10  -4 4431.93 747.837  20
   1  10  -3 8770.80 1044.76  20
   1  10  -2 436.844 315.518  20
  -1  10   2 769.872 402.218  20
   1  10  -1 5563.97 823.682  20
  -1  10   1 5705.81 916.654  20
  -1  10   0 7036.33 1004.57  20
  -1  10  -1 7572.74 1059.41  20
  -1  10  -2 1375.44 471.051  20
  -1  10  -3 587.203 384.113  20
  -1  10  -4-496.115 460.410  20
  -1  10  -5 5009.39 837.585  20
  -1  10  -6 5522.37 838.091  20
   2   0 -24 35801.2 4155.40  11
   2   0 -24 34491.7 3744.30  12
   2   0 -23 1687.56 1084.92  12
   2   0 -22 100.615 1101.30  12
   2   0 -21-697.035 804.340  12
   2   0 -20 8044.81 2385.36  12
   2   0 -19 572.143 1083.19  12
   2   0 -18-444.531 784.971  12
   2   0 -17 90.5761 976.002  12
   2   0 -17 81.4503 1200.90   8
  -2   0  16 6188.86 1992.90  18
   2   0 -16 3159.41 1656.42   8
   2   0 -15 230.000 939.894   8
   2   0 -14 19059.7 3525.38   8
   2   0 -13-2281.33 1530.00   8
   2   0 -12 1337.85 1039.55   8
   2   0 -11 2068.09 1078.10   8
   2   0 -10 46720.8 4143.63   8
  -2   0   9 265.339 211.504   1
   2   0  -9-97.6451 630.913   8
   2   0  -8-617.961 801.862   8
  -2   0   8 124.175 133.579   1
  -2   0   7 311.862 214.803   1
   2   0  -6 127236. 5022.74   7
  -2   0   6 123030. 2790.59   1
  -2   0   6 125420. 3210.97   2
  -2   0   5 847.931 265.775   2
  -2   0   5 710.238 223.545   1
  -2   0   4 423114. 5131.91   1
   2   0  -4 417136. 4877.11   4
   2   0  -3 120.673 73.1774   4
  -2   0   3 368.340 174.895   2
  -2   0   3 85.5780 112.278   1
  -2   0   2 18338.4 523.999   4
  -2   0   2 20621.8 656.121   1
  -2   0   1 123.747 41.9363   1
   2   0  -1 149.228 63.5501   1
   2   0   0 307953. 3047.07   1
  -2   0  -1 240.735 218.147   2
  -2   0  -2 13630.1 965.343   2
  -2   0  -3 173.273 338.143   2
   2   0   4 248.401 91.0441   3
  -2   0  -4 209.060 379.625   2
  -2   0  -5 1023.97 500.264   2
  -2   0  -6 91943.1 3818.59   2
  -2   0  -6 85197.0 4809.90   8
  -2   0  -7 115.151 271.442   2
  -2   0  -7 20.6356 490.302   8
  -2   0  -8 5107.92 1043.45   2
  -2   0  -8 4706.29 1465.78   8
  -2   0  -9-380.705 1094.83   8
  -2   0 -10 201276. 9656.00   8
  -2   0 -11 1865.78 1203.72   8
  -2   0 -12 25907.9 3817.32   8
  -2   0 -13 1507.76 1613.45   8
  -2   0 -14 348392. 15860.2   8
  -2   0 -15-379.511 1477.55   8
  -2   0 -16 3605.40 1691.02  12
  -2   0 -16 4598.42 1856.80   8
  -2   0 -17-210.857 1247.29   8
  -2   0 -17-414.206 825.872  12
  -2   0 -18 5788.88 2242.53  12
  -2   0 -19 941.877 1027.23  12
  -2   0 -20 6411.85 2464.02  11
  -2   0 -20 4776.49 1954.29  12
  -2   0 -21-334.161 916.328  11
  -2   0 -21-1121.11 1283.03  12
  -2   0 -22 3528.45 1663.08  11
  -2   0 -22 984.417 983.097  12
  -2   0 -23-269.681 761.108  12
  -2   0 -23 587.700 853.682  11
  -2   0 -24 1657.52 918.248  11
  -2   0 -24 3312.61 965.570  12
   2  -1 -24 830.703 731.614  12
   2   1 -24-1346.83 978.865  11
   2  -1 -24 2163.79 1043.54  11
   2   1 -24 1788.00 1050.24  12
   2  -1 -23 1162.08 922.731  12
   2   1 -23 3214.80 1433.52  12
   2  -1 -22 928.787 663.946  12
   2   1 -22 361.236 768.710  12
   2  -1 -21-164.210 831.658  12
   2   1 -21-1186.13 1377.81  12
   2  -1 -20-1105.90 1107.48  12
   2   1 -20-872.558 1140.05  12
   2   1 -19 19523.4 3966.80  12
   2  -1 -19 17576.2 3724.47  12
   2   1 -18 4884.31 2042.31  12
   2  -1 -18 10563.5 2834.25  12
   2   1 -17 238.426 1090.04  12
   2  -1 -17 1912.55 1635.82   8
   2   1 -17 1599.11 1253.04   8
   2  -1 -17 1316.58 1423.66  12
  -2  -1  16 6651.89 1971.44  18
   2  -1 -16 1402.49 1138.27  12
   2   1 -16 5277.69 2252.08  12
   2   1 -16 4747.52 2153.92   8
   2  -1 -16 1080.99 1341.81   8
  -2  -1  16 4688.22 1969.80  10
   2  -1 -15 103023. 8322.97   8
   2   1 -15 118988. 9168.39   8
   2   1 -14 26469.7 4176.44   8
   2  -1 -14 28520.7 4128.48   8
   2   1 -13 13098.7 3026.59   8
   2  -1 -13 8834.80 2340.79   8
   2   1 -12 5443.68 1807.22   8
   2  -1 -12 8622.72 2188.99   8
   2   1 -11 113244. 7084.85   8
   2  -1 -11 109903. 6785.87   8
   2  -1 -10 34512.8 3518.80   8
   2   1 -10 34258.5 3664.92   8
   2   1  -9 46370.7 2345.10   4
   2  -1  -9 46185.2 3763.79   8
   2   1  -9 48362.7 4061.41   8
  -2   1   9 49919.5 2197.74   1
   2   1  -8 8644.52 967.668   4
  -2   1   8 9468.83 890.745   1
   2  -1  -8 9929.88 1656.39   8
   2   1  -8 8775.13 1651.99   8
   2  -1  -7 34154.9 2787.61   8
   2  -1  -7 34571.3 1669.87   2
  -2   1   7 35156.5 1612.04   1
   2   1  -7 30687.3 1679.23   4
  -2   1   6 379726. 5639.58   1
   2   1  -6 390371. 9413.25   7
   2  -1  -6 389370. 5821.86   2
   2   1  -6 373829. 6023.10   4
   2   1  -5 7851.39 696.034   4
   2  -1  -5 7556.68 1046.59   7
   2  -1  -5 7669.22 627.484   2
   2   1  -5 7900.96 1200.96   7
  -2   1   5 7315.89 678.411   5
  -2   1   5 7894.30 659.635   1
   2  -1  -4 3249.19 680.457   7
   2  -1  -4 4294.52 388.239   2
  -2   1   4 4108.91 457.329   1
   2   1  -4 3335.82 431.942   4
  -2   1   3 1040.55 202.709   1
  -2  -1   3 704.937 255.807   4
  -2  -1   2 217111. 3440.66   4
   2  -1  -2 219466. 2597.68   4
  -2   1   2 213521. 3330.36   1
  -2   1   1 111338. 1765.05   4
  -2   1   0 57208.2 1552.58   4
   2  -1   1 816123. 9350.54   2
   2   1   2 178616. 2148.69   1
   2  -1   2 187410. 3334.63   3
   2   1   3 1470.27 187.728   1
   2  -1   3 1187.22 280.479   3
  -2   1  -3 1567.77 644.549   8
  -2   1  -4 827983. 14203.4   8
   2   1   4 841803. 13471.4   6
  -2  -1  -4 866785. 14176.2   8
   2   1   4 824479. 8324.33   1
   2  -1   4 860944. 8902.24   3
  -2  -1  -5 35760.1 2872.90   8
   2   1   5 35166.3 702.805   3
  -2   1  -5 37507.1 3023.64   8
   2   1   5 35400.8 1253.31   1
  -2  -1  -6 3238.76 764.125   2
  -2  -1  -6 4694.34 1199.61   8
  -2   1  -6 3133.46 971.155   8
   2   1   6 3423.92 454.139   1
  -2   1  -7 17124.7 2267.91   8
   2   1   7 16415.6 1008.54   1
  -2  -1  -7 14889.6 2167.73   8
  -2  -1  -7 17533.8 1735.81   2
  -2   1  -8 4110.54 1366.46   8
  -2  -1  -8 3681.43 877.051   2
   2   1   8 3166.36 541.231   1
  -2  -1  -8 5657.78 1542.26   8
  -2  -1  -9 81483.7 5794.23   8
  -2  -1  -9 80721.4 4351.92   2
  -2   1  -9 80684.3 5716.89   8
   2   1   9 84426.1 2721.53   1
  -2   1 -10 29106.0 3755.27   8
  -2  -1 -10 26705.5 3508.98   8
  -2  -1 -11 31081.1 4012.23   8
  -2   1 -11 38714.4 4514.43   8
  -2  -1 -12 5379.29 1889.03   8
  -2   1 -12 6920.42 2114.01   8
  -2  -1 -13 93610.5 7678.14   8
  -2   1 -13 96373.9 8019.92   8
  -2   1 -14 433.189 1176.29   8
  -2  -1 -14 2143.96 1231.14   8
  -2  -1 -15 24327.3 3871.24  12
  -2   1 -15 28131.4 4425.93  12
  -2   1 -15 28610.1 4639.32   8
  -2  -1 -15 32678.2 4791.66   8
  -2   1 -16 2222.44 2007.62   8
  -2   1 -16 2607.76 1368.61  12
  -2  -1 -16 186.358 1104.49   8
  -2  -1 -16 2523.88 1446.56  12
  -2   1 -17 4596.56 2117.01  12
  -2  -1 -17 6718.34 2565.01  12
  -2  -1 -17 5078.33 2050.61   8
  -2   1 -17 3725.37 1955.90   8
  -2  -1 -18 5111.58 2036.87  12
  -2   1 -18 3414.34 1756.30  12
  -2   1 -19 7004.67 2551.05  12
  -2  -1 -19 7435.15 2698.76  12
  -2   1 -20-901.024 1093.44  11
  -2  -1 -20 158.002 937.990  12
  -2  -1 -20-499.676 929.788  11
  -2   1 -20 2008.11 1384.15  12
  -2   1 -21-659.849 982.249  11
  -2  -1 -21 995.561 1187.47  11
  -2  -1 -21 651.033 705.933  12
  -2   1 -21 1162.48 996.688  12
  -2  -1 -22-209.498 805.283  11
  -2   1 -22 168.447 826.700  12
  -2   1 -22-881.594 581.726  11
  -2  -1 -22-680.524 804.335  12
  -2  -1 -23 9152.85 2281.92  11
  -2  -1 -23 9925.93 2099.25  12
  -2   1 -23 7531.49 1895.45  12
   2   1  23 9674.59 2357.45  17
  -2   1 -23 8220.40 1986.37  11
  -2  -1 -24 1733.53 1020.03  11
  -2   1 -24 205.435 706.100  12
  -2   2  24-73.2717 944.883  17
   2  -2 -23 4158.68 1518.27  11
   2   2 -23 3029.00 1296.03  12
   2  -2 -23 3052.39 1108.03  12
   2   2 -22 645.138 1080.53  12
   2  -2 -22 301.057 927.416  12
   2  -2 -21 1486.45 1377.66  12
   2   2 -21-108.389 1217.87  12
   2   2 -20 12075.8 2960.49  12
   2  -2 -20 7613.74 2291.81  12
   2   2 -19 17941.1 3834.69  12
   2  -2 -19 24182.5 4093.32  12
   2   2 -18-1623.21 1629.22  12
   2  -2 -18-518.431 935.134  12
   2   2 -18-167.453 1039.19  14
   2   2 -17 9834.80 3164.09   8
   2  -2 -17 4385.65 1727.97  12
   2   2 -17 6257.47 2373.29  12
   2   2 -17 6543.36 2625.32  14
  -2  -2  17 7312.30 2759.72  10
  -2  -2  16 29005.4 3672.71  18
   2   2 -16 30905.5 4910.39  14
   2   2 -16 26344.4 4405.54   8
  -2  -2  16 31339.6 5513.80  10
   2  -2 -16 19863.1 3527.58  12
   2   2 -16 22370.9 4197.47  12
   2  -2 -15 32419.8 4597.44  12
  -2  -2  15 24547.8 3216.01  18
   2   2 -15 20740.2 4144.88  14
  -2  -2  15 30060.6 5048.16  10
   2  -2 -15 34004.2 4691.20   8
   2   2 -15 32410.2 4912.12   8
   2   2 -14 1205.84 1020.17   8
   2  -2 -14-1226.12 1523.27   8
   2  -2 -13 22796.4 3521.10   8
   2   2 -13 24708.6 3907.99   8
   2  -2 -12 3850.81 1366.58   8
   2   2 -12 566.023 962.606   8
   2   2 -11-2.96829 886.935   8
   2  -2 -11 406.497 709.954   8
   2   2 -10 8514.92 2000.59   8
   2  -2 -10 4352.56 1393.97   8
   2   2  -9 252439. 6179.46   4
   2  -2  -9 255838. 9016.90   8
   2   2  -9 240546. 9547.79   8
  -2   2   8 566762. 8806.33   1
   2   2  -8 555036. 9156.39   4
   2  -2  -8 525061. 12362.6   8
   2   2  -8 545093. 13841.2   8
   2   2  -7 84120.7 3062.85   4
   2  -2  -7 77813.7 4132.14   8
   2  -2  -7 86207.9 2964.80   2
  -2   2   7 86880.7 2915.24   1
   2   2  -6 195872. 4591.67   4
   2   2  -6 205053. 7038.46   7
  -2   2   6 191385. 3908.50   5
  -2   2   6 202274. 4401.96   1
   2  -2  -6 200847. 6103.41   8
  -2   2   5 97930.0 2860.01   1
  -2   2   5 93709.8 2445.44   5
   2   2  -5 103831. 4554.55   7
   2  -2  -5 97269.5 3734.24   8
   2   2  -4 22738.4 1913.02   7
  -2   2   4 18165.1 992.855   5
  -2   2   3 189.782 92.5554   5
   2  -2  -3 338.727 163.963   4
   2  -2  -2 76428.5 2012.22   4
  -2   2   2 71045.3 1924.50   5
   2  -2  -1 50113.7 1744.84   4
  -2   2   1 47316.6 1598.69   5
  -2   2   0 2839.63 423.716   5
  -2   2   0 3764.86 470.259   4
  -2   2  -1 7280.61 712.677   4
  -2  -2  -1 8203.54 447.676   1
  -2   2  -1 7236.62 758.280   5
  -2  -2  -2 72242.4 1430.30   1
  -2   2  -2 67285.3 2489.68   4
  -2   2  -2 72089.9 2467.77   5
  -2   2  -3 217916. 5066.26   4
   2   2   3 214639. 7172.73   6
  -2   2  -3 215690. 6129.71   8
   2   2   4 25609.4 1087.53   1
   2   2   4 21758.5 2327.34   6
  -2   2  -4 23224.6 2177.41   8
  -2   2  -4 23296.1 1703.51   4
   2   2   5 7328.36 1456.78   6
   2   2   5 7181.83 626.688   1
   2   2   5 8281.31 595.263   3
  -2   2  -5 7485.57 1431.27   8
  -2   2  -6 14410.9 2055.43   8
   2   2   6 16524.9 1003.54   1
  -2  -2  -6 15979.7 2035.85   8
   2   2   6 17174.1 2357.72   6
   2   2   7 44929.6 1827.70   1
  -2  -2  -7 48392.1 3865.85   8
  -2   2  -7 43721.8 3773.22   8
   2   2   7 43176.1 3828.05   6
   2   2   8 2483.30 870.754   6
  -2  -2  -8 3111.55 1143.91   8
   2   2   8 3757.16 540.982   1
  -2  -2  -8 3769.66 887.962   2
  -2   2  -8 3342.58 1114.76   8
   2   2   9 79095.2 2708.96   1
  -2   2  -9 79753.2 5845.88   8
  -2  -2  -9 67939.1 5250.56   8
  -2   2 -10 92939.4 6706.91   8
  -2  -2 -10 79860.9 6019.24   8
  -2   2 -11 23135.6 3646.18   8
  -2  -2 -11 27589.5 3703.76   8
   2   2  12 17282.8 3094.99   6
  -2  -2 -12 16189.2 3039.27   8
  -2   2 -12 21953.8 3602.39   8
   2   2  13 47400.6 5296.46   6
  -2  -2 -13 49943.8 5519.10   8
  -2   2 -13 40269.2 5336.81   8
  -2  -2 -14 44032.8 5407.65   8
  -2   2 -14 56525.2 6550.51   8
   2   2  14 53112.4 5754.40   6
  -2  -2 -15 9378.67 2621.19  12
   2   2  15 9826.70 2467.73   6
  -2  -2 -15 9312.90 2698.35   8
  -2   2 -15 1011.85 1199.47   8
  -2   2 -15 3591.71 1910.46  12
  -2   2 -15 5125.54 2791.15  14
  -2   2 -16 5183.14 2079.59   8
  -2   2 -16 5451.65 1836.92  12
  -2  -2 -17 8361.49 2584.40  12
  -2   2 -17 7608.26 2733.75  12
  -2  -2 -18 8098.94 2482.53  12
  -2   2 -18 13363.0 3293.52  12
  -2  -2 -19 7551.59 2814.12  11
  -2   2 -19 4124.14 1843.28  12
  -2  -2 -19 5042.57 2048.56  12
  -2  -2 -20 5794.66 2471.94  11
  -2   2 -20 3265.62 1965.72  12
  -2  -2 -20 4374.10 1743.66  12
  -2  -2 -21 4846.20 2166.73  11
   2   2  21 7336.74 2885.41  17
  -2   2 -21 4634.90 1833.98  12
  -2  -2 -21 3495.61 1410.99  12
   2   2  22 1348.66 1060.23  17
  -2  -2 -22 80.9327 588.175  12
  -2  -2 -22 1987.60 1364.03  11
  -2   2 -22 234.704 634.879  12
  -2  -2 -23 1183.81 1084.30  11
  -2   2 -23 256.420 476.129  12
   2   2  23 430.826 635.141  17
  -2  -2 -23 1242.50 931.154  12
  -2   3  23 1144.15 1014.24  17
   2   3 -22 1548.96 1132.29  12
   2  -3 -22-734.039 564.194  11
  -2   3  22 101.681 834.602  17
   2   3 -21 3392.32 1587.97  12
   2   3 -20 1220.45 922.907  12
   2   3 -19 15456.3 3374.23  12
   2   3 -19 14177.3 3773.38  14
   2   3 -18 39057.7 6050.15  14
   2   3 -18 37431.4 5224.95  12
   2   3 -17-420.707 797.260  12
   2   3 -17 560.550 1249.61  14
  -2  -3  17 938.842 1329.56  10
  -2  -3  16-414.632 1028.59  10
   2   3 -16 1793.57 1728.97  14
   2   3 -16 818.377 1176.39   8
   2   3 -16 1624.80 1527.57  12
   2   3 -15 13960.9 3205.94   8
   2   3 -15 13687.5 3710.85  14
  -2  -3  15 16616.6 3760.83  10
   2   3 -15 10936.9 2839.16  12
  -2  -3  14 74977.7 7542.09  10
   2   3 -14 51848.3 6593.34  14
   2   3 -14 61088.2 6449.84   8
   2   3 -13 783.974 794.655   8
   2   3 -12 296.069 731.580   8
   2   3 -11 61641.7 5604.80   8
   2   3 -10 212294. 9869.81   8
   2   3  -9 2032.75 985.787   8
   2   3  -8 6974.08 1621.27   8
   2   3  -7 2588.68 767.013   8
  -2   3   6 414422. 6395.08   5
  -2   3   5 1989.08 389.753   5
  -2   3   4 127329. 3012.57   5
   2   3  -4 128261. 4929.38   7
  -2   3   3 62317.9 4298.25   6
  -2   3   3 68284.3 2115.47   5
  -2   3   2 14179.2 1893.70   6
  -2   3   2 14091.9 946.475   5
  -2   3   1 35472.6 2770.61   6
  -2   3   1 31392.6 1482.70   5
  -2   3   0 127255. 3348.27   5
  -2   3  -1 32642.1 1781.08   5
  -2  -3  -1 31930.9 1220.66   1
  -2   3  -2 7285.89 878.437   4
  -2   3  -2 6782.97 847.088   5
   2   3   3 15369.7 2289.23   6
   2   3   3 11871.8 1017.35   3
  -2   3  -3 12267.1 1217.50   5
  -2   3  -3 12757.1 1245.93   4
  -2   3  -4 169565. 4994.66   4
   2   3   4 164328. 3922.66   3
  -2   3  -4 163522. 4789.56   5
   2   3   4 169579. 7582.42   6
  -2   3  -5 57241.9 3008.71   4
   2   3   5 50097.1 4280.03   6
  -2   3  -6 32380.6 3109.68   8
   2   3   6 30793.7 3572.08   6
  -2   3  -6 37046.5 2580.47   4
   2   3   7 17548.6 2846.44   6
  -2   3  -7 16963.3 2437.92   8
   2   3   8 160621. 8949.67   6
  -2   3  -8 161914. 8114.31   8
   2   3   9 6296.47 1863.85   6
  -2   3  -9 6418.43 1849.25   8
  -2   3 -10 8223.88 2211.87   8
   2   3  10 8642.03 2087.52   6
   2   3  11 12018.9 2670.10   6
  -2   3 -11 12387.3 2810.01   8
   2   3  12 43180.6 5249.76   6
  -2   3 -12 36311.4 4795.69   8
   2   3  13 2329.33 976.122   6
  -2   3 -13 1421.77 1373.17   8
  -2   3 -14 2075.60 2088.25  14
   2   3  14 325.290 1249.02   6
  -2   3 -14 3244.20 1848.85   8
  -2   3 -15 539.861 1322.83  12
  -2   3 -15 2137.75 1372.20   8
   2   3  15 1537.46 1406.70   6
  -2   3 -15 102.783 1252.17  14
  -2   3 -16 2064.02 1425.65  12
  -2   3 -16 2593.93 1083.02  14
  -2  -3 -16 2337.02 1570.82  11
  -2  -3 -17-81.7913 1189.92  11
  -2   3 -17 3393.98 1862.93  12
  -2  -3 -18 3611.91 1750.69  11
  -2   3 -18 2766.14 1550.38  12
  -2  -3 -19-1044.99 1287.74  11
   2   3  19 2527.42 2134.49  17
  -2   3 -19 1960.67 1205.67  12
  -2  -3 -20 6545.11 2262.96  11
   2   3  20 9333.01 3224.42  17
  -2   3 -20 4680.48 1838.53  12
   2   3  21 761.666 860.153  17
  -2   3 -21-204.847 816.190  12
  -2  -3 -21-160.540 1250.38  11
  -2  -3 -22 399.146 687.557  11
  -2   3 -22-195.628 686.821  12
   2   3  22-721.869 1080.47  17
   2   3  23-201.986 815.002  17
  -2   4  22 1432.81 1172.99  17
  -2   4  21 1365.46 1534.49  17
  -2   4  20 1099.66 1168.26  17
  -2   4  19 19235.8 4673.58  17
   2   4 -19 20522.4 1936.43  21
   2   4 -18 1396.12 1101.43  14
   2   4 -18 4250.93 1049.36  21
   2   4 -17 1711.99 1804.09  14
  -2  -4  17 364.063 1150.68  10
   2   4 -16 2628.90 2085.86  14
  -2  -4  16-163.040 1089.12  10
  -2  -4  15 78709.4 7960.75  10
   2   4 -15 64986.1 8178.56  14
  -2  -4  14 25820.4 4378.13  10
  -2   4  14 30789.8 5394.84   6
   2   4 -14 19426.3 4435.27  14
  -2   4  13 22950.4 4588.62   6
   2   4 -13 16175.8 3497.58  14
  -2  -4  13 20081.9 3773.01  10
  -2   4  12 23741.3 4517.54   6
  -2   4  11-621.615 1968.98   6
  -2   4  10-118.606 1128.04   6
  -2   4   9 106196. 8464.72   6
  -2   4   8 4234.07 1873.28   6
  -2   4   7 9367.30 2285.65   6
  -2   4   6 3818.38 1246.43   6
  -2   4   5 439138. 14569.1   6
  -2   4   4 15267.6 1097.82   5
  -2   4   4 16057.6 2662.52   6
  -2   4   3 38271.8 1739.98   5
  -2   4   3 33151.4 3502.26   6
  -2   4   2 40377.6 1781.37   5
  -2   4   2 41257.6 3726.67   6
  -2   4   1 130185. 3462.69   5
  -2   4   0 23059.0 1478.45   5
   2   4   0 25168.3 1873.97   3
   2   4   1 910.828 411.665   3
  -2   4  -1 494.652 213.968   5
  -2   4  -2 16840.1 1480.47   5
   2   4   2 17555.0 1537.98   3
   2   4   3 113703. 3962.33   3
  -2   4  -3 108637. 4099.73   5
  -2   4  -4 689.727 413.749   5
  -2   4  -5 2370.58 699.374   5
   2   4   5 6293.77 2032.55   6
  -2   4  -6 2747.89 814.751   5
   2   4   6 2624.58 1526.52   6
  -2   4  -7 2561.78 859.560   5
   2   4   7 2657.90 1267.94   6
   2   4   8-105.426 1081.09   6
   2   4   9 175850. 10495.1   6
   2   4  10 26045.2 4171.84   6
   2   4  11 37764.4 5220.35   6
  -2   4 -12 11620.8 3166.73  14
   2   4  12 7970.66 2755.70   6
   2   4  12 5883.05 2691.70  17
   2   4  13 2616.06 2034.55  17
  -2   4 -13-1609.59 1722.26  14
   2   4  13 3582.40 1945.58   6
   2   4  14 28622.8 6085.38  17
   2   4  14 26468.2 4426.72   6
  -2   4 -14 11409.0 3170.82  14
   2   4  15 7956.43 3037.52  17
  -2  -4 -15 4844.99 1922.01  11
  -2   4 -15 6872.73 3042.08  14
  -2   4 -16 7641.60 2723.90  14
   2   4  16 7315.07 3353.37  17
  -2  -4 -16 4248.45 1628.80  11
  -2   4 -17 6112.41 2632.08  14
  -2  -4 -17 6241.48 2358.46  11
   2   4  17 5476.08 2729.26  17
  -2  -4 -18 6160.08 2038.56  11
   2   4  18 6068.57 2914.56  17
   2   4  19 4450.33 2345.89  17
  -2  -4 -19 5037.16 1800.17  11
  -2  -4 -20 5155.22 1863.78  11
   2   4  20 3029.63 1701.51  17
  -2  -4 -21 464.148 694.464  11
   2   4  21 125.908 748.488  17
   2   4  22 4909.28 1769.31  17
  -2   5  21 1118.96 916.228  17
   2   5 -20 577.504 227.398  21
  -2   5  20 4302.34 1919.19  17
   2   5 -19 3525.21 754.761  21
  -2   5  19 2901.56 1795.95  17
   2   5 -19 1316.38 1697.92  14
  -2   5  18 21905.3 4800.83  17
   2   5 -18 16852.8 3859.98  14
   2   5 -18 31451.8 2406.56  21
  -2   5  17 9768.43 3807.19  17
   2   5 -17 6272.12 2699.91  14
   2   5 -17 10275.9 1644.05  21
   2   5 -16 3964.87 2335.98  14
   2   5 -16 3859.83 1057.50  21
  -2   5  16 1153.72 1231.75  17
  -2   5  15 39452.4 6779.38  17
   2   5 -15 30367.9 2912.49  21
   2   5 -14 27901.9 2754.54  21
  -2   5  14 27541.5 5800.49  17
   2   5 -14 15273.2 3811.09  14
   2   5 -13 4515.48 2554.39  14
   2   5 -13 9358.22 1692.34  21
  -2   5  13 7120.28 2401.95   6
  -2   5  13 10822.4 3455.29  17
  -2   5  12 1416.70 1613.76  17
   2   5 -12 4444.05 2945.38  13
   2   5 -12 329.199 1629.60  14
  -2   5  12-888.238 1300.80   6
  -2   5  11 759.513 1002.23   6
   2   5 -11-3449.69 2689.88  13
   2   5 -10 14915.0 4153.49  13
  -2   5  10 13581.9 3270.94   6
  -2   5   9 5294.21 2146.18   6
  -2   5   8 2138.81 1495.73   6
  -2   5   7 1302.54 959.671   6
  -2   5   6 27927.6 4125.23   6
  -2   5   5 20641.9 3366.20   6
  -2   5   4 21565.7 3398.52   6
  -2   5  -2 881.066 338.047   5
  -2   5  -3 1364.49 485.321   5
  -2   5  -4 125499. 4916.54   5
  -2   5  -5 112349. 4932.79   5
  -2   5  -6 25012.0 2440.39   5
  -2   5  -7 2766.31 887.487   5
  -2   5  -8 52017.2 3834.73   5
   2   5   9 82484.0 7749.51   6
  -2   5  -9 76924.4 4758.40   5
  -2   5 -10 5381.27 1081.78  21
  -2   5 -10 4507.80 1292.77   5
   2   5  10 5713.14 2491.61  17
  -2   5 -10 4723.37 2459.82  14
   2   5  10 5694.15 2357.26   6
  -2   5 -11-8.63632 347.612  21
  -2   5 -11 2371.11 1958.38  14
   2   5  11 216.198 1288.54  17
   2   5  11 1290.32 1392.38   6
  -2   5 -11 261.995 556.732   5
  -2   5 -12 205.159 441.169   5
   2   5  12 944.767 1778.53  17
  -2   5 -12 560.186 1060.82  14
  -2   5 -12 732.160 387.447  21
   2   5  12 1303.37 1570.33   6
  -2   5 -13 47787.8 6752.87  14
   2   5  13 61931.3 8991.47  17
   2   5  14 1688.34 1112.07  17
  -2   5 -14 2876.66 1816.74  14
  -2   5 -15 4932.15 2672.98  14
   2   5  15 7354.59 3191.75  17
  -2   5 -16 754.716 1034.78  14
   2   5  16 1117.75 1293.10  17
   2   5  17 12594.7 3914.93  17
  -2   5 -17 13661.7 3717.68  14
   2   5  18 1029.19 1704.04  17
   2   5  19 12601.3 3578.98  17
   2   5  20 5964.45 2148.64  17
   2   5  21-6.08247 842.660  17
   2   6 -19 960.623 343.444  21
   2   6 -19 2090.75 1427.98  14
   2   6 -18 2534.42 1573.56  14
   2   6 -18 2937.94 658.946  21
  -2   6  18 3060.46 1847.16  17
   2   6 -17 9811.54 1354.63  21
  -2   6  17 7477.26 2825.78  17
   2   6 -17 4436.71 2019.64  14
  -2   6  16 6608.93 2516.94  17
   2   6 -16 8038.83 1416.63  21
   2   6 -16 8382.83 3171.83  14
  -2   6  15-164.172 932.373  17
   2   6 -15 162.526 395.522  21
   2   6 -14 426.530 368.077  21
   2   6 -14 430.404 1234.78  14
   2   6 -13 7497.16 1554.71  21
   2   6 -13 3068.59 2274.17  14
   2   6 -12 1660.49 791.060  21
   2   6 -12 1801.60 1280.16  14
   2   6 -12 6038.48 4031.92  13
   2   6 -11-2816.96 1648.82  14
   2   6 -11-171.619 341.947  21
   2   6 -11 301.787 2179.37  13
  -2   6  10 2144.37 1439.66   6
   2   6 -10 546.357 432.722  21
  -2   6   9 18108.1 3915.68   6
   2   6  -9 16591.0 5251.03  13
  -2   6   9 15071.0 1892.22  20
   2   6  -9 17197.6 2183.31  21
  -2   6   8 7539.25 1382.88  20
  -2   6   8 12303.2 3238.56   6
   2   6  -8 12312.0 4509.52  13
   2   6  -8 8872.08 1648.25  21
   2   6  -7 69526.2 9781.12  13
   2   6  -7 62571.6 3996.56  21
  -2   6   7 61179.2 3732.01  20
  -2   6   6 32450.8 2719.84  20
   2   6  -6 32622.3 2803.64  21
   2   6   6 124649. 11621.5  17
  -2   6  -6 164576. 13910.7  13
   2   6   7 10143.6 3680.06  17
  -2   6  -7 10264.9 3809.11  13
   2   6   8 7921.37 3349.09  17
  -2   6  -8 15955.3 4833.88  13
  -2   6  -8 11166.7 1626.35  21
  -2   6  -9-285.841 388.164  21
   2   6   9 2041.26 2479.55  17
  -2   6  -9 808.555 1100.79  14
  -2   6 -10 15486.2 2021.92  21
  -2   6 -10 12443.4 3149.68  14
   2   6  10 19771.6 5154.38  17
   2   6  11 2299.49 1992.89  17
  -2   6 -11 785.540 306.843  21
  -2   6 -11 1436.85 1468.09  14
  -2   6 -12 3145.39 2592.97  14
  -2   6 -12 1511.63 577.530  21
   2   6  12 1282.93 1907.23  17
  -2   6 -13 8609.44 3079.22  14
   2   6  13 11279.7 4125.13  17
   2   6  14 45554.5 7543.59  17
  -2   6 -14 30724.3 5332.03  14
   2   6  15 4435.51 2702.85  17
  -2   6 -15 4004.87 1915.09  14
   2   6  16 2698.40 2009.42  17
  -2   6 -16 3660.59 2076.96  14
   2   6  17 3889.31 2179.72  17
   2   6  18 12803.3 3212.52  17
   2   6  19-867.461 1111.41  17
   2   7 -18 392.408 809.576  14
   2   7 -17-289.915 1188.78  14
   2   7 -16 4556.11 1998.21  14
   2   7 -16 7802.69 1193.51  21
   2   7 -15 5973.55 2326.19  14
   2   7 -15 9495.26 1417.84  21
   2   7 -14-458.787 1564.50  14
   2   7 -14 445.004 465.672  21
   2   7 -13 7373.79 2702.66  14
   2   7 -13 6633.04 1433.59  21
   2   7 -12 11741.8 3667.74  14
   2   7 -12 17077.8 2125.20  21
   2   7 -11 26415.1 6626.26  13
   2   7 -11 13835.6 4008.44  14
   2   7 -11 22772.1 2626.26  21
   2   7 -10 1916.83 1220.97  14
   2   7 -10 5173.66 3568.01  13
   2   7 -10 3702.33 1057.86  21
   2   7  -9 13448.9 4668.49  13
   2   7  -9 11638.8 1875.31  21
  -2   7   8 1188.68 641.790  20
   2   7  -8 1343.75 724.752  21
   2   7  -8 2553.27 3250.40  13
   2   7  -7 9.51686 390.501  21
   2   7  -7 86.5748 1624.31  13
  -2   7   7 126.519 424.388  20
   2   7  -6-930.811 2543.00  13
   2   7  -6-6.47809 411.882  21
  -2   7   6 170.117 278.632  20
   2   7  -5 2846.20 946.744  21
   2   7  -5 4459.43 3409.67  13
  -2   7   5 3643.04 995.173  20
   2   7  -4 33467.6 7298.30  13
  -2   7   4 24919.8 2604.07  20
  -2   7   3 4776.84 1116.29  20
   2   7  -3 3137.53 1560.60  13
  -2   7   2 46542.3 3603.84  20
  -2   7   1 3637.64 1114.25  20
   2   7  -1 3503.18 868.518  20
  -2   7   0 26221.5 2704.54  20
   2   7   0 21031.5 2243.00  20
  -2   7  -1 28780.7 2865.83  20
  -2   7  -2 35064.9 3148.94  20
  -2   7  -3 4110.80 1068.72  20
  -2   7  -4 1895.17 816.787  20
  -2   7  -5 72082.4 4652.80  20
  -2   7  -6 15259.0 4672.76  13
  -2   7  -6 13480.2 2032.88  20
   2   7   7 23049.5 5384.01  17
  -2   7  -7 28532.2 6654.09  13
   2   7   8 1469.64 1442.30  17
   2   7   9 61676.8 8816.87  17
   2   7  10 146.583 1580.58  17
   2   7  11 1630.07 1913.32  17
  -2   7 -11 212.572 1267.77  14
   2   7  12-1135.39 1445.63  17
  -2   7 -12-974.863 1026.68  14
  -2   7 -13 5514.56 2023.95  14
  -2   7 -13 9554.30 1417.35  20
   2   7  13 11163.1 3475.69  17
  -2   7 -14 2.82313 1123.69  14
   2   7  14-975.902 1319.99  17
  -2   7 -14-260.074 354.749  20
   2   7  15 12736.1 3467.86  17
  -2   7 -15 14273.9 3095.79  14
   2   7  16-432.721 1010.89  17
   2   7  17 2388.72 1312.35  17
   2   8 -15 1196.56 1087.21  14
   2   8 -15 1396.07 439.805  20
   2   8 -14 593.646 885.907  14
   2   8 -13 5454.53 2340.52  14
   2   8 -12-534.344 1296.52  14
   2   8 -11 3332.93 1655.29  14
   2   8 -10 2405.13 1937.75  14
   2   8  -9 23231.2 5687.65  13
   2   8  -9 14808.6 3661.20  14
   2   8  -8 6505.21 2473.68  14
   2   8  -8 5163.26 3539.89  13
   2   8  -7 11050.7 4483.14  13
  -2   8   7 12404.7 1734.86  20
  -2   8   6 11254.0 1734.78  20
   2   8  -6 13189.6 4793.57  13
   2   8  -5 331.906 538.987  20
  -2   8   5 562.342 508.227  20
   2   8  -5 1317.69 2267.85  13
   2   8  -4 26066.2 6350.62  13
  -2   8   4 22728.5 2496.77  20
   2   8  -4 19892.9 2341.94  20
   2   8  -3 14732.1 1993.05  20
  -2   8   3 16502.0 2162.17  20
   2   8  -3 13286.0 4846.23  13
   2   8  -2 928.022 399.055  20
   2   8  -2 955.065 1871.39  13
  -2   8   2 1601.98 542.950  20
   2   8  -1 11797.2 1714.07  20
  -2   8   1 12884.8 1920.61  20
   2   8  -1 11042.4 4008.30  13
  -2   8   0 33077.5 3134.22  20
   2   8   0 41046.1 7791.71  13
   2   8   0 32265.3 2799.86  20
   2   8   1 58014.0 9096.60  13
  -2   8  -1 52284.0 3990.11  20
  -2   8  -2 2391.14 851.653  20
  -2   8  -3 507.566 460.875  20
  -2   8  -4 2154.49 899.345  20
  -2   8  -5 31344.0 3082.41  20
  -2   8  -6-7.71532 458.235  20
  -2   8  -7 850.651 619.604  20
  -2   8  -8-138.998 325.957  20
  -2   8  -9 386.466 497.855  20
  -2   8 -10 671.586 442.048  20
  -2   8 -11 535.943 425.944  20
  -2  -8 -11-89.9134 1043.41  16
  -2   8 -12 1916.47 688.397  20
  -2  -8 -12 2881.70 1671.42  16
  -2  -8 -13 2002.34 1323.92  16
  -2   8 -13 178.308 280.600  20
  -2   8 -14 12929.5 1183.67  20
  -2  -8 -14 6401.15 2040.28  16
   2   9 -11 743.115 430.561  20
   2   9 -10 13282.8 1488.62  20
   2   9 -10 6668.73 2143.03  14
   2   9  -9 6433.45 1114.76  20
   2   9  -9 3407.50 1653.38  14
   2   9  -8 2578.35 750.871  20
   2   9  -7 7887.41 3202.93  13
   2   9  -7 5388.80 1093.00  20
  -2   9   6 17566.6 1795.19  20
   2   9  -6 19658.0 2047.09  20
   2   9  -6 18759.3 4789.15  13
   2   9  -5 2106.44 2083.54  13
  -2   9   5 1870.26 709.717  20
   2   9  -5 1644.99 548.353  20
   2   9  -4 17029.1 1913.27  20
  -2   9   4 19993.5 2079.36  20
  -2   9   3 480.116 453.056  20
   2   9  -3 688.474 441.276  20
   2   9  -2 235.125 315.268  20
  -2   9   2-130.659 409.828  20
   2   9  -1 12540.5 1595.53  20
  -2   9   1 12180.9 1718.24  20
   2   9  -1 15914.1 4041.25  13
   2   9   0 13068.6 4418.94  13
  -2   9   0 12346.0 1729.53  20
   2   9   1 19958.2 4649.64  13
  -2   9  -1 19663.6 2200.38  20
  -2   9  -2 2853.27 903.694  20
  -2   9  -3 48002.9 3484.20  20
  -2   9  -4 28489.1 2699.10  20
  -2   9  -5 803.374 505.277  20
  -2   9  -6 4316.23 1052.55  20
  -2   9  -7 5353.04 1110.66  20
  -2   9  -8 9752.54 1410.78  20
  -2   9  -9 297.097 246.891  20
  -2   9 -10 329.059 353.511  20
  -2   9 -11 251.626 234.699  20
  -2  10   3 187.897 306.959  20
  -2  10   2 6233.68 924.443  20
  -2  10   1 1820.79 533.760  20
  -2  10   0 3360.03 711.561  20
  -2  10  -1 699.716 314.368  20
  -2  10  -2 19644.6 1718.70  20
  -2  10  -3 2448.68 614.643  20
  -2  10  -4 125.513 179.590  20
  -2  10  -5 2398.75 508.153  20
   3   0 -24 313.916 637.907  12
   3   0 -23 1573.78 1247.06  12
   3   0 -22 17187.7 3252.33  12
   3   0 -21-154.788 1109.56  12
   3   0 -20 3754.69 1940.15  12
   3   0 -19 437.952 865.160  12
   3   0 -18 16136.9 3778.60  12
  -3   0  17-415.339 630.753  18
   3   0 -17-1745.91 1199.38   8
  -3   0  16 35386.8 4253.58  18
   3   0 -16 31814.3 4836.41   8
   3   0 -15-750.320 1175.18   8
   3   0 -14 10952.8 2858.72   8
   3   0 -13-1278.25 1212.84   8
   3   0 -12 62274.0 5574.37   8
   3   0 -11-440.833 898.434   8
   3   0 -10 20797.5 2865.94   8
  -3   0   9 131.480 197.640   1
  -3   0   8 263674. 4989.82   1
   3   0  -8 242171. 8665.16   7
   3   0  -7-261.294 339.554   7
   3   0  -7 134.072 117.137   4
  -3   0   7 147.946 190.982   1
   3   0  -6 24010.0 2280.55   7
   3   0  -6 21821.5 896.761   4
  -3   0   6 23063.3 1162.93   1
  -3   0   5 409.708 173.512   2
   3   0  -5 64.8974 352.791   7
  -3   0   5 311.259 132.218   1
  -3   0   4 225220. 3137.25   2
  -3   0   4 242207. 3534.97   1
  -3   0   3 890.335 181.021   1
  -3   0   2 37488.9 1007.70   1
  -3   0   2 42240.9 1277.80   5
   3   0  -1 267.476 103.296   1
   3   0   0 134166. 1804.48   1
  -3   0  -1-137.605 308.508   2
  -3   0  -2 138035. 3656.20   2
  -3   0  -3 381.573 295.495   2
  -3   0  -3 1662.59 344.961   5
  -3   0  -4 3704.36 743.978   2
  -3   0  -5-9.95421 286.446   2
  -3   0  -5 545.292 598.127   8
   3   0   6 496837. 5300.88   3
  -3   0  -6 504124. 10205.2   2
  -3   0  -6 496118. 12665.0   8
  -3   0  -7-62.2030 363.609   2
  -3   0  -7 667.128 694.590   8
  -3   0  -8 211435. 6995.87   2
  -3   0  -8 210736. 9140.77   8
  -3   0  -9 442.987 735.418   8
  -3   0 -10 3718.16 1779.84   8
  -3   0 -11 1825.94 1214.13   8
  -3   0 -12 196676. 11108.8   8
  -3   0 -13-592.068 980.734   8
  -3   0 -14 17555.9 3543.32   8
  -3   0 -15-3197.69 2170.98   8
  -3   0 -15 1593.46 1590.32  12
  -3   0 -16 46462.4 6000.48  12
  -3   0 -16 50071.0 6287.36   8
  -3   0 -17 182.592 1055.98   8
  -3   0 -17 2497.12 1662.92  12
  -3   0 -18-1665.84 1373.65  11
  -3   0 -18-85.5583 732.745  12
  -3   0 -19 253.751 1241.75  11
  -3   0 -19 1400.02 1301.73  12
  -3   0 -20 26053.2 4673.05  11
  -3   0 -20 22981.4 4034.71  12
  -3   0 -21-648.508 1000.50  11
  -3   0 -21-1172.03 1128.84  12
  -3   0 -22 696.897 939.044  11
  -3   0 -22 241.909 614.857  12
  -3   0 -23 591.454 835.177  12
  -3   0 -23-233.755 647.757  11
   3  -1 -24 183.067 806.131  11
   3   1 -24 1214.44 905.549  12
   3   1 -23 1838.98 994.497  12
   3  -1 -23 1217.49 913.586  12
   3   1 -22 1281.48 1099.96  12
   3  -1 -22 3200.49 1463.85  12
   3  -1 -21 15913.5 3281.37  12
   3   1 -21 11322.8 2768.24  12
   3  -1 -20 477.686 1032.45  12
   3   1 -20-420.608 944.670  12
   3   1 -19 2082.09 1314.94  12
   3  -1 -19 1593.75 1635.20  12
   3   1 -18 630.500 1062.56  12
   3  -1 -18 601.019 1366.36  12
   3  -1 -17 38866.2 5442.09  12
  -3  -1  17 50424.2 5240.67  18
  -3  -1  17 52024.6 7563.28  10
   3  -1 -17 38526.0 5331.45   8
   3   1 -17 37522.1 5379.65   8
   3  -1 -16 8077.68 2370.22   8
  -3   1  16 10181.9 2406.71  18
   3   1 -16 5585.63 2318.76   8
  -3  -1  16 6410.50 2761.69  10
  -3  -1  16 7779.89 1986.20  18
  -3  -1  15 2661.94 1473.43  10
   3  -1 -15 774.364 804.002   8
  -3  -1  15 847.735 490.219  18
   3   1 -15-518.036 1189.80   8
  -3   1  15 2042.03 1143.68  18
   3  -1 -14 1238.39 902.798   8
   3   1 -14 1984.70 1411.95   8
   3  -1 -13 65648.3 6019.81   8
   3   1 -13 64231.3 6112.62   8
   3  -1 -12 5622.34 1740.90   8
   3   1 -12 3456.62 1546.29   8
   3   1 -11 15393.0 2731.04   8
   3  -1 -11 13904.9 2521.48   8
   3   1 -10 245.065 1002.68   8
   3  -1 -10 1426.66 836.459   8
   3  -1  -9 20267.7 2533.02   8
  -3   1   8 156603. 3849.56   1
   3   1  -8 146033. 6865.49   7
   3   1  -8 146061. 3614.09   4
   3   1  -7 47177.8 3639.02   7
   3  -1  -7 51557.3 3530.85   7
  -3   1   7 53113.2 2065.36   1
   3   1  -7 49984.6 1883.07   4
   3  -1  -6 667.420 563.983   7
  -3   1   6 485.472 194.486   1
   3   1  -6 567.047 206.370   4
   3   1  -6 647.140 540.481   7
   3  -1  -5 193.681 330.072   7
  -3   1   5 865.019 286.495   5
   3   1  -5 1280.53 481.094   7
  -3   1   5 814.036 220.172   1
   3  -1  -4 10619.2 1221.32   7
   3   1  -4 13191.5 1475.61   7
  -3   1   4 10192.5 738.716   1
   3  -1  -3 132222. 2567.54   1
  -3  -1   3 135825. 2829.77   4
   3  -1  -2 5911.88 483.405   1
   3  -1  -2 5964.62 326.229   2
  -3   1   1 12671.7 609.287   4
   3  -1  -1 12173.8 674.884   2
   3  -1  -1 13110.8 708.263   1
  -3  -1   1 12566.7 352.929   1
   3  -1   0 35230.2 1433.30   2
   3  -1   1 53098.8 1976.75   2
   3  -1   2 165558. 3955.03   2
   3   1   2 157938. 1750.20   1
   3   1   3 141396. 4780.26   6
   3  -1   3 139774. 3175.66   3
   3   1   3 139794. 1938.89   1
  -3   1  -3 139787. 3518.67   5
  -3   1  -4 65641.4 3950.56   8
   3   1   4 69664.7 3470.45   6
   3   1   4 65252.0 1455.94   1
   3  -1   4 70845.5 2123.69   3
   3   1   5 2395.45 324.775   1
  -3   1  -5 2102.38 678.404   8
   3   1   5 2143.62 638.124   6
   3  -1   5 2260.82 363.993   3
   3   1   6 175606. 6471.25   6
   3   1   6 182779. 3247.33   1
  -3   1  -6 179172. 7467.89   8
  -3  -1  -6 171926. 5635.21   2
  -3  -1  -6 182113. 7517.60   8
  -3   1  -7 61345.5 4689.89   8
   3   1   7 55562.6 3857.52   6
  -3  -1  -7 59992.4 3456.54   2
   3   1   7 59565.1 1939.95   1
  -3  -1  -7 58896.0 4473.64   8
  -3  -1  -8 73.0509 774.453   8
  -3  -1  -8-623.075 484.399   2
   3   1   8-275.187 390.004   6
  -3   1  -8-432.202 933.775   8
   3   1   8 515.896 259.556   1
  -3  -1  -9 4500.34 1555.99   8
  -3   1  -9 3825.85 1441.01   8
   3   1   9 4815.08 695.137   1
  -3   1 -10 13587.2 2748.68   8
  -3  -1 -10 14521.2 2836.58   8
  -3  -1 -11 77035.2 6501.07   8
  -3   1 -11 88586.6 7193.81   8
  -3   1 -12 4762.67 2078.17   8
  -3  -1 -12 4422.88 2033.55   8
  -3   1 -13 34052.5 4935.50   8
  -3  -1 -13 29436.5 4448.57   8
  -3   1 -14-422.807 1519.63   8
  -3  -1 -14 549.855 1032.53   8
  -3  -1 -15 4153.81 2157.92  12
  -3   1 -15 1701.31 1523.02   8
  -3   1 -15 5335.71 2230.26  12
  -3  -1 -15 5954.66 2278.71   8
  -3   1 -16 5606.23 2193.85   8
  -3  -1 -16 10286.2 2842.15  12
  -3   1 -16 7273.72 2515.18  12
  -3  -1 -17 45681.0 5830.57  12
  -3   1 -17 48747.6 6275.46  12
  -3   1 -18 3261.45 2156.66  11
  -3  -1 -18 2536.82 1741.55  11
  -3  -1 -18 3273.61 1702.63  12
  -3   1 -18 1473.50 1240.81  12
  -3  -1 -19 981.968 1434.52  11
  -3  -1 -19 549.129 1391.29  12
  -3   1 -19 412.543 1199.47  12
  -3   1 -19-162.139 947.175  11
  -3   1 -20 1113.17 1557.63  11
  -3  -1 -20 809.684 1099.46  11
  -3  -1 -20 3850.84 1730.95  12
  -3   1 -20 631.706 814.457  12
   3   1  21 8539.53 2542.59  17
  -3   1 -21 7278.92 2317.13  11
  -3  -1 -21 5234.97 2029.65  11
  -3  -1 -21 5517.21 1823.64  12
  -3   1 -21 5603.72 2090.41  12
  -3  -1 -22 658.178 553.262  12
  -3  -1 -22 503.635 635.751  11
   3   1  22-439.420 896.439  17
  -3   1 -22 885.579 802.984  12
  -3   1 -22 832.572 928.393  11
  -3   1 -23 839.112 837.757  11
  -3  -1 -23 939.055 908.085  11
  -3   1 -23-453.437 788.010  12
  -3  -1 -23-768.947 605.965  12
   3  -2 -23 2196.03 922.229  12
   3   2 -23-28.6422 636.950  12
   3   2 -22 3422.08 1268.61  12
   3  -2 -22 3659.27 1509.08  12
   3  -2 -21 7515.88 2179.36  12
   3   2 -21 3498.86 1550.87  12
   3   2 -20 26.9840 942.668  12
   3  -2 -20-480.649 804.962  12
   3   2 -19 2085.86 1550.25  12
   3  -2 -19 4634.93 1929.40  12
   3   2 -18 14303.6 3451.69  12
   3  -2 -18 11274.7 2976.97  12
   3  -2 -17 11927.8 2952.66  12
  -3  -2  17 14326.4 2747.38  18
  -3  -2  17 16485.1 4102.42  10
   3   2 -17 10045.0 3100.87  12
   3  -2 -16 1271.94 981.544  12
   3   2 -16 4212.44 1861.80   8
  -3  -2  16 2211.77 1046.08  18
  -3  -2  16 2818.97 2294.66  10
   3   2 -16 3375.12 2180.38  14
  -3  -2  15 7754.43 1740.20  18
  -3  -2  15 11072.4 3048.13  10
   3   2 -15 7959.86 2448.98   8
  -3   2  15 9989.38 2194.00  18
   3  -2 -14 11653.5 2687.65   8
   3   2 -14 8608.52 2467.72   8
   3  -2 -13 3565.31 1372.27   8
   3   2 -13 3749.99 1977.09   8
   3  -2 -12 14797.9 2870.44   8
   3   2 -12 17864.4 3187.83   8
   3  -2 -11 137013. 7580.53   8
   3   2 -11 137778. 8192.12   8
   3  -2 -10 72102.2 5162.75   8
   3   2 -10 85728.1 6057.36   8
   3  -2  -9 4332.71 1269.08   8
   3  -2  -8 56905.0 3914.90   8
   3   2  -7 414211. 11516.7   7
  -3   2   7 447573. 7615.17   1
   3  -2  -7 421743. 10509.8   8
   3   2  -6 3655.54 1001.44   7
  -3   2   6 4298.68 608.139   5
  -3   2   6 3921.79 623.676   1
   3  -2  -5 11535.8 1402.51   7
   3   2  -5 14908.9 1822.00   7
  -3   2   5 12633.3 978.989   5
   3  -2  -4 95944.1 3628.60   7
   3  -2  -4 88866.7 1953.80   4
   3   2  -4 100920. 4337.22   7
  -3   2   4 93568.6 2597.94   5
  -3   2   3 114276. 2832.58   5
  -3   2   2 750.359 234.890   5
  -3   2   1 3533.70 472.403   5
  -3   2   0 13056.4 902.799   4
  -3   2   0 12654.1 951.786   5
  -3  -2   0 13947.4 505.460   1
  -3   2  -1 110953. 3150.28   5
  -3  -2  -1 114537. 1547.00   1
  -3   2  -1 115306. 3155.57   4
  -3   2  -2 31177.3 1794.19   4
  -3   2  -2 33892.6 1823.98   5
  -3   2  -3 196554. 4833.50   5
  -3   2  -3 190977. 5004.74   4
  -3   2  -4 130597. 4034.69   5
   3   2   4 126202. 5755.15   6
   3   2   5 68250.0 4438.43   6
   3   2   5 79223.0 2003.39   1
  -3   2  -5 72495.8 4467.33   8
   3   2   6 225.849 494.831   6
   3   2   6 761.710 211.081   1
  -3   2  -6 220.835 624.309   8
   3   2   7 358596. 11154.4   6
  -3   2  -7 344922. 11487.8   8
  -3   2  -8 19764.4 2849.11   8
   3   2   8 10838.0 2080.58   6
  -3   2  -9 4162.18 1716.54   8
   3   2   9 5148.54 1599.13   6
   3   2  10 45846.5 4608.53   6
  -3   2 -10 51880.0 5324.46   8
   3   2  11 61561.5 5431.03   6
  -3   2 -11 60032.5 5993.02   8
   3   2  12 102463. 7266.85   6
  -3   2 -12 106214. 8224.76   8
   3   2  13 2538.83 1577.31   6
  -3   2 -13 2269.84 1750.06   8
  -3   2 -14 45183.3 6050.47  14
  -3   2 -14 49547.1 6049.91   8
  -3   2 -15 21594.8 4035.37   8
  -3  -2 -15 27929.0 4076.41  12
  -3   2 -15 19538.3 3782.49  12
  -3  -2 -16 11182.9 3134.97  11
  -3   2 -16 16538.7 3670.57   8
  -3   2 -16 15884.9 3438.26  12
  -3  -2 -16 12629.9 2856.86  12
  -3  -2 -17 7226.82 2412.69  11
  -3  -2 -17 6825.86 2205.87  12
  -3   2 -17 9440.61 2830.12  12
  -3  -2 -18 939.790 1312.99  11
  -3  -2 -18 1747.03 1482.44  12
  -3   2 -18 766.951 819.772  12
  -3  -2 -19 6095.03 2472.61  11
  -3  -2 -19 6702.97 2105.15  12
  -3   2 -19 6239.85 2163.60  12
   3   2  20 1625.57 1728.92  17
  -3  -2 -20 1874.08 1254.98  11
  -3  -2 -20 2497.34 1520.85  12
  -3   2 -20 1597.17 1094.73  12
  -3  -2 -21-816.289 781.344  11
   3   2  21-1079.44 1183.46  17
  -3  -2 -21-947.453 946.737  12
  -3   2 -21-2308.04 1409.30  12
  -3  -2 -22 4510.73 1736.76  11
   3   2  22 4893.70 1894.53  17
  -3  -2 -22 4443.58 1410.06  12
  -3   2 -22 1666.72 980.408  12
  -3  -2 -23-905.527 819.611  11
  -3   2 -23 824.275 709.912  12
  -3   3  23 1809.21 1235.26  17
   3  -3 -22-343.891 876.931  11
  -3   3  22 1253.68 1464.05  17
   3   3 -22 2029.44 1058.30  12
   3   3 -21 5165.61 1705.66  12
   3   3 -20 10897.8 2627.01  12
   3   3 -19-723.310 1117.80  12
   3   3 -19 3381.18 1865.04  14
   3   3 -18-935.745 1699.22  14
   3   3 -18 2812.82 1736.40  12
  -3  -3  18 4495.71 2479.60  10
  -3  -3  17 994.442 1220.23  10
   3   3 -17-2156.61 1316.81  14
   3   3 -17-836.503 1240.76  12
   3   3 -16 7185.49 2885.67  14
  -3  -3  16 5476.08 2583.47  10
   3   3 -16 4317.44 1974.69  12
   3   3 -16 5759.52 2487.33   8
   3   3 -15 4829.56 2372.39  14
   3   3 -15 3181.20 1798.76   8
  -3  -3  15 1533.35 1768.74  10
  -3  -3  14 4797.85 2449.90  10
   3   3 -14 3083.66 1961.87  14
   3   3 -14 5033.62 2127.13   8
   3   3 -13-180.277 1005.14   8
   3   3 -12 66711.9 6260.78   8
   3   3 -11 284.630 811.588   8
   3   3 -10 5254.34 1588.55   8
   3   3  -9 5644.71 1557.54   8
  -3   3   7 6099.97 831.545   5
   3   3  -6 130004. 6153.67   7
  -3   3   6 121623. 3425.91   5
   3   3  -5 7724.57 1485.47   7
  -3   3   5 8117.47 847.261   5
   3   3  -4 37717.1 2882.41   7
  -3   3   4 34888.9 1713.46   5
   3   3  -3 202825. 6194.75   7
  -3   3   3 165076. 3833.70   5
  -3   3   2 327503. 5607.64   5
  -3   3   2 331192. 9237.80   6
  -3   3   1 6883.97 755.127   5
  -3   3   1 7403.67 1192.25   6
  -3   3   0 3835.99 593.608   5
  -3   3  -1 39932.4 2095.42   5
  -3   3  -1 44758.3 2127.25   4
  -3   3  -2 103076. 3592.02   5
  -3   3  -2 104431. 3535.21   4
  -3   3  -3 55426.4 2735.01   4
  -3   3  -3 58182.9 2793.80   5
  -3   3  -4 45531.3 2663.36   4
  -3   3  -4 43057.8 2597.64   5
  -3   3  -5 50352.2 2984.82   4
   3   3   5 50378.8 4354.02   6
  -3   3  -5 52072.6 2922.92   5
  -3   3  -6 372576. 11374.6   8
   3   3   6 382046. 12742.6   6
  -3   3  -6 389122. 8765.93   5
  -3   3  -7 681.679 589.837   8
   3   3   7 516.838 1052.23   6
   3   3   8 23836.4 3419.60   6
  -3   3  -8 17561.2 2649.18   8
   3   3   9 7973.28 2071.48   6
  -3   3  -9 9276.25 2134.58   8
   3   3  10 101967. 7559.94   6
  -3   3 -10 95027.9 7048.52   8
   3   3  11 14099.4 2920.13   6
  -3   3 -11 9397.55 2272.30   8
  -3   3 -12 30103.3 4444.10   8
   3   3  12 37312.7 4790.02   6
   3   3  13 2096.64 1256.30   6
  -3   3 -13 953.778 1415.11  14
  -3   3 -13 1930.22 1312.78   8
  -3   3 -14-2699.55 2087.74   8
   3   3  14 1388.86 1148.86   6
  -3   3 -14-100.808 1775.90  14
  -3  -3 -14 360.539 856.394  11
  -3   3 -14 2948.76 1434.47  12
  -3  -3 -15 4434.53 2238.66  11
  -3   3 -15 3963.93 2114.55  14
  -3   3 -15 1138.12 1515.06   8
  -3   3 -15-1067.66 1159.40  12
  -3  -3 -16 6432.98 2362.01  11
  -3   3 -16 6537.23 2392.09  12
  -3  -3 -17 10185.9 2824.05  11
   3   3  17 10339.2 3716.70  17
  -3   3 -17 2677.76 1657.43  12
   3   3  18 1899.02 1048.30  17
  -3  -3 -18 271.059 775.784  11
  -3   3 -18 542.332 1055.47  12
   3   3  19-19.9430 857.158  17
  -3   3 -19-895.652 1432.29  12
  -3  -3 -19 831.455 962.017  11
   3   3  20 14710.2 3867.78  17
  -3  -3 -20 13309.2 3143.76  11
  -3   3 -20 9824.00 2314.98  12
  -3  -3 -21 1176.07 1065.22  11
  -3   3 -21 631.510 683.320  12
   3   3  21 640.411 809.305  17
  -3  -3 -22 3629.30 1371.41  11
   3   3  22 2530.59 1338.53  17
  -3   3 -22 3429.46 1246.43  12
  -3   4  22 3013.91 1539.55  17
  -3   4  21 3502.47 1794.88  17
   3   4 -21 5396.21 796.710  21
  -3   4  20-698.839 1137.70  17
   3   4 -20-186.673 350.327  21
   3   4 -19 2312.80 2143.77  14
   3   4 -19 2333.19 814.222  21
  -3  -4  18 443.078 892.625  10
   3   4 -18 1984.15 1559.42  14
   3   4 -17 13583.0 4082.40  14
  -3  -4  17 17110.3 4037.52  10
  -3  -4  16 3694.29 2203.53  10
   3   4 -16 904.733 1712.70  14
  -3  -4  15 3013.17 1950.87  10
   3   4 -15 3933.03 2148.66  14
  -3  -4  14 26779.3 4974.17  10
   3   4 -14 30919.2 5275.24  14
  -3   4  14 23626.5 4892.43   6
  -3  -4  13 7597.92 2586.41  10
   3   4 -13 1926.75 1708.42  14
  -3   4  13 9254.53 3092.40   6
  -3  -4  12 2233.85 1602.61  10
   3   4 -12 3123.56 1970.97  14
  -3   4  12 2780.70 1823.20   6
  -3   4   9 2913.71 1194.07   6
  -3   4   8 35011.1 4678.31   6
  -3   4   7 81971.8 6807.32   6
  -3   4   7 89248.7 3156.13   5
  -3   4   6 5397.63 1673.28   6
  -3   4   6 6287.80 784.137   5
  -3   4   5 30281.4 3811.15   6
  -3   4   5 38380.4 1949.31   5
  -3   4   4 63548.2 2519.97   5
  -3   4   4 60455.6 4860.98   6
  -3   4   3 285111. 10250.8   6
  -3   4   3 288630. 5671.43   5
  -3   4   2 729.955 656.196   6
  -3   4   2 826.145 355.772   5
  -3   4   1 1510.95 412.013   5
  -3   4   0 10115.8 1073.95   5
  -3   4  -1 146075. 4397.72   5
  -3   4  -2 6932.89 1010.93   5
   3   4   2 6011.17 902.587   3
  -3   4  -3 35312.6 2475.28   5
   3   4   3 35417.1 2173.53   3
  -3   4  -4 16785.1 1790.17   5
  -3   4  -5 45816.8 3027.61   5
  -3   4  -6 25263.9 2341.59   5
   3   4   7 324708. 13477.2   6
  -3   4  -7 312220. 8804.72   5
   3   4   8 2526.66 1761.81   6
  -3   4  -8 5928.50 1280.71   5
   3   4   9 18049.0 3382.85   6
  -3   4  -9 21178.5 2463.67   5
   3   4  10 1179.46 1234.88   6
  -3   4 -10 2133.79 980.899   5
  -3   4 -11 148390. 6807.17   5
   3   4  11 155597. 10293.0   6
   3   4  12 2876.62 1991.17  17
  -3   4 -12-1383.64 2263.53  14
   3   4  12 277.803 994.295   6
  -3   4 -12 748.325 638.908   5
   3   4  13 36384.3 6640.60  17
   3   4  13 26954.2 4598.34   6
  -3   4 -13 30146.3 3309.27   5
  -3   4 -13 34491.6 5221.38  14
   3   4  14-1199.58 1691.76  17
   3   4  14 480.173 890.294   6
  -3  -4 -14-2046.40 1565.07  11
  -3   4 -14 2215.27 2002.80  14
  -3   4 -14 746.936 459.369   5
  -3  -4 -15 56034.9 6492.12  11
  -3   4 -15 59387.6 7337.54  14
   3   4  15 63074.3 8849.24  17
   3   4  16 4947.44 2356.78  17
  -3   4 -16 3731.18 2628.23  14
  -3  -4 -16 5105.92 1943.01  11
  -3  -4 -17 13660.3 3392.87  11
   3   4  17 16219.6 4532.66  17
   3   4  18 1795.42 1684.02  17
  -3  -4 -18 3818.32 1532.75  11
  -3  -4 -19 4035.31 1712.47  11
   3   4  19 3701.81 2284.39  17
  -3  -4 -20 7909.60 2082.83  11
   3   4  20 9412.66 2851.27  17
   3   4  21 3128.04 1490.52  17
  -3  -4 -21 3023.31 1254.24  11
  -3   5  20 5851.34 2106.76  17
   3   5 -20 3436.76 649.194  21
  -3   5  19 4839.49 1943.04  17
   3   5 -19 6060.96 2539.47  14
   3   5 -19 7300.86 1140.90  21
  -3   5  18 3162.34 1947.53  17
   3   5 -18 1676.83 1131.25  14
   3   5 -18 1996.34 895.064  21
   3   5 -17 26395.7 5143.96  14
  -3  -5  17 32325.9 4736.05  10
  -3   5  17 46658.1 6976.70  17
   3   5 -17 51516.6 3375.82  21
  -3  -5  16 32387.2 5041.81  10
  -3   5  16 32858.4 5889.67  17
   3   5 -16 25488.6 4900.86  14
   3   5 -16 44608.3 3364.23  21
  -3   5  15 534.952 1839.89  17
   3   5 -15-615.735 1603.40  14
   3   5 -15 1899.49 815.815  21
  -3  -5  15 551.526 779.073  10
  -3  -5  14 3284.30 1955.89  10
   3   5 -14 1279.70 1576.59  14
   3   5 -13 20030.5 4093.82  14
  -3  -5  13 21385.7 4036.25  10
  -3  -5  12 12161.0 3094.92  10
   3   5 -12 23148.7 6175.95  13
  -3   5  12 17960.1 4043.57   6
   3   5 -11 9943.56 4407.18  13
  -3   5  11 8176.62 2567.18   6
  -3  -5  11 11307.3 3085.77  10
  -3  -5  10 19246.1 3638.79  10
  -3   5  10 17513.3 3674.08   6
   3   5 -10 26145.1 6111.80  13
  -3   5   9 2651.39 1139.07   6
  -3   5   8 3003.50 1767.11   6
  -3   5   7-903.306 1208.91   6
  -3   5   6-629.052 908.525   6
  -3   5   5 13414.9 2626.99   6
  -3   5   4 1740.16 1405.81   6
  -3   5   1 16258.3 1368.80   5
  -3   5   0 42532.3 2313.84   5
  -3   5  -1 1373.98 389.683   5
  -3   5  -2 125663. 4519.04   5
  -3   5  -3 117004. 4633.86   5
  -3   5  -4 1485.84 449.605   5
  -3   5  -5 650.785 375.671   5
  -3   5  -6 70649.2 4183.26   5
  -3   5  -7 23042.6 2495.86   5
  -3   5  -8 359.298 568.527   5
  -3   5  -9 12683.7 1991.38   5
   3   5   9 17803.7 4906.67  17
   3   5  10 1725.41 1168.07  17
  -3   5 -10 3987.20 1740.05  14
  -3   5 -10 1323.00 796.457   5
   3   5  11 842.274 1442.84  17
  -3   5 -11 498.380 1744.89  14
  -3   5 -11 636.247 630.094   5
  -3   5 -12 32.0083 351.939   5
   3   5  12 911.872 2304.36  17
  -3   5 -12-2692.66 2047.26  14
   3   5  13 9126.45 3380.81  17
  -3   5 -13 9400.09 3324.29  14
   3   5  14 844.677 1453.40  17
  -3   5 -14-1113.96 1125.03  14
  -3   5 -15 2468.38 1425.90  14
   3   5  15 7239.83 3168.86  17
   3   5  16-226.160 1381.38  17
   3   5  17 16453.4 4337.20  17
   3   5  18-330.349 1159.14  17
   3   5  19 647.129 1367.65  17
   3   5  20 2284.88 1401.67  17
   3   6 -19 1339.00 1015.75  14
   3   6 -19 1141.71 455.913  21
   3   6 -18 4982.00 1887.91  14
   3   6 -18 8829.84 1205.32  21
   3   6 -17 976.332 385.275  21
   3   6 -17 1202.47 1249.02  14
   3   6 -16 5725.97 2322.93  14
   3   6 -16 5582.55 1243.03  21
   3   6 -15 704.915 557.385  21
   3   6 -15 275.416 1358.62  14
   3   6 -14 5589.86 2400.37  14
   3   6 -14 6594.82 1496.22  21
   3   6 -13 3724.17 2165.23  14
   3   6 -13 1957.92 903.692  21
   3   6 -12 2346.35 1716.19  14
   3   6 -12 2470.60 1651.40  13
   3   6 -12 2103.96 932.817  21
   3   6 -11 4793.53 2598.36  13
   3   6 -11 3219.93 946.382  21
   3   6 -10 363.163 492.128  21
  -3   6  10 2363.45 1608.56   6
   3   6 -10 1217.07 2389.63  13
   3   6  -9 63575.7 4200.05  21
  -3   6   9 62376.9 4049.35  20
  -3   6   9 51863.4 6407.36   6
   3   6  -8 48082.1 3619.85  21
  -3   6   8 50573.6 6155.59   6
   3   6  -8 56726.9 9193.99  13
  -3   6   8 51436.9 3647.69  20
   3   6  -7 4983.63 3275.42  13
  -3   6   7 4353.86 1001.36  20
   3   6  -7 4161.70 1051.15  21
   3   6  -6 4916.78 1144.77  21
  -3   6   6 5363.30 1142.89  20
   3   6  -5 25325.5 5483.70  13
  -3   6   5 23920.9 2360.99  20
   3   6   5 740.930 1280.89  17
   3   6   6 2349.02 2347.81  17
  -3   6  -6 890.844 529.952   5
  -3   6  -7 5839.91 1291.37   5
   3   6   7 5378.46 2370.18  17
  -3   6  -8 24823.2 2685.29   5
   3   6   8 25751.4 5570.10  17
  -3   6  -9 85661.2 4967.97   5
   3   6   9 90599.9 10800.5  17
   3   6  10 4499.12 2567.22  17
   3   6  11 9232.38 3756.66  17
  -3   6 -11 5853.09 1940.73  14
   3   6  12 68058.7 9514.90  17
  -3   6 -12 68296.6 7378.91  14
  -3   6 -13 9566.37 3057.07  14
   3   6  13 7106.68 3070.23  17
  -3   6 -14-294.780 1305.70  14
   3   6  14 1885.82 1887.00  17
   3   6  15 2569.38 1533.86  17
  -3   6 -15 6221.92 2676.09  14
   3   6  16 18405.5 4484.23  17
   3   6  17 231.536 966.345  17
   3   6  18 2159.37 1824.56  17
   3   6  19-156.442 685.647  17
  -3  -6 -19 1273.88 1011.40  16
   3   7 -17 8634.98 2276.54  14
   3   7 -16-831.969 1097.36  14
   3   7 -16 413.159 211.119  21
   3   7 -15 2164.21 1521.33  14
   3   7 -15 563.609 448.700  21
   3   7 -14 6987.36 1284.03  21
   3   7 -14 3977.45 2007.46  14
   3   7 -13 23915.8 4765.83  14
   3   7 -13 38255.0 3070.56  21
   3   7 -12 203.812 415.244  21
   3   7 -12-122.572 1204.79  14
   3   7 -11 2108.06 3168.56  13
   3   7 -11 2451.81 881.907  21
   3   7 -11 2199.02 1624.71  14
   3   7 -10 11688.2 4690.59  13
   3   7 -10 8130.57 1552.46  21
   3   7  -9 9680.56 4149.72  13
   3   7  -9 11487.5 1833.22  21
   3   7  -8-131.263 1873.63  13
   3   7  -8 561.136 344.361  21
  -3   7   8 1623.74 790.195  20
  -3   7   7 976.941 493.626  20
   3   7  -7 1867.47 1622.74  13
   3   7  -7 1521.33 653.017  21
  -3   7   6 2293.00 981.699  20
   3   7  -6 2763.73 2955.01  13
   3   7  -6 675.516 353.900  21
   3   7  -5 468.366 404.102  21
  -3   7   5 1049.62 558.273  20
   3   7  -4 18868.9 5531.08  13
  -3   7   4 15205.1 2033.47  20
   3   7  -3 17418.5 4586.99  13
  -3   7   3 16314.8 2163.35  20
  -3   7   2 1173.96 605.270  20
  -3   7   1 10841.2 1749.54  20
  -3   7   0 39457.0 3374.67  20
  -3   7  -1 45801.3 3629.28  20
  -3   7  -2 11219.7 1820.89  20
  -3   7  -3 24316.9 2594.50  20
  -3   7  -4 32570.7 3042.14  20
  -3   7  -5 6063.00 1333.90  20
  -3   7  -6 742.566 658.051  20
  -3   7  -7 4354.80 1146.59  20
  -3   7  -8 46763.6 3655.73  20
   3   7   8 46279.0 7888.99  17
  -3   7  -9 1269.87 751.871  20
   3   7   9-441.043 1538.83  17
   3   7  10 733.679 1507.86  17
  -3   7 -10 1011.38 655.258  20
  -3   7 -11 16549.9 1986.81  20
   3   7  11 12782.2 4041.30  17
   3   7  12 14642.6 4445.52  17
  -3   7 -12 14119.6 1687.18  20
   3   7  13 4763.08 2495.53  17
   3   7  14 1475.13 1608.78  17
   3   7  15 897.158 839.713  17
  -3  -7 -16 1102.29 1229.45  16
   3   7  16 850.152 1261.48  17
  -3  -7 -17 6052.18 2083.70  16
   3   8 -15 2173.98 537.973  20
   3   8 -15 3419.79 1517.18  14
   3   8 -14 903.988 1027.13  14
   3   8 -13 3038.89 1673.02  14
   3   8 -12 7314.14 2435.54  14
   3   8 -11 3038.26 1975.14  14
   3   8 -10 1129.26 989.641  14
   3   8 -10 3374.30 2531.25  13
   3   8  -9 1733.81 1276.56  14
   3   8  -9 5209.29 3165.48  13
   3   8  -8 12894.5 4546.36  13
   3   8  -7 3715.29 3289.81  13
  -3   8   7 3423.29 1100.32  20
  -3   8   6 3342.20 1100.98  20
   3   8  -6 1054.62 1585.02  13
   3   8  -5 33019.3 7280.20  13
  -3   8   5 32368.0 3019.73  20
   3   8  -4 14317.5 1980.18  20
  -3   8   4 16166.7 2189.71  20
   3   8  -4 15202.0 5091.53  13
   3   8  -3 10574.0 1628.38  20
  -3   8   3 11814.5 1810.77  20
   3   8  -3 12887.6 4415.83  13
   3   8  -2 6503.39 1250.93  20
   3   8  -2 7489.05 3602.16  13
  -3   8   2 7129.93 1428.31  20
   3   8  -1 41104.1 8044.13  13
  -3   8   1 38489.7 3388.76  20
  -3   8   0 5056.95 1321.46  20
   3   8   0 5063.45 3084.92  13
  -3   8  -1 14620.6 2073.00  20
  -3   8  -2 4059.22 1091.88  20
  -3   8  -3 2875.52 1015.49  20
  -3   8  -4 6320.53 1365.00  20
  -3   8  -5 39200.8 3313.53  20
  -3   8  -6 13735.5 1916.76  20
  -3   8  -7 1914.76 871.679  20
  -3   8  -8 14497.8 1890.78  20
  -3   8  -9 2380.14 732.579  20
  -3  -8 -10 5902.49 2063.70  16
  -3   8 -10 5023.67 1040.12  20
  -3  -8 -11 1657.27 1276.63  16
  -3   8 -11 1712.46 566.002  20
  -3  -8 -12 11721.8 2793.23  16
  -3   8 -12 21485.3 1792.51  20
  -3  -8 -13 3813.87 1781.96  16
  -3  -8 -14 242.131 557.819  16
   3   9 -11 3898.54 742.058  20
   3   9 -10 912.877 703.390  14
   3   9 -10-578.415 395.390  20
   3   9  -9 469.666 1233.26  14
   3   9  -9 1008.60 494.300  20
   3   9  -8 8762.75 1283.91  20
   3   9  -8 6062.15 2052.69  14
   3   9  -7 4050.54 1781.01  14
   3   9  -7 7637.18 3396.05  13
   3   9  -7 8193.14 1248.25  20
   3   9  -6 7009.75 2531.59  14
   3   9  -6 7353.31 3442.67  13
   3   9  -6 9389.00 1369.95  20
   3   9  -5 3309.84 817.354  20
   3   9  -5 4069.23 2307.29  13
  -3   9   5 3502.22 859.146  20
   3   9  -4 8565.67 3002.29  13
   3   9  -4 8806.01 1291.65  20
  -3   9   4 10347.5 1567.47  20
  -3   9   3 8291.23 1375.43  20
   3   9  -3 7167.44 1140.59  20
   3   9  -3 6160.29 2300.93  13
   3   9  -2 22161.1 5296.41  13
  -3   9   2 18921.2 2134.02  20
   3   9  -1 4330.54 2570.32  13
  -3   9   1-169.960 583.992  20
  -3   9   0 3358.94 891.006  20
   3   9   0 3757.61 1841.23  13
   3   9   1 13527.6 4199.22  13
  -3   9  -1 14227.0 1826.77  20
  -3   9  -2 16334.3 2022.61  20
   3   9   2 20496.1 4646.82  13
  -3   9  -3 21305.6 2257.96  20
   3   9   3 16420.3 4090.41  13
  -3   9  -4 11927.3 1693.51  20
  -3   9  -5 20812.2 2173.88  20
  -3   9  -6 7092.56 1241.58  20
  -3   9  -7 2502.85 717.955  20
  -3   9  -8 738.574 428.413  20
  -3   9  -9 4315.07 831.946  20
  -3   9 -10 2172.58 546.176  20
  -3  10   2 2022.09 559.302  20
  -3  10   1 459.671 363.398  20
  -3  10   0 1804.55 490.433  20
  -3  10  -1 1050.19 394.730  20
  -3  10  -2 546.916 252.853  20
  -3  10  -3 4632.40 751.821  20
  -3  10  -4 513.293 325.351  20
   4   0 -24 11357.6 2125.74  12
   4   0 -23-302.071 626.650  12
   4   0 -22 1387.27 1092.59  12
   4   0 -21-582.809 1137.17  12
   4   0 -20 3027.05 1675.44  12
   4   0 -19 1049.01 1134.56  12
  -4   0  18 5318.54 1951.02  18
   4   0 -17-933.909 824.089   8
  -4   0  17 1977.75 1169.58  18
  -4   0  16 11783.1 2597.99  18
   4   0 -16 11773.9 2833.66   8
  -4   0  16 12070.0 3977.66  10
  -4   0  15-893.406 1038.86  10
  -4   0  15 531.476 930.903  18
   4   0 -15-68.6971 1450.06   8
   4   0 -14 145573. 9746.79   8
   4   0 -13-1342.85 1562.81   8
   4   0 -12 66889.6 5869.49   8
   4   0 -11-737.971 1284.23   8
   4   0  -9 1656.31 1246.16   7
  -4   0   8 69588.0 2429.53   1
   4   0  -8 66636.0 4697.14   7
   4   0  -7 1308.52 785.121   7
  -4   0   7 1444.86 351.555   1
  -4   0   6 230860. 4148.75   1
   4   0  -6 234877. 7732.11   7
  -4   0   5 709.546 224.195   1
   4   0  -5 524.182 318.716   7
  -4   0   4 25199.1 1063.93   1
  -4   0   4 26001.1 1277.68   5
  -4   0   3 98.7050 177.018   5
  -4   0   3 104.362 62.3393   1
  -4   0   3-9.05679 45.5238   4
  -4   0   2 429754. 5677.31   5
  -4   0   1-24.6410 109.435   5
   4   0  -1 76.3673 52.1895   1
  -4   0   1-93.3835 156.738   2
  -4   0   0 9798.97 832.052   2
   4   0   0 8544.62 413.108   1
  -4   0   0 8902.43 625.353   5
  -4   0  -1 15.6497 81.3147   5
  -4   0  -1 63.1875 229.816   2
  -4   0  -2 8599.97 942.245   2
  -4   0  -2 7221.60 636.592   5
  -4   0  -3 275.774 282.272   2
  -4   0  -3 122.869 103.492   5
  -4   0  -4 108913. 2996.60   5
  -4   0  -4 101449. 4080.08   2
  -4   0  -5 838.997 339.433   5
  -4   0  -5 620.710 537.196   2
  -4   0  -6 17073.7 1843.89   2
  -4   0  -7-15.7923 407.551   2
  -4   0  -8 77449.3 5805.53   8
  -4   0  -9 695.764 874.163   8
  -4   0 -10 50230.7 5184.78   8
  -4   0 -11-444.763 933.991   8
  -4   0 -12 3657.30 1792.23   8
  -4   0 -13-1652.42 1473.21   8
  -4   0 -15 1799.63 1530.13  11
  -4   0 -15 746.689 1170.35  12
  -4   0 -16-908.577 1400.77  11
  -4   0 -16-43.7432 755.045  12
  -4   0 -17-244.982 1381.46  11
  -4   0 -17-362.011 794.798  12
  -4   0 -18 4299.87 2307.35  11
  -4   0 -18 5802.60 2123.42  12
  -4   0 -19 323.197 1006.03  11
  -4   0 -19-605.682 684.613  12
  -4   0 -20 4563.84 2012.66  12
  -4   0 -20 5153.42 2033.22  11
  -4   0 -21-101.326 888.862  11
  -4   0 -21-799.129 959.322  12
  -4   0 -22 1764.56 1310.02  11
  -4   0 -22-1220.83 1047.33  12
  -4   0 -23 672.307 777.947  12
  -4   0 -23-996.166 841.948  11
   4   1 -24 1222.55 961.918  12
   4  -1 -23 4588.44 1536.58  12
   4   1 -23 6335.24 1749.82  12
   4  -1 -22 780.405 881.512  12
   4   1 -22-1413.84 1117.80  12
   4   1 -21 1569.85 1389.95  12
   4  -1 -21-1425.53 1430.38  12
   4   1 -20 9657.33 2699.65  12
   4  -1 -20 12734.0 3177.92  12
   4  -1 -19 9538.89 2825.83  12
   4   1 -19 11549.7 3103.44  12
  -4  -1  18 1072.30 1213.65  18
   4  -1 -18 1375.61 1272.17  12
  -4   1  17 1261.24 1184.60  18
  -4  -1  17-716.055 1561.66  10
  -4  -1  17 308.676 878.881  18
   4   1 -16-1741.33 1880.22   8
  -4   1  16 502.394 968.576  18
  -4  -1  16 186.907 677.452  18
  -4  -1  16 429.559 1171.49  10
   4  -1 -16 168.130 1143.26   8
  -4   1  15 84296.4 6512.80  18
  -4  -1  15 70520.7 5827.50  18
  -4  -1  15 82066.1 8785.50  10
   4  -1 -15 58111.3 6334.82   8
   4   1 -15 67951.2 6984.05   8
   4  -1 -14 942.202 1386.61   8
   4   1 -14-732.339 1171.09   8
   4   1 -13 15414.7 3211.32   8
   4  -1 -13 13887.5 2874.39   8
   4   1 -12 5001.67 1881.47   8
   4  -1 -12 4005.58 1556.94   8
   4  -1 -11 76701.3 5915.71   8
   4   1 -11 87670.8 6627.50   8
   4  -1 -10 13093.2 2478.06   8
   4   1  -9 67385.2 5126.28   7
   4   1  -8 1962.51 1065.46   7
  -4   1   8 1922.95 484.451   1
   4  -1  -8 1496.89 821.425   7
  -4  -1   8 1969.90 441.618   1
   4  -1  -7 18682.7 2271.64   7
   4   1  -7 19224.3 2454.53   7
  -4  -1   7 17364.6 1094.35   1
  -4   1   7 19083.1 1291.11   1
   4  -1  -6 13981.1 1847.16   7
  -4   1   6 13280.3 1010.80   1
  -4   1   6 12346.2 1084.40   5
  -4  -1   6 12777.7 866.169   1
   4   1  -6 11943.8 1741.74   7
  -4   1   5 149614. 3404.52   1
   4   1  -5 154430. 6013.78   7
   4  -1  -5 161223. 5643.98   7
  -4   1   5 144498. 3468.93   5
  -4  -1   5 141747. 2800.97   1
  -4   1   4 2893.13 457.233   5
  -4   1   4 3131.07 435.700   1
  -4  -1   4 3099.90 458.165   4
  -4  -1   4 2975.58 344.187   1
  -4   1   3 93714.2 2555.63   5
  -4  -1   3 91431.8 1689.42   1
  -4  -1   2 1629.09 170.051   1
  -4   1   2 1664.32 294.970   5
  -4  -1   2 2128.18 335.994   5
   4  -1  -2 1677.79 275.028   1
   4  -1  -1 131295. 2600.14   1
  -4   1   1 135635. 2991.66   5
  -4   1   0 46384.4 1772.33   5
   4  -1   0 49492.1 1532.53   1
  -4   1  -1 21781.6 1270.98   5
  -4   1  -2 44124.3 1924.17   5
   4   1   3 145805. 1808.82   1
  -4   1  -3 139686. 3778.32   5
  -4   1  -4 135754. 3922.14   5
   4   1   4 147376. 2216.56   1
  -4  -1  -5 721.746 359.697   2
   4   1   5 1280.77 590.824   6
   4   1   5 1664.40 263.151   1
  -4   1  -5 1930.18 546.014   5
   4   1   6 8743.81 1454.13   6
   4   1   6 10741.0 706.211   1
  -4  -1  -6 10591.8 1459.99   2
  -4  -1  -7 8024.53 1344.48   2
   4   1   7 8731.17 1489.79   6
  -4   1  -7 5648.74 1506.48   8
  -4   1  -8 28724.5 3583.53   8
  -4   1  -9 6789.53 1999.14   8
  -4   1 -10 80106.5 6584.47   8
  -4   1 -11 3073.08 1308.98   8
  -4   1 -12-412.244 1452.32   8
  -4   1 -13-1.49359 1081.17   8
  -4  -1 -14 14825.2 3201.44  11
  -4   1 -14 17038.1 3663.76   8
  -4   1 -14 16776.9 3543.88  12
  -4  -1 -15 25415.0 4639.79  11
  -4   1 -15 27681.4 4628.59  12
  -4  -1 -15 22327.4 4093.01  12
  -4   1 -15 33803.5 4873.08  11
  -4  -1 -16 12920.3 3286.95  11
  -4   1 -16 17617.9 3728.01  11
  -4  -1 -16 9347.19 2673.00  12
  -4   1 -16 16975.7 3604.91  12
  -4   1 -17 4120.12 2210.73  11
  -4  -1 -17 6505.77 2481.37  12
  -4   1 -17 1841.04 1493.17  12
  -4  -1 -17 2155.22 1564.47  11
  -4   1 -18 966.525 1050.81  12
  -4  -1 -18 1574.59 1690.00  11
  -4   1 -18 2782.78 1594.98  11
  -4  -1 -18 3304.10 1875.08  12
  -4   1 -19 15532.3 3359.59  11
  -4  -1 -19 13678.4 3406.32  11
  -4  -1 -19 13966.1 3132.83  12
  -4   1 -19 14530.7 3364.29  12
  -4  -1 -20 2290.34 1403.30  11
  -4   1 -20 1629.77 1162.98  11
  -4  -1 -20 986.268 745.402  12
  -4   1 -20 872.740 860.477  12
  -4   1 -21 1301.45 1121.60  11
  -4  -1 -21 458.524 974.397  11
  -4  -1 -21-784.153 1284.39  12
  -4   1 -21 1603.57 1053.28  12
  -4  -1 -22 2979.78 1297.30  11
  -4   1 -22 1453.52 1114.97  12
  -4  -1 -22 4798.86 1500.78  12
  -4   1 -22 1252.95 964.633  11
  -4  -1 -23 6502.71 1764.14  11
  -4  -1 -23 11578.3 2010.01  12
   4   2 -23-168.130 609.943  12
   4   2 -22 1567.79 853.398  12
   4  -2 -22 1596.38 1078.87  12
   4   2 -21 10407.4 2613.72  12
   4  -2 -21 11113.9 2515.54  12
   4   2 -20 1186.88 1234.91  12
   4  -2 -20 1091.45 1573.58  12
   4   2 -19 352.540 1012.24  12
   4  -2 -19 1047.77 1493.71  12
  -4  -2  18 3692.26 1789.05  18
  -4  -2  18 2961.48 2057.86  10
   4   2 -18 692.252 852.179  12
   4  -2 -18 3248.81 1640.13  12
  -4  -2  17 646.780 1685.49  10
  -4  -2  17 203.503 713.765  18
   4  -2 -17 602.514 1212.36  12
   4   2 -16 1274.11 873.688   8
  -4   2  16 5443.59 1804.07  18
  -4  -2  16 3605.01 1311.11  18
  -4  -2  16 5168.17 2413.01  10
   4   2 -15 5523.81 2348.48   8
  -4   2  15 5551.59 1825.91  18
  -4  -2  15 8617.99 3022.15  10
  -4  -2  15 4635.03 1567.73  18
  -4  -2  14 20005.8 4147.03  10
   4   2 -14 19176.7 3829.33   8
  -4   2  14 14646.2 2630.75  18
   4  -2 -13 32046.5 4240.20   8
   4   2 -13 33819.4 4666.11   8
   4  -2 -12 1384.61 964.999   8
   4   2 -12 3655.63 1664.37   8
   4  -2 -11 66222.2 5339.00   8
   4   2 -11 58318.4 5549.27   8
   4  -2 -10 38050.8 3799.77   8
   4  -2  -9 38149.1 3644.47   8
   4   2  -8 2833.01 1359.38   7
   4   2  -7 8427.28 1928.16   7
  -4   2   7 9702.03 1047.01   5
   4  -2  -7 10016.9 1725.48   7
   4  -2  -6 178661. 6418.41   7
   4   2  -6 178607. 7383.96   7
  -4   2   6 169460. 4157.98   5
   4  -2  -5 359919. 8696.34   7
   4   2  -5 337877. 9610.70   7
  -4   2   5 339081. 5975.12   5
   4  -2  -4 11033.7 1323.13   7
  -4   2   4 8885.28 838.894   5
  -4   2   3 55630.7 2118.27   5
   4  -2  -2 197098. 3607.96   2
  -4   2   2 209599. 4190.65   5
  -4   2   1 80016.3 2551.40   5
  -4   2   1 81332.8 2083.98   4
   4  -2   0 16693.3 1180.66   2
  -4   2   0 16733.5 1099.40   4
  -4   2   0 18280.3 1234.70   5
  -4   2  -1 56314.7 2313.22   4
  -4   2  -1 54274.0 2264.87   5
  -4   2  -2 5433.12 811.443   4
  -4   2  -2 5501.24 778.599   5
  -4   2  -3 62786.5 2744.46   5
  -4   2  -4 81442.8 3323.91   5
  -4   2  -5 262181. 6420.77   5
   4   2   6 137373. 6579.47   6
  -4   2  -6 145081. 4862.37   5
   4   2   7 85559.4 5352.93   6
   4   2   8 25573.9 3022.01   6
  -4   2  -8 27917.4 3626.41   8
   4   2   9 133915. 7231.63   6
  -4   2  -9 115332. 7709.21   8
   4   2  10 1808.26 1001.49   6
  -4   2 -10 2250.94 1248.74   8
  -4   2 -11 2798.48 1608.57   8
  -4   2 -12 35735.2 4875.31   8
  -4   2 -13 88399.7 7940.66   8
  -4  -2 -14 6935.94 2131.91  11
  -4  -2 -14 1945.88 1081.96  12
  -4   2 -14 7945.41 2493.71  12
  -4  -2 -15 5758.48 2204.87  11
  -4  -2 -15 7295.53 2300.91  12
  -4   2 -15 9228.51 2663.54  12
  -4  -2 -16 1030.64 1049.27  11
  -4  -2 -16-454.847 1018.57  12
  -4   2 -16-826.710 1260.59  12
  -4  -2 -17 7958.56 3071.29  11
  -4  -2 -17 11498.2 2787.08  12
  -4   2 -17 10566.9 2734.98  12
   4   2  17 14848.1 4265.03  17
   4   2  18-1941.73 1908.88  17
  -4  -2 -18-130.490 1164.89  11
  -4  -2 -18 1078.81 1072.21  12
  -4   2 -18 694.833 882.710  12
  -4  -2 -19 13939.6 3418.92  11
   4   2  19 18666.5 4299.57  17
  -4  -2 -19 16195.1 3147.92  12
  -4   2 -19 8424.63 2333.42  12
  -4  -2 -20 639.569 1007.12  11
   4   2  20-682.844 1362.42  17
  -4  -2 -20-397.723 728.503  12
  -4   2 -20 1133.06 1089.74  12
  -4  -2 -21 2074.39 1391.97  11
   4   2  21 4334.64 1830.13  17
  -4  -2 -21 1676.87 996.310  12
  -4   2 -21-240.865 878.244  12
  -4  -2 -22 748.255 911.103  11
   4   2  22 409.086 814.609  17
  -4  -2 -22-496.415 483.427  12
  -4   2 -22 209.549 508.196  12
  -4  -2 -23 3317.39 1148.85  11
  -4   3  22 1147.02 961.243  17
   4   3 -22 633.911 936.084  12
   4   3 -21 811.697 943.850  12
   4   3 -20 1088.51 991.804  12
   4   3 -19 1241.88 1256.10  12
   4   3 -18-513.146 1374.28  14
  -4  -3  18 1698.60 1161.02  10
   4   3 -18 397.657 1135.81  12
  -4  -3  17 843.983 1269.04  10
   4   3 -17 1729.14 1838.38  14
   4   3 -17 2634.85 1677.74  12
  -4  -3  16 18270.1 4249.92  10
   4   3 -16 10143.2 3062.40  14
   4   3 -15 3135.37 1634.56   8
  -4  -3  15 4699.98 2474.58  10
   4   3 -15 3672.47 2321.97  14
   4   3 -14 17477.0 3582.21   8
  -4  -3  14 23899.3 4765.20  10
   4   3 -14 14030.2 3310.20  14
  -4  -3  13 35989.3 5412.52  10
   4   3 -13 31869.8 4494.09   8
   4   3 -12 55902.2 5742.41   8
   4   3 -11-1272.48 1214.57   8
   4   3 -10 358.879 741.620   8
   4   3  -7 7231.65 1679.12   7
  -4   3   7 7311.04 952.091   5
   4   3  -6 552.636 584.680   7
  -4   3   6 500.035 327.905   5
  -4   3   5 28796.4 1719.39   5
   4   3  -5 31819.2 3012.39   7
   4   3  -4 491787. 11636.8   7
  -4   3   4 434840. 7340.63   5
  -4   3   3 4336.45 635.008   5
  -4   3   2 13252.3 1104.50   5
  -4   3   1 13166.0 1135.16   5
  -4   3   0 275572. 5759.67   5
  -4   3  -1 2238.83 488.827   4
  -4   3  -1 1980.62 476.291   5
  -4   3  -2 37775.6 2262.14   5
  -4   3  -2 42978.8 2344.32   4
  -4   3  -3 27658.4 1972.77   5
  -4   3  -3 26591.9 1995.31   4
  -4   3  -4 120057. 4562.96   4
  -4   3  -4 115794. 4416.60   5
  -4   3  -5 769.665 455.713   5
  -4   3  -6 3896.41 871.171   5
  -4   3  -7 14834.9 1796.39   5
   4   3   7 13022.8 2457.38   6
   4   3   8 70829.9 5757.04   6
  -4   3  -8 73888.6 4101.41   5
  -4   3  -9-36.6288 453.066   5
   4   3   9 1099.18 1041.12   6
  -4   3 -10 47846.6 3642.36   5
   4   3  10 56232.1 5396.87   6
   4   3  11 4648.49 1742.47   6
  -4   3 -11 3496.41 1191.52   5
   4   3  12-302.767 984.516   6
  -4   3 -12 2612.66 1048.74   5
   4   3  13 7981.26 3123.68  17
  -4   3 -13 2687.83 1763.45  14
  -4   3 -13 2487.95 1018.06   5
  -4  -3 -13 5335.45 2185.01  11
   4   3  14 26833.8 5659.78  17
  -4   3 -14 24574.6 2930.49   5
  -4  -3 -14 27360.6 4573.81  11
  -4   3 -14 18385.7 3460.22  12
   4   3  15 1484.96 1123.49  17
  -4  -3 -15 677.781 1098.36  11
  -4   3 -15 300.071 1118.87  12
  -4  -3 -16-1422.04 1669.16  11
   4   3  16 61.4349 1354.04  17
  -4   3 -16-430.794 704.554  12
   4   3  17 11.9183 985.368  17
  -4  -3 -17 1948.46 1519.80  11
  -4   3 -17-350.595 1147.17  12
  -4  -3 -18 50756.2 6383.93  11
  -4   3 -18 38729.1 5187.15  12
   4   3  18 61104.3 8253.33  17
  -4  -3 -19 2021.37 1273.09  11
   4   3  19-2684.85 2158.62  17
  -4   3 -19-599.496 732.538  12
   4   3  20-948.160 1190.35  17
  -4   3 -20-381.296 725.189  12
  -4  -3 -20 1324.84 1291.12  11
  -4  -3 -21 581.092 847.845  11
   4   3  21-458.325 626.171  17
  -4   3 -21 1453.79 889.049  12
  -4  -3 -22 13226.4 2421.32  11
  -4   4  21 8022.29 2328.32  17
   4   4 -21 7593.82 1051.72  21
  -4   4  20-1156.91 1330.43  17
   4   4 -20 1177.64 545.470  21
  -4   4  19 380.759 1370.79  17
   4   4 -19 3022.43 1643.11  14
   4   4 -18-944.268 1386.63  14
  -4  -4  18 1108.71 1023.15  10
  -4  -4  17 19208.3 4273.89  10
   4   4 -17 10443.8 3611.64  14
  -4  -4  16 5937.16 2653.40  10
   4   4 -16 5887.79 2885.94  14
  -4  -4  15 33200.0 5575.39  10
   4   4 -15 17201.8 4186.14  14
   4   4 -14 506.035 1649.21  14
  -4  -4  14 3282.91 1496.73  10
  -4   4  14 4667.01 1767.63   6
  -4  -4  13 3972.31 1960.53  10
   4   4 -13-159.252 1700.43  14
  -4  -4  12 6361.65 2340.45  10
   4   4 -12 7399.67 3413.48  13
  -4   4   7 3094.53 1141.25   6
  -4   4   7 6475.90 940.067   5
  -4   4   6 9099.16 1039.27   5
  -4   4   6 8069.57 2049.11   6
  -4   4   5 122641. 7408.85   6
  -4   4   5 122059. 3891.26   5
  -4   4   4 25762.0 3136.04   6
  -4   4   4 28760.9 1831.18   5
  -4   4   3 8080.96 946.581   5
  -4   4   2 7405.38 899.869   5
  -4   4   1 347690. 6938.12   5
  -4   4   0 103357. 3697.83   5
  -4   4  -1 7714.80 1014.55   5
  -4   4  -2 28500.4 2126.72   5
  -4   4  -3 3455.89 759.058   5
  -4   4  -4 6556.26 1128.07   5
  -4   4  -5 149914. 5652.06   5
  -4   4  -6 7472.49 1317.46   5
  -4   4  -7 550.345 631.971   5
  -4   4  -8 287.002 314.644   5
  -4   4  -9 217025. 8006.86   5
  -4   4 -10 757.216 471.792   5
   4   4  11 6652.91 2982.12  17
  -4   4 -11 6459.90 2534.39  14
  -4   4 -11 9556.83 1899.86   5
  -4  -4 -12 957.510 976.689  11
   4   4  12 2637.01 2176.51  17
  -4   4 -12 5010.46 2212.21  14
  -4   4 -12 1316.40 794.315   5
  -4  -4 -13 8220.90 2553.91  11
   4   4  13 9239.24 3372.19  17
  -4   4 -13 9745.04 3180.64  14
  -4   4 -13 7943.66 1864.86   5
   4   4  14 1101.13 1238.96  17
  -4  -4 -14-1949.13 1700.48  11
  -4   4 -14-522.978 1687.93  14
   4   4  15-244.032 1093.44  17
  -4  -4 -15-907.589 1342.22  11
  -4  -4 -16-1457.67 884.773  11
   4   4  16-796.455 1478.02  17
   4   4  17 10950.8 3663.48  17
  -4  -4 -17 9645.54 2665.99  11
   4   4  18 2836.99 1706.03  17
  -4  -4 -18 2146.44 1184.91  11
   4   4  19 10653.6 3153.08  17
  -4  -4 -19 10755.6 2717.64  11
   4   4  20 669.318 1155.33  17
  -4  -4 -20-1130.92 829.372  11
   4   4  21 972.244 611.564  17
   4   5 -20 3657.09 651.953  21
   4   5 -19 20848.6 3686.63  14
   4   5 -19 41158.8 2572.29  21
  -4  -5  18 2359.02 1404.44  10
   4   5 -18 1288.68 1581.78  14
   4   5 -18 3432.25 828.078  21
   4   5 -17-416.003 1391.36  14
  -4  -5  17-1078.87 940.267  10
   4   5 -17 1436.29 732.906  21
   4   5 -16 5458.92 2741.74  14
  -4  -5  16 5286.67 2103.98  10
   4   5 -16 10090.6 1741.01  21
  -4  -5  15 32337.5 5287.42  10
   4   5 -15 27246.4 5069.34  14
   4   5 -14 4978.69 2275.22  14
  -4  -5  14 5780.40 2379.77  10
  -4  -5  13 13500.1 3396.75  10
   4   5 -13 8353.27 3069.52  14
  -4  -5  12 1953.43 1533.81  10
   4   5 -12 605.566 1763.56  13
  -4   5  12 2376.71 1252.91   6
  -4   5  11 55529.8 6908.87   6
   4   5 -11 73376.8 10395.3  13
  -4  -5  11 55041.7 6776.38  10
  -4  -5  10 2128.27 1703.20  10
  -4   5  10 4650.62 2229.57   6
   4   5 -10 423.050 1738.60  13
  -4  -5   9 26639.9 4392.47  10
  -4   5   9 24335.0 4114.93   6
   4   5  -9 31119.2 6386.67  13
  -4   5   9 26783.1 2516.51  20
  -4   5   8-62.3717 1220.56   6
  -4   5   7 6389.94 1956.72   6
  -4   5   4 68829.3 3010.26   5
  -4   5   3 32795.3 2069.70   5
  -4   5   2 12513.0 1299.03   5
  -4   5   1 250023. 6092.24   5
  -4   5   0 88548.7 3629.03   5
  -4   5  -1 22094.2 1864.38   5
  -4   5  -2 66.2799 340.071   5
  -4   5  -3 34558.3 2546.60   5
  -4   5  -4 30363.3 2515.07   5
  -4   5  -5 9346.29 1479.21   5
  -4   5  -6 558.967 451.358   5
  -4   5  -7-292.027 504.141   5
   4   5   8 16782.2 4500.03  17
  -4   5  -8 14214.0 2081.44   5
   4   5   9 2792.51 2342.97  17
  -4   5  -9 518.719 540.921   5
  -4   5 -10 23564.9 2878.63   5
   4   5  10 24920.7 5724.34  17
   4   5  11 1534.14 1893.02  17
  -4   5 -11 1760.16 2038.31  14
  -4   5 -11 1747.22 826.008   5
   4   5  12 3136.59 2226.25  17
  -4   5 -12 2782.11 1524.87  14
   4   5  13-484.926 1700.12  17
  -4   5 -13 1800.21 1051.08  14
   4   5  14 5844.81 3125.74  17
  -4   5 -14 3539.89 2053.18  14
   4   5  15 32347.7 6299.29  17
   4   5  16 888.569 1775.79  17
   4   5  17 588.049 1249.79  17
   4   5  18 9856.55 3043.24  17
   4   5  19 4634.77 1921.83  17
  -4  -5 -19 7438.41 2278.34  16
   4   5  20 1452.33 1101.94  17
  -4  -5 -20 3692.06 1444.72  16
   4   6 -19-966.474 1246.12  14
   4   6 -19 249.565 247.634  21
   4   6 -18 3739.32 1732.14  14
   4   6 -18 8349.10 1187.86  21
   4   6 -17-279.882 1257.82  14
   4   6 -17-46.3560 336.138  21
   4   6 -16 2975.24 2192.24  14
   4   6 -16 5350.18 1197.58  21
  -4  -6  15 56.2044 713.285  10
   4   6 -15 529.870 1135.56  14
   4   6 -15-9.80556 303.931  21
  -4  -6  14 18293.0 3542.05  10
   4   6 -14 23562.9 2587.87  21
  -4  -6  13 6559.76 2379.80  10
   4   6 -13 10297.8 1747.12  21
   4   6 -13 3322.71 1562.72  14
  -4  -6  12 601.878 753.981  10
   4   6 -12 386.250 468.968  21
   4   6 -12-40.5216 1192.81  14
   4   6 -12-1400.23 2235.70  13
  -4  -6  11 26687.8 4609.47  10
   4   6 -11 35071.3 7769.65  13
   4   6 -11 30354.1 3032.69  21
   4   6 -10 44280.8 8402.85  13
  -4  -6  10 32979.3 5062.18  10
   4   6 -10 39426.2 3419.06  21
  -4  -6   9 7898.99 2338.77  10
   4   6  -9 7475.41 4236.77  13
   4   6  -9 8287.09 1593.65  21
  -4  -6   8 1846.23 1012.24  10
   4   6  -8 1271.71 643.223  21
  -4   6   8 3243.63 986.938  20
  -4  -6   7 56480.7 6576.93  10
   4   6  -7 72545.8 10267.6  13
   4   6  -7 57504.7 3840.29  21
  -4   6   7 63418.3 4125.43  20
  -4  -6   6 81325.6 7953.78  10
   4   6  -6 87984.9 4623.07  21
  -4   6   6 95437.0 5045.70  20
  -4  -6   5 35041.2 5188.60  10
  -4   6   5 40805.0 3234.74  20
   4   6  -5 33902.5 2759.28  21
   4   6  -4 1166.00 547.052  21
  -4   6   4 257.720 373.259  20
  -4   6   3 32893.9 2853.95  20
  -4   6  -3 9461.64 1310.63   5
  -4   6  -3 11261.2 1661.21  20
  -4   6  -4 12417.1 1616.80   5
  -4   6  -4 13936.0 1861.39  20
   4   6   5 10096.6 3401.60  17
  -4   6  -5 7714.30 1406.86   5
  -4   6  -5 8405.18 1428.96  20
  -4   6  -6 14093.0 1847.18   5
   4   6   6 18296.1 4879.74  17
  -4   6  -6 17524.9 2085.50  20
  -4   6  -7 17975.1 2122.72   5
   4   6   7 19861.7 5137.64  17
  -4   6  -7 21022.3 2307.10  20
   4   6   8 12829.5 3820.58  17
  -4   6  -8 13087.9 1849.18   5
  -4   6  -8 12861.7 1775.43  20
   4   6   9 5866.00 2598.74  17
  -4   6  -9 6720.36 1370.58   5
  -4   6  -9 5573.86 1179.46  20
   4   6  10 952.072 1371.10  17
   4   6  11 30641.1 6427.00  17
   4   6  12-582.073 1542.43  17
   4   6  13 3209.46 2371.09  17
  -4   6 -13 1874.93 1539.98  14
   4   6  14 8609.25 3238.69  17
   4   6  15 2.22506 1117.88  17
   4   6  16 2559.14 1821.59  17
   4   6  17 459.796 1043.05  17
  -4  -6 -17 1687.36 1542.34  16
   4   6  18 3363.87 1913.36  17
  -4  -6 -18 7250.91 2243.29  16
   4   7 -17 697.769 811.250  14
   4   7 -17 446.916 266.095  21
   4   7 -16 2152.61 1546.11  14
   4   7 -16-40.4017 251.233  21
   4   7 -15 11958.9 3111.03  14
   4   7 -15 18981.8 2042.79  21
   4   7 -14-2133.16 1551.08  14
   4   7 -14 862.132 529.207  21
   4   7 -13 1644.11 1855.40  14
   4   7 -13 117.774 351.808  21
   4   7 -12 1836.23 1611.88  14
   4   7 -12 385.510 339.861  21
   4   7 -11 13890.1 1901.27  21
   4   7 -11 10139.0 3184.21  14
   4   7 -11 15017.5 5029.44  13
   4   7 -10 1094.43 1662.83  13
   4   7 -10 2002.86 810.937  21
   4   7  -9 14072.8 4996.51  13
   4   7  -9 13218.9 1928.18  21
   4   7  -8 2331.44 3279.03  13
   4   7  -8 287.531 382.019  21
  -4   7   8 932.899 664.860  20
   4   7  -7 5323.19 3469.47  13
   4   7  -7 6174.07 1310.51  21
  -4   7   7 8829.66 1647.14  20
   4   7  -6 6616.57 3148.63  13
   4   7  -6 4611.19 1086.29  21
  -4   7   6 6483.34 1334.56  20
  -4   7   5 60962.2 4191.03  20
   4   7  -5 51360.8 3595.81  21
  -4   7   4 12133.5 1881.13  20
   4   7  -4 7041.90 3524.67  13
   4   7  -4 9048.08 1448.55  21
  -4   7   3 2686.95 819.178  20
  -4   7   2-90.7799 685.027  20
  -4   7   1 20447.7 2417.05  20
  -4   7   0 599.065 592.802  20
  -4   7  -1 14944.7 2052.40  20
  -4   7  -2 3850.01 1087.95  20
  -4  -7  -2 2569.47 1334.03  10
  -4  -7  -3 38747.8 5692.88  10
  -4   7  -3 37672.6 3280.74  20
  -4  -7  -4 1172.91 1096.97  10
  -4   7  -4 683.791 432.375  20
  -4   7  -5 9439.95 1692.09  20
  -4  -7  -5 12711.9 3632.40  10
  -4   7  -6 14983.7 2057.20  20
  -4  -7  -7 7278.01 2693.64  16
  -4   7  -7 2370.84 847.519  20
  -4   7  -8 13029.6 1858.09  20
  -4  -7  -8 17717.9 4167.67  16
  -4  -7  -9 3977.08 2216.62  16
  -4   7  -9 3036.44 901.104  20
   4   7  10 11716.3 4005.71  17
  -4   7 -10 11405.5 1597.14  20
   4   7  11 44.2888 903.214  17
  -4   7 -11-103.792 245.351  20
  -4  -7 -12 7899.06 2999.96  16
   4   7  12 6763.52 3001.08  17
   4   7  13 2150.51 1577.89  17
  -4  -7 -13 3610.11 2193.01  16
   4   7  14 1086.47 1220.25  17
  -4  -7 -14 1944.10 1715.24  16
  -4  -7 -15 10209.8 2637.70  16
  -4  -7 -16 3298.30 1644.44  16
   4   8 -14 2314.57 1235.05  14
   4   8 -13 2133.71 1635.93  14
   4   8 -12-747.486 1184.60  14
   4   8 -11-2832.33 1724.64  14
   4   8 -10 22055.2 4342.42  14
   4   8 -10 31936.1 6612.30  13
   4   8  -9 589.123 1013.34  14
   4   8  -9 2630.88 2415.42  13
   4   8  -8 20243.8 5471.37  13
   4   8  -7 4521.11 3184.35  13
  -4   8   7 6115.15 1294.01  20
  -4   8   6 45074.7 3494.40  20
   4   8  -6 37744.5 7486.45  13
   4   8  -5 2858.25 2938.18  13
  -4   8   5 2123.70 887.883  20
   4   8  -4 1320.03 1773.75  13
  -4   8   4 1240.38 678.104  20
   4   8  -4 706.914 233.012  20
   4   8  -3 20966.2 5806.50  13
  -4   8   3 20988.8 2467.89  20
   4   8  -2 19474.6 5641.75  13
  -4   8   2 15066.6 2069.35  20
   4   8  -1 20996.4 5701.78  13
  -4   8   1 18420.9 2291.88  20
  -4   8   0 215.920 434.324  20
  -4   8  -1 11006.1 1774.42  20
  -4   8  -2 7249.53 1449.78  20
  -4   8  -3 14927.7 2071.46  20
  -4   8  -4 5922.02 1318.74  20
  -4   8  -5 3570.86 1081.15  20
  -4   8  -6 10313.0 1677.52  20
  -4   8  -7 40123.5 3116.00  20
  -4   8  -8 7168.86 1302.24  20
  -4   8  -9 5822.62 1074.43  20
  -4   8 -10 11550.9 1441.50  20
  -4  -8 -10 6162.24 1920.79  16
  -4   8 -11 8844.37 1142.52  20
  -4  -8 -11 3475.00 1367.14  16
  -4  -8 -12 456.035 763.132  16
  -4  -8 -13 2231.37 1257.10  16
   4   9 -10 2054.33 1320.25  14
   4   9 -10 474.852 297.035  20
   4   9  -9 257.951 1011.00  14
   4   9  -9 2009.82 564.324  20
   4   9  -8 378.453 1281.89  14
   4   9  -8 271.152 208.105  20
   4   9  -8-299.960 1254.20  13
   4   9  -7 3179.63 2059.40  13
   4   9  -7 1575.80 538.735  20
   4   9  -6 1024.13 909.876  14
   4   9  -6 7428.79 3250.66  13
   4   9  -6 5298.43 937.663  20
   4   9  -5 861.228 1857.47  13
  -4   9   5 401.178 519.723  20
   4   9  -5 470.938 329.734  20
   4   9  -4 2449.08 1769.75  13
  -4   9   4 5169.79 1095.56  20
  -4   9   3 1713.59 738.758  20
   4   9  -3 4284.77 2358.33  13
   4   9  -2-283.424 1344.51  13
  -4   9   2 1570.81 600.073  20
  -4   9   1 9485.77 1464.11  20
   4   9  -1 7326.23 2925.41  13
  -4   9   0 19309.0 2124.45  20
   4   9   0 18330.7 4922.29  13
   4   9   1 23096.9 5551.38  13
  -4   9  -1 22062.0 2244.46  20
   4   9   2 1675.38 1615.11  13
  -4   9  -2 729.189 323.376  20
  -4   9  -3 7734.40 1316.81  20
   4   9   3 9129.78 3198.25  13
   4   9   4 25627.4 5196.51  13
  -4   9  -4 25824.1 2345.15  20
   4   9   5 5068.45 2125.87  13
  -4   9  -5 8751.34 1274.65  20
  -4   9  -6 27.4062 314.588  20
  -4   9  -7 653.113 327.287  20
  -4   9  -8 12639.8 1352.31  20
  -4   9  -9 366.312 220.136  20
  -4  10   1 665.166 349.710  20
  -4  10   0 1533.17 483.362  20
  -4  10  -1 2086.57 520.340  20
  -4  10  -2 615.116 324.530  20
   5   0 -23-1399.83 997.034  12
   5   0 -22 7720.16 2149.79  12
   5   0 -21 106.267 869.392  12
   5   0 -20 2187.09 1840.60  12
   5   0 -19 946.624 915.951  12
  -5   0  18 2298.52 1428.53  18
  -5   0  17 1492.17 1207.32  18
  -5   0  16 13431.6 4062.86  10
   5   0 -16 19348.1 3649.82   8
  -5   0  16 22377.4 3576.77  18
   5   0 -15 1416.80 1547.95   8
  -5   0  15-648.563 631.991  18
  -5   0  15-222.058 916.388  10
   5   0 -14 61381.9 6410.94   8
   5   0 -13-1508.33 1568.45   8
   5   0 -12 299647. 13069.5   8
   5   0 -10 17211.8 2957.10   7
   5   0  -9 141.542 628.922   7
   5   0  -8 548509. 14815.1   7
  -5   0   8 578379. 8280.18   1
   5   0  -7 243.367 544.083   7
  -5   0   7 220.274 211.371   1
   5   0  -6 35602.8 3169.42   7
  -5   0   6 36241.9 1576.40   1
  -5   0   5 1108.93 398.655   5
  -5   0   5 851.417 241.734   1
  -5   0   4 361365. 5182.76   1
  -5   0   4 378017. 5936.17   5
  -5   0   3-20.7579 99.2075   5
  -5   0   2 22364.3 1080.78   2
  -5   0   2 24399.1 1249.22   5
  -5   0   1 201.436 120.035   5
   5   0  -1 244.586 95.5505   1
  -5   0   1 151.477 167.524   2
   5   0   0 157505. 2230.64   1
  -5   0   0 149349. 3893.87   2
  -5   0  -1 633.568 283.361   2
   5   0   1 607.213 121.374   1
  -5   0  -1 734.719 203.766   5
  -5   0  -2 89480.1 2454.85   5
  -5   0  -2 78412.6 3330.83   2
  -5   0  -3-197.713 288.423   2
  -5   0  -3 178.974 156.300   5
  -5   0  -4 84764.8 4047.03   2
  -5   0  -4 87194.4 2771.00   5
  -5   0  -5 791.274 552.803   2
  -5   0  -5 136.008 192.863   5
  -5   0  -6 824933. 11434.7   5
  -5   0  -6 823604. 15056.4   2
  -5   0  -7 2871.35 674.362   5
  -5   0  -8 26030.8 1897.62   5
  -5   0  -9 273.716 309.623   5
  -5   0 -14 6080.10 2185.24  11
  -5   0 -14 4981.91 1991.15  12
  -5   0 -15 1421.00 1321.65  11
  -5   0 -15-1948.01 1781.57  12
  -5   0 -16 2592.08 1670.49  11
  -5   0 -16 1771.04 1121.16  12
  -5   0 -17 888.583 1107.35  11
  -5   0 -17 3349.99 1689.13  12
  -5   0 -18 2499.95 1564.67  11
  -5   0 -18 1935.13 1438.54  12
  -5   0 -19 448.274 1201.81  11
  -5   0 -19-404.848 1113.10  12
  -5   0 -20 3616.33 1766.70  11
  -5   0 -20 3372.77 1635.00  12
  -5   0 -21-1655.15 1174.80  12
  -5   0 -21-1960.73 1216.01  11
  -5   0 -22 4290.12 1459.63  12
  -5   0 -22 2753.65 1151.69  11
  -5   0 -23-902.289 485.422  12
   5   1 -23-167.332 580.525  12
   5  -1 -23 375.828 506.818  12
   5  -1 -22 875.172 727.328  12
   5   1 -22 1436.56 1053.83  12
   5  -1 -21 6613.99 2217.60  12
   5   1 -21 8586.46 2548.16  12
   5  -1 -20 2235.05 1415.06  12
   5   1 -20 4095.30 1706.06  12
  -5  -1  19 4191.80 1668.86  18
   5   1 -19 4746.35 2232.66  12
   5  -1 -19 3225.47 1764.18  12
  -5   1  18 12642.8 2743.97  18
  -5  -1  18 8100.49 2440.56  18
  -5   1  17 24902.7 3944.79  18
  -5  -1  17 21874.7 3526.27  18
  -5  -1  17 24298.8 5090.16  10
   5   1 -16 2345.89 1851.71   8
  -5  -1  16 2246.24 1196.27  18
  -5   1  16 2350.51 1607.07  18
  -5  -1  16 4250.19 2543.05  10
   5  -1 -16-150.511 793.649   8
   5  -1 -15-125.331 1264.08   8
   5   1 -15 2361.68 1810.09   8
  -5  -1  15 1841.66 1039.84  18
  -5  -1  15 2126.81 2096.67  10
  -5   1  15 1895.72 1295.58  18
   5  -1 -14-517.006 789.928   8
  -5   1  14 1016.41 857.371  18
  -5  -1  14 1742.47 1438.09  10
  -5  -1  14 1975.56 1319.69  18
   5   1 -14-16.0579 1021.89   8
   5   1 -13 98022.7 7952.04   8
   5  -1 -13 87233.7 7119.23   8
   5   1 -12-232.188 775.662   8
   5  -1 -12 642.755 872.832   8
   5  -1 -11 113512. 7455.43   8
   5   1 -10 1563.04 1019.28   7
   5   1  -9 6464.98 1912.81   7
   5  -1  -9 7774.28 1793.33   7
   5  -1  -8 6171.42 1508.88   7
   5   1  -8 3785.59 1272.75   7
  -5  -1   8 5793.03 676.087   1
   5  -1  -7 95115.7 5478.35   7
  -5   1   7 98423.8 3145.22   1
   5   1  -7 102410. 6039.12   7
  -5  -1   7 99923.1 2677.01   1
  -5  -1   6 11819.8 826.373   1
  -5   1   6 11773.6 1025.06   1
   5   1  -6 10762.8 1674.05   7
   5  -1  -6 13301.8 1843.58   7
  -5   1   6 11796.1 1098.12   5
  -5  -1   5 65409.5 1829.33   1
  -5   1   5 67599.2 2463.83   5
  -5   1   5 65039.6 2308.98   1
  -5  -1   4 5201.74 435.793   1
  -5   1   4 5205.11 660.673   5
  -5  -1   3 238250. 3145.59   1
  -5   1   3 241105. 4747.11   5
  -5   1   2 2376.76 395.606   5
  -5  -1   2 3648.28 439.633   5
  -5  -1   1 1279.87 245.179   5
  -5   1   1 1339.01 330.343   5
   5  -1   0 2633.06 352.143   1
  -5   1   0 2266.47 412.912   5
  -5  -1   0 2805.68 336.453   5
  -5   1  -1 77754.7 2569.07   5
  -5   1  -2 50395.9 2166.12   5
  -5   1  -3 8627.88 940.047   5
  -5  -1  -4 584.966 484.920   2
  -5   1  -4 251.424 235.286   5
  -5   1  -5 135835. 4289.20   5
  -5  -1  -5 139528. 5406.68   2
  -5   1  -6 20667.6 1697.17   5
  -5  -1  -6 20291.2 2042.68   2
  -5   1  -7 11305.4 1403.19   5
  -5   1  -8 2372.29 716.017   5
  -5   1  -9 107989. 4467.36   5
  -5   1 -14 4316.10 1174.43   5
  -5  -1 -14 3039.70 1884.98  11
  -5  -1 -14 2647.50 1038.22  12
  -5   1 -14 5255.60 2122.39  12
  -5  -1 -15 17332.1 3771.28  11
  -5   1 -15 20706.4 3881.68  11
  -5  -1 -15 14767.0 3123.88  12
  -5   1 -15 13086.3 3074.39  12
  -5   1 -16 5521.36 2097.05  11
  -5  -1 -16 8221.33 2417.70  11
  -5  -1 -16 8299.56 2537.01  12
  -5   1 -16 3443.64 1869.18  12
  -5  -1 -17 12037.8 3122.37  11
  -5   1 -17 11639.6 3219.99  11
  -5  -1 -17 14696.1 3239.01  12
  -5   1 -17 12313.3 3283.46  12
  -5  -1 -18 1664.07 982.736  11
  -5   1 -18 3351.56 1865.87  11
  -5  -1 -18 2649.08 1322.82  12
  -5   1 -18 2172.87 1272.97  12
  -5  -1 -19 1179.17 845.389  11
  -5  -1 -19-233.303 879.368  12
  -5   1 -19 1134.78 684.499  12
  -5   1 -20 4636.13 1868.22  11
  -5  -1 -20 3907.65 1712.46  11
  -5  -1 -20 3141.72 1472.29  12
  -5   1 -20 381.641 695.279  12
  -5  -1 -21 3210.09 1463.21  12
  -5   1 -21 1509.62 1107.56  12
  -5   1 -21 2457.91 1274.11  11
  -5  -1 -21 2173.31 1246.52  11
  -5  -1 -22-169.880 964.945  11
  -5  -1 -22 941.357 722.344  12
  -5   1 -22 699.145 567.963  12
  -5   1 -23 373.480 704.279  12
   5   2 -23 10885.1 1932.10  12
   5   2 -22 204.085 587.343  12
   5  -2 -22-743.958 950.626  12
   5  -2 -21 4280.48 1538.38  12
   5   2 -21 2473.07 1088.41  12
   5   2 -20 2439.27 1781.69  12
   5  -2 -20 2063.56 1139.56  12
   5  -2 -19 13110.2 3074.48  12
   5   2 -19 11021.3 3019.41  12
  -5  -2  18 6097.47 2829.74  10
  -5  -2  18 7477.86 2151.17  18
   5  -2 -18 4220.97 2140.62  12
  -5  -2  17 20235.4 3143.76  18
  -5  -2  17 25781.2 5512.34  10
  -5  -2  16 1975.53 1115.91  18
  -5  -2  16 117.478 1522.62  10
  -5   2  16 2592.52 1153.69  18
   5   2 -15 2794.72 1634.14   8
  -5  -2  15-774.342 1596.07  10
  -5  -2  15 1331.13 739.999  18
  -5   2  15-650.941 876.348  18
  -5  -2  14 6552.27 2352.35  10
  -5  -2  14 6038.93 1796.74  18
  -5   2  14 4260.71 1520.51  18
   5   2 -14 5466.53 2143.26   8
   5   2 -13 51246.3 5805.96   8
   5  -2 -12 30577.5 3928.16   8
   5   2 -12 34339.6 4656.40   8
   5  -2 -11 5602.38 1743.29   8
   5  -2 -10 10715.2 2090.52   8
   5   2  -9 55028.6 5070.20   7
   5   2  -8 190833. 9027.90   7
   5  -2  -8 191425. 8087.63   7
   5  -2  -7 22463.3 2615.01   7
   5   2  -7 18413.1 2597.55   7
  -5   2   7 22876.6 1654.18   5
   5   2  -6 668.632 629.069   7
   5  -2  -6 305.161 495.208   7
  -5   2   6 481.789 276.773   5
   5  -2  -5 72282.5 4071.90   7
   5   2  -5 68211.8 4528.70   7
  -5   2   5 65031.6 2597.15   5
  -5   2   4 114667. 3449.22   5
  -5   2   3 57226.6 2338.46   5
  -5   2   2 93860.3 2974.24   5
  -5   2   1 40239.8 1935.82   5
  -5   2   0 59568.7 2438.14   5
  -5   2   0 55951.9 2137.04   4
  -5   2  -1 538.003 316.688   4
  -5   2  -1 395.390 227.653   5
  -5   2  -2 33141.3 1997.39   5
  -5   2  -2 32975.6 2059.59   4
  -5   2  -3 112462. 3908.43   5
  -5   2  -4 32475.5 2164.93   5
  -5   2  -5 908.029 395.435   5
  -5   2  -6 2302.53 652.936   5
  -5   2  -7 209814. 6468.21   5
  -5   2  -8 57722.9 3479.21   5
  -5   2  -9 25890.6 2406.80   5
  -5   2 -10 54855.1 3632.64   5
  -5   2 -11 115191. 5543.73   5
  -5   2 -12 1045.98 720.760   5
  -5  -2 -13 13153.4 3064.56  11
  -5   2 -13 16215.2 2221.54   5
  -5  -2 -13 12098.9 2556.91  12
  -5   2 -13 14847.8 3182.71  12
  -5  -2 -14 21483.9 4115.75  11
   5   2  14 29019.1 5340.87  17
  -5   2 -14 19138.3 2524.05   5
  -5  -2 -14 19679.0 3471.81  12
  -5   2 -14 26273.8 4363.71  12
  -5  -2 -15 16982.5 3907.85  11
   5   2  15 23336.5 4780.48  17
  -5   2 -15 13038.4 2044.56   5
  -5  -2 -15 16327.8 3196.17  12
  -5   2 -15 10791.9 2885.38  12
  -5  -2 -16-1329.04 1533.63  11
   5   2  16-2020.11 1583.74  17
  -5  -2 -16 111.843 969.380  12
  -5   2 -16-1303.80 1278.35  12
   5   2  17 18594.4 4397.46  17
  -5  -2 -17 11992.5 3541.13  11
  -5  -2 -17 14572.5 3236.69  12
  -5   2 -17 10880.7 2859.64  12
  -5  -2 -18 958.295 1268.42  11
   5   2  18 2039.87 1530.41  17
  -5  -2 -18 992.499 1027.72  12
  -5   2 -18 595.979 850.469  12
  -5  -2 -19 1637.39 1182.20  11
   5   2  19 34.4681 1130.50  17
  -5  -2 -19 2896.76 1502.67  12
  -5   2 -19 840.339 1029.11  12
  -5  -2 -20 2610.55 1462.51  12
  -5   2 -20 2906.47 1404.14  12
  -5  -2 -20 2139.91 1540.92  11
  -5  -2 -21 20911.7 3437.58  11
  -5  -2 -21 25770.0 3255.66  12
  -5   2 -21 14614.0 2709.11  12
  -5   2 -22 713.483 791.758  12
  -5  -2 -22 600.693 653.046  11
  -5   3  22 10717.8 2664.90  17
   5   3 -22 9489.75 1029.72  21
   5   3 -22 4694.84 1454.25  12
   5   3 -21-1182.48 1269.18  12
   5   3 -20 844.538 707.728  12
  -5  -3  19 846.103 1110.70  10
   5   3 -19 1932.86 1493.59  12
  -5  -3  18 20768.4 4706.13  10
   5   3 -18 13589.6 2962.64  12
  -5  -3  17 4700.89 2207.97  10
   5   3 -17 4427.60 1931.95  12
  -5  -3  16 3581.07 2118.44  10
   5   3 -15 6416.30 2246.50   8
  -5  -3  15 10504.1 3520.14  10
  -5  -3  14 24238.3 4810.52  10
   5   3 -14 14656.1 3622.00  14
   5   3 -14 20304.2 3781.65   8
   5   3 -13 1904.19 1540.20   8
  -5  -3  13 1892.89 863.362  10
   5   3 -13 1731.67 1623.16  14
   5   3 -12 12953.7 2869.22   8
   5   3 -11 13833.5 2944.38   8
   5   3  -8 22089.8 3181.58   7
  -5   3   8 26631.9 1947.61   5
   5   3  -7 1756.42 934.852   7
  -5   3   7 2281.69 593.107   5
   5   3  -6 140148. 7251.13   7
  -5   3   6 128523. 4077.11   5
   5   3  -5 629.636 614.238   7
  -5   3   5 326.721 338.343   5
   5   3  -4 57400.0 4166.58   7
  -5   3   4 53927.0 2531.66   5
  -5   3   3 4692.32 710.237   5
  -5   3   2 83961.6 3047.25   5
  -5   3   1 10966.6 1093.38   5
  -5   3   0 5018.91 740.766   5
  -5   3  -1 36582.2 2176.31   5
  -5   3  -2 95410.7 3780.33   5
  -5   3  -2 96368.7 3635.94   4
  -5   3  -3 128610. 4543.67   4
  -5   3  -3 125705. 4552.71   5
  -5   3  -4 3645.77 754.042   5
  -5   3  -5 7554.39 1231.57   5
  -5   3  -6 126746. 5268.04   5
  -5   3  -7 5962.07 1184.90   5
  -5   3  -8 29062.4 2711.64   5
  -5   3  -9 1675.62 694.542   5
  -5   3 -10 2917.37 936.207   5
  -5   3 -11 3337.26 1154.14   5
   5   3  12 38056.8 6066.42  17
  -5   3 -12 29666.0 3163.77   5
  -5  -3 -12 26137.2 4378.56  11
  -5  -3 -13 848.331 976.577  11
   5   3  13 840.339 1393.79  17
  -5   3 -13 1026.49 982.648  12
  -5   3 -13 188.623 515.682   5
  -5  -3 -14 2520.17 1452.57  11
   5   3  14 2603.75 1527.54  17
  -5   3 -14 1334.42 925.323  12
  -5   3 -14 1782.48 1011.60   5
   5   3  15 1734.27 1656.93  17
  -5  -3 -15-557.179 1444.69  11
  -5   3 -15 1132.92 996.941  12
  -5   3 -16 23260.0 3967.62  12
  -5  -3 -16 28861.4 4948.77  11
  -5  -3 -17 1013.07 1395.60  11
   5   3  17 1171.88 1462.83  17
  -5   3 -17-921.412 1232.83  12
   5   3  18-752.455 1157.31  17
  -5   3 -18 318.708 959.188  12
  -5  -3 -18-808.778 1183.55  11
   5   3  19 787.975 1135.96  17
  -5   3 -19 2212.13 1253.14  12
  -5  -3 -19 391.882 1165.76  11
  -5   3 -20 24396.9 3431.17  12
   5   3  20 32966.5 4878.24  17
  -5  -3 -20 29070.4 4163.04  11
   5   3  21 1626.81 1318.13  17
  -5   3 -21 802.943 603.256  12
  -5  -3 -21-84.8724 662.554  11
   5   4 -21 761.517 397.782  21
   5   4 -20 2662.70 696.359  21
  -5  -4  19 3571.92 1807.44  10
  -5  -4  18 14740.4 3673.99  10
   5   4 -18 6089.88 2470.44  14
   5   4 -17 20176.3 4269.58  14
  -5  -4  17 30752.0 5370.98  10
  -5  -4  16 4957.10 2369.46  10
   5   4 -16 5840.98 2602.67  14
  -5  -4  15 157.516 2051.48  10
   5   4 -15-652.932 1310.88  14
  -5  -4  14-1953.79 1397.19  10
   5   4 -14-87.6631 1335.66  14
  -5  -4  13 43376.8 6254.88  10
   5   4 -13 27475.7 4748.62  14
  -5  -4  12 10593.8 3082.25  10
  -5  -4  11 4776.63 2103.04  10
  -5   4   8 18602.6 1702.62   5
  -5   4   7 25489.2 3793.01   6
  -5   4   7 25889.5 1940.50   5
  -5   4   6 28345.7 1993.37   5
  -5   4   5 2584.27 633.408   5
  -5   4   4 2677.35 607.200   5
  -5   4   3 89502.8 3490.49   5
  -5   4   2 75453.4 3168.47   5
  -5   4   1 51748.5 2644.22   5
  -5   4   0 4779.10 834.895   5
  -5   4  -1 34453.2 2252.70   5
  -5   4  -2 26645.1 2134.69   5
  -5   4  -3 64444.1 3495.71   5
  -5   4  -4 2807.10 719.132   5
  -5   4  -5 10742.0 1529.78   5
  -5   4  -6 5563.22 1217.75   5
  -5   4  -7 134906. 5974.25   5
  -5   4  -8 7309.71 1409.42   5
  -5   4  -9 1465.18 715.783   5
   5   4  10 594.113 976.297  17
  -5   4 -10 53.0774 405.614   5
   5   4  11 82060.6 9684.01  17
  -5   4 -11 88241.4 5314.85   5
  -5   4 -11 87342.2 8147.53  14
  -5  -4 -11 74875.9 7258.95  11
   5   4  12 4624.13 2635.63  17
  -5   4 -12 6260.25 2803.46  14
  -5   4 -12 5429.40 1412.72   5
  -5  -4 -12 2811.26 1460.21  11
   5   4  13-351.610 1337.42  17
  -5  -4 -13-827.722 879.869  11
   5   4  14 2874.40 2157.83  17
  -5  -4 -14 1397.74 1334.99  11
   5   4  15 1912.05 1802.36  17
  -5  -4 -15 1334.70 1547.06  11
  -5  -4 -16-748.837 1204.97  11
   5   4  16 44.3084 1128.02  17
   5   4  17 20124.4 4509.69  17
  -5  -4 -17 12894.3 2986.30  11
   5   4  18 1156.18 1623.21  17
  -5  -4 -18-945.034 1280.01  11
   5   4  19 6207.64 2237.94  17
  -5  -4 -19 5094.51 1818.79  11
   5   4  20-650.690 910.146  17
   5   5 -20 1625.35 455.864  21
   5   5 -19-1256.00 1217.11  14
   5   5 -19 483.299 334.882  21
  -5  -5  18 14947.2 3146.32  10
   5   5 -18 11636.4 2993.22  14
   5   5 -18 21825.8 2051.51  21
  -5  -5  17 3633.57 1778.54  10
   5   5 -17 3672.95 1154.21  21
   5   5 -17 1337.41 928.423  14
  -5  -5  16-1390.83 1216.63  10
   5   5 -16 1692.60 1657.49  14
  -5  -5  15 10598.7 3094.78  10
   5   5 -15 5740.44 2301.80  14
  -5  -5  14 11639.2 3465.40  10
   5   5 -14 7498.38 2999.72  14
  -5  -5  13 2547.76 2006.71  10
   5   5 -13 1498.75 1268.40  14
  -5  -5  12 3387.49 1913.50  10
   5   5 -12 2724.72 1618.04  13
  -5  -5  11 17243.6 3866.99  10
  -5   5  11 19171.3 3928.14   6
  -5  -5  10 1301.71 1625.01  10
  -5   5  10 638.093 1489.60   6
   5   5 -10-1618.09 2368.30  13
  -5  -5   9 18860.1 4287.57  10
   5   5  -9 24385.2 5716.90  13
  -5  -5   8 23570.7 4561.97  10
   5   5  -8 23807.4 5603.35  13
  -5   5   8 20891.4 2284.07  20
  -5   5   6 20880.1 1745.41   5
  -5   5   5 49362.9 2741.98   5
  -5   5   4 4068.91 738.937   5
  -5   5   3 139029. 4705.32   5
  -5   5   2 122428. 4422.90   5
  -5   5   1 9720.03 1225.59   5
  -5   5   0 41906.2 2607.76   5
  -5   5  -1 208342. 6144.13   5
  -5   5  -2 33535.5 2484.37   5
  -5   5  -3 551.947 252.790   5
  -5   5  -4 31156.8 2608.64   5
  -5   5  -5 16169.9 2003.51   5
  -5   5  -6 3120.66 918.159   5
   5   5   7 3820.34 2760.98  17
  -5   5  -7 2776.15 789.163   5
   5   5   8 4724.76 2797.71  17
  -5   5  -8 6254.03 1357.40   5
   5   5   9-289.629 1542.59  17
  -5   5  -9 738.653 766.239   5
   5   5  10 331.198 968.242  17
  -5   5 -10 261.586 371.102   5
   5   5  11 41360.0 7058.65  17
   5   5  12 16560.8 4797.69  17
   5   5  13 956.630 1716.69  17
   5   5  14 4624.67 2810.97  17
   5   5  15 13515.4 3915.46  17
   5   5  16 15922.3 4195.59  17
   5   5  17 2833.56 1784.40  17
   5   5  18-668.110 840.114  17
  -5  -5 -18-92.4612 945.669  16
   5   5  19-177.401 844.565  17
  -5  -5 -19 3369.94 1557.85  16
   5   6 -18-1938.89 1228.25  14
   5   6 -18 365.603 362.419  21
  -5  -6  17 434.595 862.109  10
   5   6 -17-1649.17 1432.89  14
   5   6 -17-54.5058 412.577  21
  -5  -6  16 5329.25 1830.92  10
   5   6 -16 3717.23 1746.31  14
   5   6 -16 7220.34 1288.25  21
   5   6 -15 280.372 1441.25  14
  -5  -6  15 1921.33 1189.39  10
  -5  -6  14-1255.94 1635.45  10
   5   6 -14 65.5226 1494.64  14
   5   6 -14 2485.67 923.038  21
  -5  -6  13 1829.48 1671.42  10
   5   6 -13-699.562 1918.66  14
   5   6 -13 644.377 632.962  21
  -5  -6  12 47276.4 6315.18  10
   5   6 -12 52813.1 9222.63  13
   5   6 -12 60183.9 4025.14  21
   5   6 -11 3446.50 2309.17  13
  -5  -6  11 3974.25 1965.62  10
   5   6 -11 4375.28 1281.97  21
  -5  -6  10 1507.23 801.319  10
   5   6 -10 3644.22 1092.22  21
  -5  -6   9 22013.6 4374.52  10
   5   6  -9 26583.2 6734.21  13
   5   6  -9 20475.3 2461.45  21
  -5  -6   8 78318.3 8334.14  10
  -5   6   8 82015.8 4825.63  20
   5   6  -8 71064.1 10523.7  13
   5   6  -8 73913.2 4417.52  21
  -5  -6   7 17395.2 3795.73  10
   5   6  -7 20592.7 5493.47  13
   5   6  -7 17361.5 2087.16  21
  -5   6   7 18528.0 2301.30  20
  -5  -6   6 6865.84 2657.50  10
   5   6  -6 4609.18 2255.57  13
   5   6  -6 6894.79 1264.86  21
  -5   6   6 7390.22 1378.10  20
  -5  -6   5 3579.31 1562.67  10
   5   6  -5 6030.63 1149.85  21
  -5   6   5 5409.85 1119.80  20
  -5  -6   4 14749.1 3516.44  10
  -5   6   4 14049.1 1948.15  20
  -5   6   3 7751.34 1435.77  20
  -5  -6   3 9735.25 2732.54  10
  -5  -6   2 46912.9 6261.29  10
  -5   6   2 49356.1 3579.03  20
  -5  -6   1 16482.2 3678.16  10
  -5   6   1 15654.5 2014.99  20
  -5  -6   0 7937.38 2663.77  10
  -5   6   0 9498.39 1571.54  20
  -5  -6  -1 9289.94 2992.62  10
  -5   6  -1 11678.9 1675.75  20
  -5   6  -1 9300.30 1293.65   5
  -5  -6  -2 73159.6 8005.94  10
  -5   6  -2 68781.1 4138.54  20
  -5   6  -2 65102.9 3560.50   5
  -5   6  -3 1717.19 659.321   5
  -5   6  -3 1272.79 607.446  20
  -5  -6  -4 4041.65 2215.35  16
  -5   6  -4 2054.41 684.010   5
  -5   6  -4 2716.81 875.220  20
  -5   6  -5 48499.3 3363.86   5
  -5  -6  -5 60785.9 7296.68  16
  -5   6  -5 54277.8 3597.44  20
  -5   6  -6 50384.8 3599.14   5
   5   6   6 59284.7 8732.22  17
  -5  -6  -6 62357.8 7554.04  16
  -5   6  -6 57196.8 3703.73  20
   5   6   7 5698.11 2958.59  17
  -5   6  -7 9542.99 1634.16   5
  -5   6  -7 8631.15 1426.23  20
   5   6   8 1460.73 1290.17  17
   5   6   9 37994.7 7123.87  17
   5   6  10 18996.1 4911.30  17
   5   6  11 273.516 1396.67  17
   5   6  12 5883.81 2964.33  17
   5   6  13-29.1447 1124.78  17
   5   6  14 4499.26 2432.21  17
   5   6  15-10.1895 918.185  17
  -5  -6 -15 743.338 1807.68  16
  -5  -6 -16 936.014 1456.57  16
   5   6  16-556.419 1225.75  17
   5   6  17 2606.28 1537.89  17
  -5  -6 -17 396.702 958.477  16
  -5  -6 -18 810.140 680.832  16
   5   7 -16 5015.91 1639.13  14
   5   7 -16 4806.13 831.752  21
   5   7 -15-547.104 830.434  14
   5   7 -15 775.799 425.276  21
   5   7 -14-3048.60 1813.67  14
   5   7 -14 1036.14 580.801  21
   5   7 -13 6093.68 2566.69  14
   5   7 -13 17620.1 2006.72  21
   5   7 -12 273.897 1174.47  14
   5   7 -12 830.372 441.929  21
  -5  -7  11 24916.1 4243.59  10
   5   7 -11 17746.1 4235.91  14
   5   7 -11 23816.8 5617.03  13
   5   7 -11 28405.7 2700.74  21
  -5  -7  10 519.887 1200.18  10
   5   7 -10 1366.22 1635.61  13
   5   7 -10 1067.63 560.234  21
  -5  -7   9-498.439 1613.10  10
   5   7  -9 130.060 396.531  21
   5   7  -9 1075.74 2298.37  13
  -5  -7   8 2804.48 1506.38  10
   5   7  -8 2697.71 854.953  21
  -5  -7   7 35970.2 5395.73  10
   5   7  -7 41226.6 8235.77  13
   5   7  -7 38715.0 3102.84  21
  -5   7   7 43229.5 3592.41  20
  -5  -7   6 7646.14 2408.00  10
   5   7  -6 5964.58 3333.73  13
   5   7  -6 5099.73 1039.18  21
  -5   7   6 7966.46 1526.50  20
  -5  -7   5 411.789 806.607  10
  -5   7   5 3579.00 1087.51  20
   5   7  -5 530.939 1921.59  13
   5   7  -5 2143.19 706.398  21
  -5   7   4 8010.11 1550.50  20
  -5  -7   4 9025.88 2677.99  10
   5   7  -4 5463.43 3230.34  13
  -5  -7   3 100847. 9359.97  10
  -5   7   3 104286. 5606.99  20
  -5  -7   2 1767.22 1064.07  10
  -5   7   2 552.739 552.999  20
  -5  -7   1 348.160 1309.70  10
  -5   7   1 3522.41 977.335  20
  -5   7   0 3588.58 1075.85  20
  -5  -7   0 3331.86 1858.96  10
  -5  -7  -1 53453.7 6763.47  10
  -5   7  -1 53465.6 3928.77  20
  -5  -7  -2-213.275 1184.14  10
  -5   7  -2 2064.68 897.336  20
  -5  -7  -3-658.114 1682.30  10
  -5   7  -3 348.025 397.536  20
  -5  -7  -4 877.085 1130.23  10
  -5   7  -4 1193.84 537.887  20
  -5  -7  -5 16813.2 4206.31  10
  -5   7  -5 10031.6 1664.80  20
  -5  -7  -6 3064.53 2109.79  16
  -5  -7  -6 3823.89 2276.79  10
  -5   7  -6 2622.20 852.899  20
  -5  -7  -7 623.305 1249.47  16
  -5   7  -7 570.479 342.533  20
  -5  -7  -8 13315.5 3652.60  16
  -5   7  -8 11935.9 1667.61  20
  -5  -7  -9 4370.02 2740.73  16
  -5   7  -9 356.155 358.568  20
  -5  -7 -10 3657.98 2069.98  16
  -5  -7 -11 9934.03 3162.98  16
  -5  -7 -12 5917.44 2600.69  16
  -5  -7 -13 6534.26 2389.39  16
  -5  -7 -14 2950.03 1511.09  16
  -5  -7 -15 6619.52 1999.72  16
  -5  -7 -16-74.3774 869.013  16
   5   8 -14 701.329 671.306  14
   5   8 -13 1066.16 1031.90  14
   5   8 -12 6946.32 2328.26  14
   5   8 -11 1143.45 1191.44  14
   5   8 -10-847.213 1421.89  14
   5   8 -10-782.099 2333.46  13
   5   8  -9 2014.77 2120.35  13
   5   8  -8 14244.4 4742.10  13
   5   8  -7 3029.68 2294.32  13
   5   8  -6 5172.94 3440.01  13
  -5   8   6 2890.49 968.222  20
   5   8  -5 2364.72 2076.96  13
  -5   8   5 198.868 577.294  20
  -5   8   4 4865.64 1325.58  20
   5   8  -4 1569.12 2041.87  13
   5   8  -3 185.761 1581.31  13
  -5   8   3-192.863 366.164  20
  -5   8   2 3956.44 1073.79  20
   5   8  -2 2158.26 2311.40  13
  -5   8   1 11038.6 1786.26  20
  -5   8   0 3538.34 895.178  20
  -5   8  -1 3703.35 984.220  20
  -5   8  -2 13097.0 1848.24  20
  -5  -8  -3-803.999 1403.85  10
  -5   8  -3-28.9079 465.087  20
  -5  -8  -4 15055.1 3276.76  10
  -5   8  -4 16113.4 2014.63  20
  -5  -8  -5 26026.0 4471.91  10
  -5   8  -5 25389.2 2480.32  20
  -5  -8  -6 24149.4 4168.98  10
  -5   8  -6 24566.0 2401.18  20
  -5  -8  -7 2932.65 1650.75  10
  -5   8  -7 2738.09 814.535  20
  -5  -8  -8 6780.98 2173.04  10
  -5   8  -8 8085.27 1299.83  20
  -5  -8  -9 6396.85 2125.07  16
  -5  -8  -9 9073.61 2588.13  10
  -5   8  -9 11239.5 1357.02  20
  -5  -8 -10 3914.41 1590.26  16
  -5  -8 -10 8265.80 2198.19  10
  -5  -8 -11 6423.40 1903.55  16
  -5  -8 -11 6742.54 1872.17  10
  -5  -8 -12 1153.26 875.687  16
  -5  -8 -12 3003.89 1411.55  10
   5   9  -9 3932.29 1425.49  14
   5   9  -8 2690.47 1170.36  14
   5   9  -8 4605.63 2515.49  13
   5   9  -8 3899.60 736.430  20
   5   9  -7 3155.51 1463.21  14
   5   9  -7 2424.77 2113.28  13
   5   9  -7 1122.92 382.291  20
   5   9  -6-1207.73 1664.89  13
   5   9  -5 10817.9 3609.86  13
   5   9  -4 2093.61 2009.20  13
  -5   9   4 3575.97 934.610  20
   5   9  -3 4955.33 2304.12  13
  -5   9   3 11894.6 1609.12  20
   5   9  -2 6999.57 3012.23  13
  -5   9   2 8025.85 1338.86  20
   5   9  -1 15968.4 4466.79  13
  -5   9   1 21911.6 2171.00  20
   5   9   0 2766.92 2554.97  13
  -5   9   0 228.907 289.407  20
   5   9   1 1278.97 1324.27  13
  -5   9  -1 4159.21 927.107  20
   5   9   2 6879.75 2710.05  13
  -5   9  -2 9342.93 1369.79  20
   5   9   3 17485.8 4440.11  13
  -5   9  -3 21468.4 2041.08  20
  -5   9  -4 303.065 236.916  20
   5   9   4-1762.35 2082.07  13
   5   9   5 2369.50 1797.32  13
  -5   9  -5 2205.70 632.905  20
   5   9   6 3936.86 1657.93  13
  -5   9  -6 3118.10 670.099  20
  -5   9  -7-201.054 305.611  20
   6   0 -23 160.932 677.731  12
   6   0 -22-230.440 854.338  12
   6   0 -21-94.5414 932.693  12
   6   0 -20 1953.43 1296.43  12
  -6   0  19 256.489 706.030  18
  -6   0  18 770.696 1182.13  18
  -6   0  17-582.949 1016.62  18
  -6   0  16-1627.99 1060.53  18
  -6   0  16 2324.75 1814.94  10
   6   0 -15-65.0654 945.375   8
  -6   0  15 1735.69 1927.80  10
  -6   0  15 1018.01 1040.47  18
  -6   0  14 64878.1 5822.86  18
  -6   0  14 50867.9 7085.40  10
   6   0 -14 55374.8 6228.29   8
   6   0 -13-1590.32 1619.59   8
   6   0 -10 279962. 11983.8   7
   6   0  -9 908.675 1068.96   7
   6   0  -8-996.545 1021.46   7
   6   0  -7-289.837 699.326   7
   6   0  -6 106410. 5996.48   7
  -6   0   5 465.392 347.942   5
  -6   0   4 86080.9 2838.21   5
  -6   0   3 335.237 264.535   5
  -6   0   2 454411. 6858.47   5
  -6   0   1 402.907 144.621   5
  -6   0   0 106755. 3580.92   2
  -6   0   0 126261. 3065.66   5
  -6   0  -1 322.685 268.043   2
  -6   0  -1 511.391 220.476   5
  -6   0  -2 11990.1 1411.99   2
  -6   0  -2 14695.4 1037.15   5
  -6   0  -3 132.289 339.579   2
  -6   0  -3 519.185 260.539   5
  -6   0  -4 842488. 10869.1   5
  -6   0  -4 829824. 14598.2   2
  -6   0  -5 1529.11 676.739   2
  -6   0  -5 866.992 356.839   5
  -6   0  -6 29593.7 1837.93   5
  -6   0  -7 484.654 280.953   5
  -6   0 -13-1140.84 1390.45  11
  -6   0 -13-1217.03 1216.34  12
  -6   0 -14 2810.61 1767.16  11
  -6   0 -14 3045.42 1766.92  12
  -6   0 -15 547.919 1117.95  12
  -6   0 -15-137.522 878.188  11
  -6   0 -16 6049.35 2622.89  11
  -6   0 -16 3315.95 1525.68  12
  -6   0 -17-747.299 834.468  11
  -6   0 -17-1175.23 1316.71  12
  -6   0 -18 1249.72 1216.92  11
  -6   0 -18 1875.72 1121.16  12
  -6   0 -19 1419.93 1189.06  12
  -6   0 -19-791.630 1298.36  11
  -6   0 -20 1130.84 906.857  12
  -6   0 -20 1885.95 1082.83  11
  -6   0 -21 169.675 567.417  12
  -6   0 -21 314.872 602.166  11
  -6   0 -22 8700.66 1783.45  12
   6   1 -23 1901.83 1000.65  12
   6  -1 -22 402.739 588.693  12
   6   1 -22 193.458 618.179  12
   6  -1 -21 11944.0 2721.84  12
   6   1 -21 9719.72 2527.29  12
   6  -1 -20 22305.0 3833.06  12
   6   1 -20 14515.0 3201.35  12
  -6  -1  19 11124.3 2550.34  18
  -6  -1  18 4040.67 2702.60  10
  -6  -1  18 6050.27 1836.20  18
  -6   1  18 4292.91 1778.65  18
  -6   1  17 5841.88 1856.69  18
  -6  -1  17 8834.06 2328.83  18
  -6  -1  17 5398.71 2962.74  10
  -6   1  16 10270.4 2539.39  18
  -6  -1  16 12793.1 2625.07  18
  -6  -1  16 10839.2 3732.15  10
   6   1 -15 5622.98 2070.71   8
  -6   1  15 3642.79 1452.18  18
  -6  -1  15 4723.05 1606.45  18
  -6  -1  15 8117.33 3106.33  10
   6  -1 -15 4123.24 1824.45   8
  -6  -1  14 5975.59 2676.19  10
   6   1 -14 8555.01 2382.38   8
  -6   1  14 9797.37 2420.45  18
  -6  -1  14 7645.39 2131.24  18
   6  -1 -14 9829.67 2663.55   8
  -6   1  14 8613.34 2882.95  10
   6   1 -13 29402.8 4541.27   8
   6  -1 -13 27730.6 4272.37   8
   6  -1 -12-1132.35 1306.46   8
   6  -1 -10 36307.6 4223.22   7
   6   1 -10 37753.7 4588.97   7
   6  -1  -9 158760. 8448.06   7
   6   1  -9 159928. 8892.44   7
   6  -1  -8 2803.28 1275.74   7
   6   1  -8 885.957 850.160   7
   6  -1  -7 62320.5 4702.02   7
   6   1  -7 53423.4 4569.07   7
   6  -1  -6 35760.2 3285.27   7
   6   1  -6 33869.8 3473.41   7
  -6   1   6 32818.6 1959.93   5
  -6   1   5 180753. 4532.65   5
  -6   1   4 110184. 3396.49   5
  -6   1   3 39129.0 1944.40   5
  -6  -1   2 555.025 228.719   5
  -6   1   2 124.960 239.993   5
  -6  -1   1 408354. 5744.33   5
  -6   1   1 396194. 6622.16   5
  -6   1   0 30151.1 1653.74   5
  -6   1  -1 41245.6 1992.47   5
  -6   1  -2 16726.4 1322.39   5
  -6   1  -3 122274. 3757.56   5
  -6  -1  -3 126864. 4927.97   2
  -6   1  -4 29196.1 1911.57   5
  -6  -1  -4 30446.7 2458.45   2
  -6   1  -5 3618.05 732.917   5
  -6   1  -6 4970.31 881.092   5
  -6   1  -7 55896.1 3043.53   5
  -6   1  -8 6207.78 1046.18   5
  -6   1  -9 113153. 4720.36   5
  -6   1 -10 30688.6 2545.06   5
  -6   1 -11 9030.15 1531.72   5
  -6   1 -12 1602.00 715.039   5
  -6  -1 -13 82338.9 7492.90  12
  -6   1 -13 81529.2 7646.90  12
  -6   1 -13 85268.0 7936.13  11
  -6  -1 -13 89295.8 8322.94  11
  -6   1 -14 11581.1 3079.55  11
  -6  -1 -14 18862.9 3844.22  11
  -6  -1 -14 17729.3 3372.85  12
  -6   1 -14 9224.21 2727.54  12
  -6  -1 -15 10600.9 3150.28  11
  -6   1 -15 13756.0 3238.13  11
  -6  -1 -15 8945.91 2750.95  12
  -6   1 -15 9087.36 2507.98  12
  -6  -1 -16 7792.96 2734.35  11
  -6   1 -16 15929.4 3682.83  11
  -6  -1 -16 3739.13 1597.48  12
  -6   1 -16 11511.7 2948.92  12
  -6   1 -17 19964.4 3777.11  11
  -6  -1 -17 16753.0 3852.22  11
  -6  -1 -17 20990.0 3895.94  12
  -6   1 -17 13883.9 3185.11  12
  -6  -1 -18 5027.39 2331.55  11
  -6  -1 -18 5739.15 2129.48  12
  -6   1 -18 1981.54 1316.57  12
  -6   1 -18 2226.52 1145.87  11
  -6  -1 -19 91.4127 651.799  12
  -6   1 -19-642.503 816.146  12
  -6   1 -19-1353.56 1358.35  11
  -6  -1 -19-63.4129 1093.49  11
  -6  -1 -20 1660.27 1255.86  12
  -6   1 -20 852.973 1021.78  12
  -6   1 -20 2125.80 1222.10  11
  -6  -1 -20-569.849 1145.80  11
  -6  -1 -21-1208.46 1222.97  11
  -6  -1 -21-198.463 612.712  12
  -6   1 -21 650.135 621.833  12
  -6   1 -21-1249.05 1129.41  11
  -6  -1 -22-858.644 687.957  12
  -6   1 -22 2203.00 1080.52  12
   6  -2 -22 366.035 774.348  12
   6   2 -22 776.260 870.331  12
   6  -2 -21 14709.2 2681.63  12
   6   2 -21 7377.38 2138.44  12
   6  -2 -20 386.936 816.057  12
   6   2 -20-336.564 677.545  12
  -6  -2  19 19076.6 3082.77  18
   6  -2 -19 14766.2 3057.57  12
   6   2 -19 10280.3 2702.28  12
  -6  -2  18 9427.00 2264.14  18
  -6  -2  18 7751.72 3279.83  10
  -6   2  17 3711.26 1727.49  18
  -6  -2  17 5129.59 1775.59  18
  -6  -2  17 3182.07 2137.89  10
  -6  -2  16-28.5067 907.157  18
  -6  -2  16 780.898 1137.35  10
  -6   2  16 174.337 849.462  18
  -6  -2  15 42217.6 4794.21  18
  -6   2  15 56923.6 5559.56  18
  -6  -2  15 52969.8 7311.43  10
   6   2 -15 38766.1 5552.71   8
   6   2 -14 12880.2 3182.44   8
  -6   2  14 13115.0 2587.27  18
  -6  -2  14 13559.4 2754.41  18
  -6  -2  14 12664.3 3562.08  10
  -6   2  13 5691.64 1748.45  18
  -6  -2  13 13487.3 3748.57  10
   6   2 -13 11579.7 2777.21   8
  -6  -2  13 10304.7 2230.52  18
   6   2 -12 55969.1 6122.48   8
   6  -2 -11 50427.7 4996.09   8
   6   2 -10 138452. 8907.84   7
   6  -2  -9 5201.11 1594.05   7
   6   2  -9 4831.94 1700.71   7
   6   2  -8 33904.8 4006.18   7
   6  -2  -8 28940.2 3292.75   7
   6   2  -7 102540. 6658.42   7
   6  -2  -7 109784. 6131.76   7
  -6   2   7 97395.3 3716.86   5
   6  -2  -6 62074.9 4355.79   7
   6   2  -6 63667.7 4841.38   7
  -6   2   6 60850.0 2763.63   5
  -6   2   5 208.936 336.428   5
   6  -2  -5 153.328 411.766   7
  -6   2   4 5257.73 787.327   5
  -6   2   3 9911.29 1035.30   5
  -6   2   2 943.030 242.180   5
  -6   2   1 9195.64 987.351   5
  -6   2   0 156255. 4314.58   5
  -6   2  -1 3970.71 692.387   5
  -6   2  -2 4339.47 715.155   5
  -6   2  -3 56366.2 2794.68   5
  -6   2  -4 195293. 5635.84   5
  -6   2  -5 6628.08 1049.63   5
  -6   2  -6 22326.5 2026.41   5
  -6   2  -7 46925.7 3053.64   5
  -6   2  -8 79007.8 4109.46   5
  -6   2  -9 112012. 5090.73   5
  -6   2 -10 20.3540 303.601   5
  -6   2 -11 1890.75 898.326   5
  -6  -2 -12 21709.3 3987.64  11
  -6   2 -12 24255.7 2633.62   5
  -6  -2 -12 16478.0 3280.31  12
  -6   2 -12 17539.6 3447.28  12
  -6   2 -13 31662.0 3039.15   5
  -6  -2 -13 29261.8 4860.27  11
  -6  -2 -13 26909.5 4045.72  12
  -6   2 -13 24337.6 4118.50  12
  -6  -2 -14-552.516 1620.39  11
  -6  -2 -14-1788.57 1518.40  12
  -6   2 -14-376.784 785.066  12
  -6   2 -14 173.652 470.409   5
  -6  -2 -15 14637.7 3614.91  11
  -6  -2 -15 15029.7 3388.94  12
  -6   2 -15 7876.82 2337.88  12
  -6  -2 -16 544.401 786.670  11
  -6  -2 -16 1513.92 1526.80  12
  -6   2 -16-597.927 1138.32  12
  -6  -2 -17 379.102 1067.74  11
  -6  -2 -17 1733.53 1098.17  12
  -6   2 -17 1203.78 1356.72  12
  -6  -2 -18 593.881 902.858  12
  -6   2 -18 303.463 802.774  12
  -6  -2 -18 697.815 1219.49  11
  -6  -2 -19 13175.0 3135.72  11
  -6  -2 -19 19167.1 3174.02  12
  -6   2 -19 9064.91 2442.72  12
  -6  -2 -20 4033.86 1436.94  12
  -6   2 -20 5716.39 1853.19  12
  -6  -2 -20 1914.91 1127.42  11
  -6  -2 -21 359.522 509.815  12
  -6   2 -21-153.030 654.594  12
  -6  -2 -21-1112.68 895.085  11
   6   3 -21 1293.58 844.146  12
   6   3 -20 16557.0 2965.70  12
  -6  -3  19-475.933 1364.28  10
   6   3 -19 973.915 1215.31  12
  -6  -3  18 2023.42 1038.56  18
  -6  -3  18-1140.64 1015.38  10
   6   3 -18 2016.73 1178.40  12
  -6  -3  17-227.990 506.557  18
  -6  -3  17 913.253 1337.06  10
  -6  -3  16 35914.1 4129.06  18
  -6  -3  16 35752.0 6174.51  10
  -6  -3  15 1377.57 1612.15  10
  -6  -3  15 900.695 891.093  18
  -6  -3  14 4363.13 2183.24  10
   6   3 -14 3113.77 1563.07   8
  -6  -3  14 2505.76 1052.01  18
  -6  -3  13 484.378 684.562  18
  -6  -3  13 1399.68 1694.91  10
   6   3 -13-850.878 1724.19   8
  -6  -3  12-636.871 893.318  18
  -6  -3  12 4222.76 2198.30  10
   6   3 -12 2814.10 1533.04   8
   6   3  -9 1631.48 952.680   7
   6   3  -8 4600.88 1534.62   7
  -6   3   8 6884.73 1108.69   5
   6   3  -7 12182.5 2296.73   7
  -6   3   7 13761.5 1424.37   5
   6   3  -6 160710. 8305.21   7
  -6   3   6 147220. 4682.00   5
  -6   3   5 1143.76 455.052   5
   6   3  -5 963.175 644.715   7
  -6   3   4 52498.8 2657.25   5
  -6   3   3 19975.4 1603.47   5
  -6   3   2 99163.5 3601.92   5
  -6   3   1 1730.97 512.188   5
  -6   3   0 1642.31 475.740   5
  -6   3  -1 101568. 3858.23   5
  -6   3  -2 51422.5 2859.20   5
  -6   3  -3 9534.13 1284.42   5
  -6   3  -4 7331.13 1145.65   5
  -6   3  -5 29112.5 2405.80   5
  -6   3  -6 13526.6 1720.38   5
  -6   3  -7 2588.71 857.044   5
  -6   3  -8 20738.2 2390.86   5
  -6   3  -9 1105.81 634.939   5
  -6   3 -10 55736.2 4054.88   5
   6   3  11 208.887 1491.18  17
  -6   3 -11 53.8074 467.319   5
  -6  -3 -11-1376.20 1931.29  11
   6   3  12 3697.50 2547.72  17
  -6   3 -12 1391.62 727.589   5
  -6   3 -12 2147.49 1364.36  12
  -6  -3 -12 889.965 1046.56  11
  -6   3 -13 14130.2 2180.51   5
   6   3  13 13461.5 3835.46  17
  -6   3 -13 16128.2 3569.31  12
  -6  -3 -13 10885.8 3036.44  11
   6   3  14 30081.3 5675.01  17
  -6   3 -14 19786.1 3821.77  12
  -6  -3 -14 20905.5 4187.34  11
   6   3  15 3722.35 2162.58  17
  -6   3 -15 5088.41 1988.05  12
  -6  -3 -15 2924.80 1884.59  11
   6   3  16 1533.84 1460.40  17
  -6   3 -16 1809.32 1470.12  12
  -6  -3 -16-407.933 798.954  11
   6   3  17 391.779 1082.01  17
  -6  -3 -17 3088.98 1827.49  16
  -6  -3 -17 300.562 876.719  11
  -6   3 -17 564.554 908.512  12
   6   3  18 26509.0 4719.86  17
  -6   3 -18 16851.3 3098.86  12
  -6  -3 -18 20714.4 3792.66  11
   6   3  19 1640.61 1002.45  17
  -6   3 -19 4141.46 1270.62  12
  -6  -3 -19 2571.05 1252.84  11
  -6   3 -20 1032.00 789.328  12
  -6  -3 -20 591.961 647.206  11
   6   4 -21 348.757 317.455  21
   6   4 -20 1158.49 508.871  21
  -6  -4  19 15366.9 3467.54  10
  -6  -4  18 1156.19 1169.48  10
  -6  -4  17 57.0930 1234.93  10
   6   4 -16 4839.86 2384.79  14
  -6  -4  16 16222.1 4002.14  10
  -6  -4  15 79618.2 8804.46  10
   6   4 -15 46904.1 6451.49  14
  -6  -4  14-426.031 1434.59  10
   6   4 -14-2455.88 1942.14  14
  -6  -4  13 1750.97 1804.30  10
   6   4 -13 3173.72 1368.10  14
  -6  -4  12 14195.9 3933.19  10
  -6  -4  11 36203.5 5885.22  10
   6   4 -11 45731.7 5316.59   8
  -6  -4  10 1823.46 1329.05  10
   6   4 -10-568.965 1083.89   8
  -6   4   8 14822.0 1623.17   5
  -6   4   7 93998.4 3968.00   5
  -6   4   6 2305.84 692.965   5
  -6   4   5 390.333 357.240   5
  -6   4   4 49655.6 2778.69   5
  -6   4   3 7894.08 1075.28   5
  -6   4   2 28935.7 2066.68   5
  -6   4   1 54122.5 2840.51   5
  -6   4   0 43600.1 2581.25   5
  -6   4  -1 12292.9 1410.37   5
  -6   4  -2 61788.2 3311.02   5
  -6   4  -3 100132. 4450.87   5
  -6   4  -4 428.787 273.695   5
  -6   4  -5 68278.3 3895.77   5
  -6   4  -6 22859.5 2350.41   5
  -6   4  -7 26328.1 2584.78   5
  -6   4  -8 682.674 593.148   5
  -6   4  -9 60865.5 4174.16   5
   6   4   9 60645.9 8070.05  17
  -6   4 -10 19147.3 2396.96   5
   6   4  10 16042.0 4431.76  17
  -6  -4 -10 11522.1 2792.98  11
   6   4  11 1119.34 1190.74  17
  -6   4 -11-81.9786 515.155   5
  -6  -4 -11-35.4144 827.984  11
   6   4  12 9369.22 3517.89  17
  -6  -4 -12 5272.46 2118.95  11
   6   4  13 817.420 1412.86  17
  -6  -4 -13 1122.43 1370.88  11
   6   4  14 2275.74 1842.28  17
  -6  -4 -14-884.203 1210.16  11
   6   4  15 12329.1 3741.34  17
  -6  -4 -15 8062.75 2471.53  11
   6   4  16 3473.13 1930.53  17
  -6  -4 -16 5156.54 2434.70  16
  -6  -4 -16 833.273 1034.17  11
   6   4  17 2049.38 1484.50  17
  -6  -4 -17 2498.39 1490.64  16
  -6  -4 -17 358.284 922.910  11
  -6  -4 -18 4625.89 1987.35  16
   6   4  18-508.484 998.504  17
   6   4  19 19265.1 3468.85  17
  -6  -4 -19 15963.2 2783.38  16
   6   5 -19 1591.81 523.212  21
  -6  -5  18 684.900 1359.66  10
   6   5 -18 334.235 1064.68  14
   6   5 -18-131.876 328.990  21
  -6  -5  17 4300.64 1910.49  10
   6   5 -17 3699.77 2063.19  14
   6   5 -17 705.504 541.317  21
  -6  -5  16 350.505 1241.80  10
   6   5 -16 2829.25 2041.88  14
  -6  -5  15 2875.12 1935.27  10
   6   5 -15 384.761 1266.64  14
  -6  -5  14 10053.7 3129.91  10
   6   5 -14 1622.58 1205.89  14
  -6  -5  13 8302.07 3155.97  10
   6   5 -13 831.651 1233.73  14
  -6  -5  12 1865.82 1452.52  10
  -6  -5  11-806.029 1396.13  10
   6   5 -11 2662.16 2492.70  13
   6   5 -10 12731.3 4383.75  13
  -6  -5  10 11683.7 3542.83  10
  -6  -5   9 12594.0 3474.49  10
   6   5  -9 11793.4 3944.36  13
  -6  -5   8 245.897 1511.44  10
   6   5  -8 2010.67 2355.69  13
  -6  -5   7 26755.6 4995.61  10
   6   5  -7 24742.8 5641.07  13
  -6   5   7 21287.1 1970.77   5
  -6   5   7 29152.4 2705.38  20
  -6  -5   6 20444.1 4234.11  10
  -6   5   6 18970.3 1825.46   5
  -6   5   6 22836.9 2347.09  20
  -6   5   5 59421.2 3218.56   5
  -6   5   4 27553.6 2169.37   5
  -6   5   3 16840.4 1699.58   5
  -6   5   2 27444.1 2164.73   5
  -6   5   1 115390. 4536.56   5
  -6   5   0 35449.0 2494.52   5
  -6   5  -1 28813.0 2318.66   5
  -6   5  -2 29611.5 2419.15   5
  -6   5  -3 109947. 4890.54   5
  -6   5  -4 2149.55 678.185   5
  -6  -5  -5 20586.0 4311.36  16
   6   5   5 21500.1 5144.28  17
  -6   5  -5 18794.0 2220.74   5
   6   5   6 4585.68 2594.81  17
  -6  -5  -6 6766.79 2967.13  16
  -6   5  -6 1845.02 704.727   5
   6   5   7 5382.06 2779.37  17
  -6   5  -7 5639.26 1313.19   5
   6   5   8 1389.62 1773.49  17
  -6   5  -8 725.489 500.177   5
  -6   5  -9 44302.7 3663.37   5
   6   5   9 43037.8 7340.19  17
   6   5  10 19116.9 4781.28  17
   6   5  11 7710.71 2967.61  17
   6   5  12 3883.27 2528.49  17
   6   5  13 45670.8 7289.07  17
   6   5  14 9883.47 3242.78  17
  -6  -5 -14 15317.5 4200.51  16
   6   5  15 2059.63 1396.43  17
  -6  -5 -15 1442.79 1716.30  16
   6   5  16-1101.95 1403.65  17
  -6  -5 -16 2635.82 1978.62  16
   6   5  17-516.650 939.507  17
  -6  -5 -17 1543.01 1750.62  16
   6   5  18 13004.9 2898.09  17
  -6  -5 -18 11395.7 2480.97  16
   6   6 -18 711.569 312.807  21
  -6  -6  17 935.905 966.187  10
   6   6 -17-432.264 741.362  14
   6   6 -17 801.791 390.185  21
  -6  -6  16 520.850 992.326  10
   6   6 -16-1185.38 844.667  14
   6   6 -16 512.789 450.825  21
   6   6 -15 1728.13 1432.66  14
   6   6 -15 3555.68 916.787  21
  -6  -6  15 5161.30 2060.74  10
  -6  -6  14 8218.30 2472.91  10
   6   6 -14 13249.1 1826.41  21
  -6  -6  13 16771.6 3717.82  10
   6   6 -13 9006.80 2786.86  14
   6   6 -13 16918.8 2112.20  21
  -6  -6  12-618.721 1103.31  10
   6   6 -12-1498.00 1882.81  14
   6   6 -12 2658.94 1877.74  13
   6   6 -12 591.609 624.197  21
  -6  -6  11 10197.8 3136.28  10
   6   6 -11 11290.2 4118.24  13
   6   6 -11 11092.1 1719.27  21
  -6  -6  10 56009.4 7224.67  10
   6   6 -10 57153.3 9189.73  13
   6   6 -10 66517.5 4154.51  21
  -6  -6   9 33603.6 5717.39  10
   6   6  -9 38812.3 7604.43  13
   6   6  -9 34779.3 3009.33  21
  -6  -6   8 25040.0 4765.25  10
   6   6  -8 23516.2 6360.20  13
   6   6  -8 22552.0 2396.86  21
  -6  -6   7 1711.94 1777.35  10
   6   6  -7-249.453 1875.35  13
   6   6  -7 2204.06 785.670  21
  -6   6   7 1600.83 723.977  20
  -6  -6   6 5694.31 2508.00  10
   6   6  -6 3918.11 2507.63  13
   6   6  -6 8672.34 1374.69  21
  -6   6   6 7533.46 1505.56  20
  -6  -6   5 911.429 1619.51  10
  -6   6   5 1479.65 725.580  20
  -6  -6   4 17542.8 4067.88  10
  -6   6   4 22388.1 2464.80  20
  -6  -6   3 1770.09 1289.78  10
  -6   6   3 4123.51 1003.14  20
  -6  -6   2 10591.4 2891.00  10
  -6   6   2 11855.6 1474.90   5
  -6   6   2 12908.0 1787.44  20
  -6   6   1 2931.27 869.981  20
  -6   6   1 2523.39 658.069   5
  -6  -6   0 70819.8 7962.56  10
  -6   6   0 67307.0 3631.31   5
  -6   6   0 62752.5 4047.62  20
  -6  -6  -1 50153.3 6809.60  10
  -6   6  -1 47107.2 3055.02   5
  -6   6  -1 47090.4 3484.49  20
  -6  -6  -2 1009.85 1074.00  10
  -6   6  -2-43.7351 247.333   5
  -6   6  -2 409.687 476.373  20
  -6  -6  -3 9465.97 3046.41  10
  -6  -6  -3 9970.06 2952.50  16
  -6   6  -3 9882.09 1518.01  20
  -6   6  -3 12032.4 1603.89   5
  -6  -6  -4 56472.8 6976.20  16
  -6   6  -4 51417.5 3498.99  20
  -6   6  -4 54008.0 3495.82   5
  -6  -6  -5 11407.9 3421.84  16
  -6   6  -5 9131.36 1467.02  20
  -6   6  -5 10764.3 1612.77   5
  -6  -6  -6 3369.36 2083.86  16
  -6   6  -6 2416.74 736.219   5
  -6  -6  -7 37784.7 6336.68  16
   6   6   8 14824.1 4345.00  17
  -6  -6  -8 21871.6 4853.61  16
   6   6   9 1622.08 1821.81  17
  -6  -6  -9 2134.69 1476.64  16
   6   6  10 19128.5 5143.04  17
  -6  -6 -10 19110.0 4637.35  16
  -6  -6 -11 798.670 1745.19  16
   6   6  11-1452.28 1359.78  17
   6   6  12 21781.3 5072.41  17
  -6  -6 -12 23279.6 5097.67  16
   6   6  13-472.689 1022.42  17
  -6  -6 -13 1222.69 1177.82  16
   6   6  14 15767.2 4061.00  17
  -6  -6 -14 18468.0 4206.06  16
  -6  -6 -15 3230.14 1845.68  16
   6   6  15-695.182 864.448  17
  -6  -6 -16 1231.69 1038.15  16
  -6  -6 -17-2.05823 1001.52  16
   6   7 -16 2799.78 1235.86  14
   6   7 -16 2459.97 549.121  21
   6   7 -15 300.362 785.680  14
   6   7 -15-67.7645 212.676  21
  -6  -7  14 1348.84 970.601  10
   6   7 -14 2235.26 1378.61  14
   6   7 -14 2716.66 762.472  21
  -6  -7  13 2755.15 1055.73  10
   6   7 -13 531.676 1178.64  14
   6   7 -13 3789.92 934.461  21
  -6  -7  12 11737.3 2891.71  10
   6   7 -12 8868.95 2652.31  14
   6   7 -12 15715.0 1856.33  21
  -6  -7  11 4455.67 1912.30  10
   6   7 -11 3754.19 2057.03  14
   6   7 -11 7234.11 3373.16  13
   6   7 -11 7897.94 1373.74  21
  -6  -7  10-442.132 1241.67  10
   6   7 -10 2662.85 2527.17  13
   6   7 -10 892.644 599.188  21
  -6  -7   9 19792.6 4065.50  10
   6   7  -9 22305.9 5972.31  13
   6   7  -9 18079.3 2047.89  21
   6   7  -8 5130.05 3093.29  13
  -6  -7   8 5298.27 2562.61  10
   6   7  -8 5612.51 1193.60  21
  -6  -7   7 3812.65 1892.04  10
   6   7  -7 3849.34 2947.58  13
   6   7  -7 7323.18 1292.38  21
  -6  -7   6 287.331 1371.68  10
   6   7  -6-152.504 1621.60  13
  -6   7   6 1578.16 835.978  20
  -6  -7   5 31629.4 5448.12  10
   6   7  -5 27279.0 6470.88  13
  -6   7   5 34137.4 3177.87  20
  -6  -7   4 8276.55 2844.23  10
   6   7  -4 2770.99 1910.84  13
  -6   7   4 8175.61 1594.23  20
  -6  -7   3 5196.95 2364.06  10
  -6   7   3 8688.97 1611.60  20
  -6  -7   2-632.419 1411.06  10
  -6   7   2 718.538 516.537  20
  -6  -7   1 49281.5 6733.56  10
  -6   7   1 48713.7 3728.01  20
  -6  -7   0 8495.65 3085.92  10
  -6   7   0 9014.47 1564.62  20
  -6  -7  -1 9408.92 2724.12  10
  -6   7  -1 8345.07 1514.14  20
  -6  -7  -2 2821.31 2045.52  10
  -6   7  -2 1392.27 538.256  20
  -6  -7  -3 34846.8 5811.50  10
  -6   7  -3 34049.6 3062.51  20
  -6  -7  -4-1723.51 922.767  10
  -6   7  -4 618.970 526.448  20
  -6  -7  -5 3543.73 1608.54  16
  -6  -7  -5 2535.90 1096.65  10
  -6   7  -5 5638.30 1199.17  20
  -6  -7  -6 1492.27 2062.47  16
  -6  -7  -6 1096.37 1479.38  10
  -6   7  -6 489.995 333.080  20
  -6  -7  -7 1711.59 1886.82  16
  -6  -7  -7 1814.64 1426.72  10
  -6   7  -7 3790.64 941.647  20
  -6  -7  -8-565.191 1113.87  16
  -6  -7  -9 18640.9 4213.86  16
  -6  -7 -10 772.525 1022.31  16
  -6  -7 -11 1602.40 1480.36  16
  -6  -7 -12 4828.87 2057.27  16
  -6  -7 -13 8621.10 2538.64  16
  -6  -7 -14 3100.99 1626.45  16
  -6  -7 -15 1860.52 1027.58  16
  -6  -7 -15 3964.03 1387.11  10
   6   8 -13 3010.16 1423.43  14
   6   8 -12 2146.82 1372.21  14
   6   8 -11 1067.91 1521.52  14
   6   8 -10 4667.27 2237.68  14
   6   8 -10 10402.4 3235.28  13
   6   8  -9 7229.95 3353.88  13
   6   8  -8 4702.56 2726.50  13
   6   8  -7 4879.08 3054.53  13
  -6  -8   6-701.070 1205.33  10
   6   8  -6 2049.05 1894.42  13
  -6  -8   5 10669.1 2894.67  10
   6   8  -5 11571.8 4242.07  13
  -6   8   5 13705.0 1927.39  20
  -6  -8   4 710.555 784.958  10
  -6   8   4 575.309 764.323  20
  -6   8   3-893.640 575.431  20
  -6  -8   3 1058.60 1276.03  10
  -6  -8   2-308.974 784.064  10
   6   8  -2-1834.10 2425.76  13
  -6   8   2 1049.03 737.089  20
  -6   8   1 2053.91 847.746  20
  -6  -8   1 2604.45 1568.87  10
  -6  -8   0 6281.76 2369.51  10
  -6   8   0 6383.51 1272.58  20
  -6  -8  -1 1898.64 1063.21  10
  -6   8  -1 501.097 306.509  20
  -6  -8  -2 5936.05 2245.33  10
  -6   8  -2 3507.21 911.059  20
  -6  -8  -3 8810.51 2549.57  10
  -6   8  -3 8418.96 1401.77  20
  -6  -8  -4 36171.6 5348.14  10
  -6   8  -4 37149.3 2891.58  20
  -6  -8  -5 4554.22 1826.66  10
  -6   8  -5 4039.51 924.747  20
  -6  -8  -6 966.240 979.707  10
  -6   8  -6 2130.66 604.125  20
  -6  -8  -7-613.550 1065.60  10
  -6   8  -7 465.490 326.136  20
  -6  -8  -8 3791.64 1602.41  16
  -6  -8  -8 15825.8 3365.78  10
  -6  -8  -9 759.519 912.871  16
  -6  -8  -9 8376.82 2351.66  10
  -6  -8 -10 672.317 989.519  16
  -6  -8 -10 1367.18 791.028  10
  -6  -8 -11-435.348 598.678  16
  -6  -8 -11-391.207 788.422  10
   6   9  -8 236.781 797.069  14
   6   9  -8 2675.59 2034.03  13
   6   9  -7 2814.66 1401.44  14
   6   9  -7 10754.3 3463.36  13
   6   9  -6 10892.5 3239.57  13
   6   9  -5 84.1533 1199.89  13
   6   9  -4-923.239 1318.48  13
   6   9  -3 7852.72 2852.49  13
   6   9  -2 10205.0 3375.29  13
  -6   9   2 12743.0 1565.55  20
   6   9  -1 5623.53 2681.37  13
  -6   9   1 4206.66 921.629  20
   6   9   0 2314.06 1947.58  13
  -6   9   0 6072.91 1106.88  20
   6   9   1 13680.1 3909.77  13
  -6   9  -1 14883.9 1663.97  20
   6   9   2 1018.71 1598.16  13
  -6   9  -2 2604.48 677.099  20
   6   9   3-2927.97 2297.00  13
  -6   9  -3 844.092 404.260  20
   6   9   4 5760.03 2680.05  13
  -6   9  -4 962.016 422.761  20
   6   9   5-1189.01 2105.02  13
  -6   9  -5-97.4968 198.943  20
   6   9   6 4420.97 2308.53  13
  -6   9  -6 1093.07 361.057  20
   7   0 -22 3217.66 1308.62  12
   7   0 -21-1147.21 1265.71  12
   7   0 -20-572.938 911.715  12
  -7   0  19 1251.27 1296.03  18
  -7   0  18 24220.9 3745.36  18
  -7   0  17 640.041 836.137  18
  -7   0  16-670.046 773.259  18
  -7   0  16 2499.23 1722.22  10
   7   0 -15 370.200 965.201   8
  -7   0  15 23.1127 1254.65  18
  -7   0  15-1699.24 2045.14  10
   7   0 -14 3630.99 1694.30   8
  -7   0  14 5571.62 1851.67  18
  -7   0  14 4537.04 2638.56  10
   7   0 -13-902.009 1281.52   8
  -7   0  13 556.586 664.365  18
  -7   0  13-318.129 1154.67  10
   7   0 -11 345.255 731.029   7
   7   0 -10 1212.20 1213.84   7
   7   0  -9-359.590 725.498   7
   7   0  -8 19399.1 3100.97   7
   7   0  -7 144.143 719.769   7
   7   0  -6-98.2026 784.449   7
  -7   0   5 1022.91 494.368   5
  -7   0   4 17052.3 1357.16   5
  -7   0   3 394.127 176.798   5
  -7   0   2 344673. 6166.32   5
  -7   0   1 609.396 187.598   5
  -7   0   0 192988. 4310.16   5
  -7   0  -1 157.060 142.521   5
  -7   0  -2 898827. 11103.3   5
  -7   0  -3 689.431 583.612   2
  -7   0  -3 540.754 185.485   5
  -7   0  -4 5998.92 769.421   5
  -7   0 -12 13862.6 3095.61  11
  -7   0 -12 12107.1 2796.80  12
  -7   0 -13 604.188 1090.91  11
  -7   0 -13-430.726 940.281  12
  -7   0 -14 19272.0 3902.96  12
  -7   0 -14 16504.9 3736.73  11
  -7   0 -15 272.695 1330.12  12
  -7   0 -15-1125.45 1272.03  11
  -7   0 -16 9388.05 2654.13  12
  -7   0 -16 5897.84 2481.07  11
  -7   0 -17 86.7432 798.873  11
  -7   0 -17 294.879 1083.50  12
  -7   0 -18 2228.35 1289.61  11
  -7   0 -18 225.355 877.740  12
  -7   0 -19-1632.26 1265.65  12
  -7   0 -19-1449.59 839.780  11
  -7   0 -20 36245.8 4296.12  12
  -7   0 -20 31244.3 4056.39  11
  -7   0 -21 63.2574 569.286  12
   7  -1 -22 8008.54 1911.07  12
   7   1 -22 4113.26 1473.66  12
   7  -1 -21 5954.45 1953.00  12
   7   1 -21 4599.18 1808.53  12
   7  -1 -20-1013.23 961.912  12
   7   1 -20 2958.01 1491.54  12
  -7  -1  19 25189.8 3734.83  18
  -7  -1  18 10596.6 2495.63  18
  -7   1  18 12360.8 2639.88  18
  -7   1  17 2524.75 1712.79  18
  -7  -1  17 562.976 1465.71  10
  -7  -1  17 2602.72 1576.50  18
  -7   1  16 5341.82 1977.78  18
  -7  -1  16 5020.95 1820.89  18
  -7  -1  16 5936.37 2732.13  10
   7  -1 -15 2963.86 1384.71   8
  -7   1  15 2410.06 1211.12  18
  -7  -1  15 3738.34 1704.18  18
  -7  -1  15 1773.49 1236.40  10
  -7   1  14-715.199 1140.78  18
  -7  -1  14-1850.96 1668.38  10
  -7  -1  14-127.520 886.669  18
   7   1 -14 1526.68 1506.26   8
   7  -1 -14 2270.30 1855.46   8
   7  -1 -13 411.983 814.083   8
  -7   1  13 662.542 876.278  18
  -7  -1  13 912.383 987.352  18
  -7  -1  13-618.139 966.479  10
   7   1 -13 3.10415 1340.63   8
  -7  -1  12 53544.1 5140.46  18
   7  -1 -12 55234.2 5828.60   8
   7   1 -11 23499.1 4085.50   7
   7  -1 -10 26689.6 3916.00   7
   7   1 -10 27844.5 4091.27   7
   7  -1  -9 24946.2 3579.91   7
   7   1  -9 23786.0 3624.56   7
   7  -1  -8 35205.5 3982.54   7
   7   1  -8 33719.7 4215.78   7
   7  -1  -7 93333.0 6214.17   7
   7   1  -7 81642.6 6074.99   7
   7  -1  -6 54549.7 4486.36   7
   7   1  -6 49988.6 4598.40   7
  -7   1   6 58325.2 2817.27   5
  -7   1   5 29017.4 1881.19   5
  -7   1   4 52081.9 2489.63   5
  -7   1   3 13190.9 1207.60   5
  -7  -1   2 33545.8 1615.73   5
  -7   1   2 36222.6 1954.17   5
  -7   1   1 1859.77 406.669   5
  -7   1   0 139840. 3895.64   5
  -7   1  -1 302448. 6080.64   5
  -7  -1  -2 3226.32 833.049   2
  -7   1  -2 3655.68 622.915   5
  -7   1  -3 48556.5 2437.12   5
  -7  -1  -3 44053.6 2991.27   2
  -7   1  -4 1909.96 485.020   5
  -7   1  -5 73978.5 3202.57   5
  -7   1  -6 13991.1 1413.25   5
  -7   1  -7 134204. 4780.21   5
  -7   1  -8 5875.10 1037.02   5
  -7   1  -9 3011.57 825.810   5
  -7   1 -10 33575.4 2694.74   5
  -7  -1 -12 16584.2 3335.95  12
  -7   1 -12 6245.53 2341.94  12
  -7   1 -12 6785.95 2199.98  11
  -7  -1 -12 13268.9 3250.29  11
  -7  -1 -13 3425.11 1766.32  12
  -7   1 -13 3593.79 1819.27  12
  -7   1 -13 2712.66 1625.25  11
  -7  -1 -13 3520.45 1890.99  11
  -7  -1 -14 2335.21 1599.62  12
  -7   1 -14 7653.85 2453.97  12
  -7   1 -14 4194.32 2005.53  11
  -7  -1 -14 3414.37 1749.87  11
  -7  -1 -15 32856.6 4913.20  12
  -7   1 -15 31106.6 4858.11  12
  -7   1 -15 35980.1 5068.84  11
  -7  -1 -15 35561.7 5528.11  11
  -7   1 -16 380.238 1354.69  11
  -7  -1 -16 4695.77 1932.18  12
  -7   1 -16 1847.87 1523.22  12
  -7  -1 -16 2161.72 1479.56  11
  -7  -1 -17 4497.35 2067.45  11
  -7  -1 -17 7965.10 2668.19  12
  -7   1 -17 2924.28 1697.22  12
  -7   1 -17 3380.55 1311.99  11
  -7  -1 -18 3110.43 1350.59  12
  -7   1 -18 2539.57 1586.56  12
  -7   1 -18 1357.07 1031.35  11
  -7  -1 -18 1659.42 1203.42  11
  -7  -1 -19 1429.90 1140.84  12
  -7   1 -19 1449.51 1099.94  12
  -7   1 -19 1076.35 1020.82  11
  -7  -1 -19-317.841 1044.58  11
  -7  -1 -20-222.188 542.981  12
  -7   1 -20 94.1466 596.825  12
  -7  -1 -20 540.625 598.788  11
  -7  -1 -21 428.693 581.974  12
  -7   1 -21 100.691 449.072  12
   7   2 -22 1313.12 937.903  12
   7  -2 -21 9526.37 2039.59  12
   7   2 -21 7815.76 1999.03  12
   7  -2 -20-1284.86 1363.30  12
   7   2 -20 1156.49 895.211  12
  -7  -2  19 4167.77 1658.61  18
   7  -2 -19 3358.61 1690.09  12
   7   2 -19 4159.85 1965.69  12
  -7  -2  18 1226.70 993.619  18
  -7  -2  18-775.191 984.935  10
  -7   2  17 17678.7 3184.34  18
  -7  -2  17 17195.0 3015.53  18
  -7  -2  17 13156.0 3939.30  10
  -7   2  16 13487.4 2812.58  18
  -7  -2  16 15442.9 2985.24  18
  -7  -2  16 11247.9 3742.92  10
  -7  -2  15 428.570 863.422  18
  -7  -2  15 2319.34 2387.81  10
  -7   2  15 2356.16 1405.47  18
  -7  -2  14 23951.3 3632.95  18
  -7   2  14 19734.0 3278.94  18
   7   2 -14 18893.1 3779.51   8
  -7  -2  14 20304.6 4728.24  10
   7   2 -13 12382.0 3168.76   8
  -7  -2  13 17715.4 3061.19  18
  -7  -2  13 15194.3 4265.96  10
  -7   2  13 17409.7 3021.37  18
  -7   2  12 26137.3 3618.87  18
  -7  -2  12 27919.4 3876.11  18
  -7  -2  12 24443.7 4784.40  10
   7   2 -10 39450.1 4962.84   7
   7  -2  -9 142534. 8186.94   7
   7   2  -9 131631. 8709.04   7
   7  -2  -8 828.240 573.039   7
   7   2  -8 1105.49 1126.52   7
   7  -2  -7 56000.6 4697.64   7
   7   2  -7 56690.6 5213.48   7
  -7   2   7 58752.6 3026.00   5
   7  -2  -6 1185.85 829.651   7
   7   2  -6 1320.89 909.274   7
  -7   2   6 706.054 395.174   5
   7  -2  -5 770.147 427.436   7
  -7   2   5 955.766 424.706   5
  -7   2   4 9850.69 1156.23   5
  -7   2   3 365823. 7426.25   5
  -7   2   2 94218.0 3499.87   5
  -7   2   1 3608.77 617.678   5
  -7   2   0 65048.7 2858.08   5
  -7   2  -1 185074. 5062.64   5
  -7   2  -2 313127. 6951.31   5
  -7   2  -3 416.759 298.964   5
  -7   2  -4 65329.9 3260.76   5
  -7   2  -5 65316.9 3356.51   5
  -7   2  -6 123681. 4913.41   5
  -7   2  -7-21.2693 347.329   5
  -7   2  -8 5298.93 1112.24   5
  -7   2  -9 20493.0 2169.13   5
  -7   2 -10 53743.3 3600.91   5
  -7   2 -11 18227.7 2198.53   5
  -7  -2 -11 17612.9 3198.24  12
  -7   2 -11 13366.7 3050.52  12
  -7  -2 -11 13492.0 3375.86  11
  -7  -2 -12 201.788 896.255  12
  -7   2 -12 940.611 1324.44  12
  -7   2 -12 496.437 545.071   5
  -7  -2 -12 213.331 1234.89  11
  -7  -2 -13 1298.32 1075.46  12
  -7   2 -13 1548.63 1281.98  12
  -7   2 -13 2193.28 823.914   5
  -7  -2 -13 2185.40 1397.65  11
  -7   2 -14-130.269 948.858  12
  -7  -2 -14-758.766 1312.94  11
  -7  -2 -15-122.709 1098.46  11
  -7  -2 -15 499.446 1218.17  12
  -7   2 -15 61.0405 824.556  12
  -7  -2 -16 9945.73 2644.50  12
  -7   2 -16 13361.6 3194.30  12
  -7  -2 -16 11813.1 3271.21  11
  -7  -2 -17 3790.81 1594.87  12
  -7   2 -17 2379.01 1446.22  12
  -7  -2 -17 3111.84 1390.76  11
  -7  -2 -18 7663.89 2044.64  12
  -7   2 -18 10929.0 2678.75  12
  -7  -2 -18 6793.86 2310.19  11
  -7  -2 -19 584.355 709.588  12
  -7   2 -19 1714.92 1282.32  12
  -7  -2 -19 1274.81 1139.64  11
  -7  -2 -20 6146.00 1523.65  12
  -7   2 -20 7113.86 1785.00  12
  -7   2 -21 3596.57 1164.02  12
   7   3 -21 1150.27 828.861  12
   7   3 -20 3519.04 1382.00  12
  -7  -3  19-956.790 1621.73  10
   7   3 -19 1287.22 1096.70  12
  -7  -3  18 47225.9 4422.85  18
  -7  -3  18 50690.1 6963.42  10
  -7  -3  17 691.932 1034.09  18
  -7  -3  17 2381.61 1879.51  10
  -7  -3  16 10858.5 2249.46  18
  -7  -3  16 15262.6 4321.90  10
  -7  -3  15 554.508 1173.88  18
  -7  -3  15-43.2565 1413.97  10
  -7  -3  14 17983.0 3037.34  18
  -7  -3  14 15169.1 3951.16  10
   7   3 -13 4927.61 2359.95   8
  -7  -3  13 3993.80 1378.71  18
  -7  -3  13 1492.48 1567.79  10
  -7  -3  12 27638.7 3750.40  18
   7   3 -12 27186.1 4358.09   8
  -7  -3  12 25678.9 5156.87  10
  -7  -3  11-375.177 554.783  18
  -7  -3  11 756.985 946.510  10
   7   3 -10 3830.75 1863.90   7
  -7  -3  10 2363.37 1607.21  10
   7   3  -9 9558.09 2458.84   7
   7   3  -8 108942. 7724.07   7
  -7   3   8 111767. 4545.86   5
   7   3  -7 12856.1 2565.62   7
  -7   3   7 15635.0 1595.12   5
   7   3  -6-767.642 963.790   7
  -7   3   6 417.534 445.614   5
   7   3  -5-109.778 1041.90   7
  -7   3   5 1872.07 613.977   5
  -7   3   4 301409. 7160.68   5
  -7   3   3 13590.8 1429.34   5
  -7   3   2 10460.0 1246.87   5
  -7   3   1 2529.81 594.235   5
  -7   3   0 27917.5 2044.43   5
  -7   3  -1 2080.30 633.931   5
  -7   3  -2 30010.6 2244.16   5
  -7   3  -3 7155.69 1083.45   5
  -7   3  -4 39044.7 2738.76   5
  -7   3  -5 9446.19 1348.09   5
  -7   3  -6 18861.3 2095.08   5
  -7   3  -7 2269.84 748.121   5
  -7   3  -8 14171.5 1896.38   5
  -7   3  -9 11243.7 1771.86   5
  -7   3 -10 235.140 341.639   5
  -7  -3 -10 2773.46 2029.69  11
  -7  -3 -11 2712.40 1930.78  11
   7   3  11 4104.93 2560.01  17
  -7   3 -11 5317.53 1781.96  12
  -7   3 -11 4755.87 1253.50   5
  -7   3 -12 25385.1 2715.94   5
   7   3  12 32115.0 5441.61  17
  -7  -3 -12 34120.2 5438.57  16
  -7   3 -12 20153.8 3849.56  12
  -7  -3 -12 23521.6 4513.07  11
   7   3  13 2625.02 2146.52  17
  -7  -3 -13 5038.28 2475.84  16
  -7   3 -13 172.625 1553.17  12
  -7  -3 -13 883.493 711.128  11
  -7  -3 -14 1406.97 1346.92  11
  -7  -3 -14 4580.93 2165.90  16
  -7   3 -14 3630.55 1630.75  12
  -7  -3 -15 2067.52 1768.50  16
  -7   3 -15-1058.38 1242.93  12
  -7  -3 -15 1172.11 943.009  11
  -7  -3 -16 11352.5 3095.45  16
  -7   3 -16 7177.63 2316.33  12
  -7  -3 -16 8586.85 2630.74  11
  -7   3 -17 3142.05 1245.46  12
  -7  -3 -17 1828.31 1239.77  11
  -7   3 -18-448.340 1104.37  12
  -7   3 -19 590.709 668.006  12
  -7  -3 -20 6436.30 1853.57  19
  -7   3 -20 5066.58 1350.24  12
   7   4 -20 1420.78 567.829  21
  -7  -4  19-687.186 831.922  10
  -7  -4  18-948.344 1301.96  10
  -7  -4  17 46343.9 6492.78  10
  -7  -4  16 4603.14 2597.47  10
  -7  -4  15 583.869 1502.40  10
  -7  -4  14 1771.76 1079.52  10
  -7  -4  13 39846.3 6438.29  10
   7   4 -13 23877.4 4599.59  14
  -7  -4  12-58.0105 1254.30  10
  -7  -4  11 454.279 1051.57  10
   7   4 -11 455.273 775.429   8
  -7  -4  10 2768.22 1049.52  10
  -7  -4   9 14019.0 3611.02  10
   7   4  -8 1899.85 1499.06   7
  -7  -4   8-1609.39 1094.39  10
  -7   4   8 1265.00 658.131   5
  -7   4   7 20644.7 1929.66   5
  -7   4   6 11340.8 1415.66   5
  -7   4   5 50177.8 2985.44   5
  -7   4   4 4348.14 847.946   5
  -7   4   3 61962.7 3301.72   5
  -7   4   2 28657.9 2204.24   5
  -7   4   1 10060.1 1247.64   5
  -7   4   0 12037.7 1425.25   5
  -7   4  -1 236029. 6744.39   5
  -7   4  -2 4178.89 863.333   5
  -7   4  -3 35960.9 2685.12   5
  -7   4  -4 62952.7 3641.37   5
  -7   4  -5 168918. 6351.14   5
  -7   4  -6 10232.7 1592.09   5
   7   4   7 69962.3 8312.34  17
  -7  -4  -7 81260.7 8534.22  16
  -7   4  -7 72000.8 4318.55   5
  -7   4  -8 46482.7 3549.22   5
   7   4   8 41615.0 6789.99  17
  -7  -4  -8 53807.2 7131.30  16
  -7   4  -9 10591.0 1761.33   5
  -7  -4  -9 17385.0 4221.53  16
   7   4  10 3014.98 1204.57  17
  -7   4 -10 1508.20 713.192   5
   7   4  11-45.7566 1121.40  17
  -7  -4 -11 4346.47 2575.56  16
   7   4  12 1542.32 1521.89  17
  -7  -4 -12 6744.82 2795.97  16
   7   4  13 5271.65 2406.23  17
  -7  -4 -13 7655.17 3290.08  16
  -7  -4 -14 9365.62 3284.72  16
   7   4  14 6984.43 2889.29  17
   7   4  15 3535.27 1888.19  17
  -7  -4 -15 4437.27 1771.67  16
  -7  -4 -16 2132.52 1585.23  16
   7   4  16 3260.24 1841.48  17
   7   4  17 11646.8 2980.11  17
  -7  -4 -17 13626.1 3145.37  16
  -7  -4 -18 4470.66 1655.00  19
   7   4  18 3550.30 1684.40  17
  -7  -4 -18 1513.56 895.850  16
  -7  -4 -19 186.838 681.816  19
   7   5 -19 1545.35 490.502  21
  -7  -5  18 2575.11 1477.52  10
   7   5 -18 3828.81 903.669  21
  -7  -5  17 3113.53 1810.14  10
   7   5 -17 4517.29 976.995  21
  -7  -5  16 1588.71 1346.23  10
   7   5 -16 1524.21 1348.00  14
   7   5 -16 121.607 464.049  21
  -7  -5  15-99.4779 1105.31  10
   7   5 -15 129.786 1568.48  14
  -7  -5  14-385.369 1532.87  10
   7   5 -14-566.534 986.969  14
  -7  -5  13 3819.88 2203.83  10
   7   5 -13-674.865 1133.11  14
  -7  -5  12 9310.80 3154.10  10
  -7  -5  11 1759.70 1427.45  10
  -7  -5  10 2715.34 2219.46  10
  -7  -5   9-154.607 1198.09  10
  -7  -5   8 23729.5 4851.26  10
   7   5  -8 33939.2 6607.94  13
  -7   5   7 7029.75 1212.31   5
  -7  -5   7 9466.14 3041.79  10
   7   5  -7 7496.93 3363.45  13
  -7   5   6 649.631 489.312   5
  -7  -5   6 368.658 1002.17  10
  -7   5   6 1767.61 903.306  20
  -7   5   5 3175.17 847.276   5
  -7   5   5 2410.67 909.179  20
  -7  -5   4 42871.4 6151.24  10
  -7   5   4 55027.6 3231.30   5
  -7   5   4 49869.0 3490.15  20
  -7  -5   3 25570.9 4682.55  10
  -7   5   3 23809.5 2122.02   5
  -7   5   3 21389.5 2212.15  20
  -7  -5   2 5470.87 1917.17  10
  -7   5   2 7405.17 1130.89   5
  -7  -5   1 4035.49 2089.71  10
  -7   5   1 2529.27 662.607   5
  -7  -5   0 2164.88 1770.81  10
  -7   5   0 2209.37 522.521   5
  -7  -5  -1 33429.6 5389.71  10
  -7   5  -1 36199.0 2685.61   5
  -7  -5  -2 915.211 1315.80  16
  -7  -5  -2 4092.89 2475.71  10
  -7   5  -2 2837.11 735.802   5
  -7  -5  -3 22293.0 4342.61  16
  -7   5  -3 20093.7 2102.27   5
  -7  -5  -4 4554.00 1978.90  16
  -7   5  -4 3106.67 767.549   5
  -7   5  -5 52217.5 3538.25   5
  -7  -5  -5 57505.4 7161.68  16
  -7   5  -6 16929.8 2051.47   5
  -7  -5  -6 26407.3 5001.54  16
  -7   5  -7 14720.4 1987.12   5
   7   5   7 23125.3 5237.89  17
  -7  -5  -7 20181.2 4555.34  16
   7   5   8 8051.51 3470.83  17
  -7  -5  -8 8380.78 3465.32  16
  -7   5  -8 8561.27 1534.26   5
   7   5   9 11651.3 3665.07  17
  -7  -5  -9 16771.4 4343.91  16
   7   5  10 15552.6 4087.21  17
  -7  -5 -10 10978.2 3698.72  16
   7   5  11 49072.4 7602.24  17
  -7  -5 -11 60697.8 8037.78  16
   7   5  12 4933.90 2288.32  17
  -7  -5 -12 9497.71 3516.03  16
   7   5  13 12626.6 3804.68  17
  -7  -5 -13 16048.6 4188.98  16
   7   5  14-20.8087 1277.18  17
  -7  -5 -14 3210.10 2081.62  16
   7   5  15 18590.3 4048.95  17
  -7  -5 -15 22215.9 4412.73  16
   7   5  16 1803.27 1332.56  17
  -7  -5 -16 2002.37 1468.49  16
  -7  -5 -17-2698.67 1511.36  16
  -7  -5 -18 365.016 764.661  16
  -7  -6  17-102.139 572.923  10
   7   6 -17-10.0415 214.822  21
  -7  -6  16 588.951 964.296  10
   7   6 -16 212.842 279.018  21
  -7  -6  15 8924.24 2479.97  10
   7   6 -15 3872.21 1897.48  14
   7   6 -15 8498.13 1301.87  21
  -7  -6  14 9357.78 2528.08  10
   7   6 -14 6075.63 2209.03  14
   7   6 -14 9580.55 1472.87  21
  -7  -6  13-726.832 1383.76  10
   7   6 -13 1310.43 1079.34  14
   7   6 -13-145.914 292.469  21
  -7  -6  12 59.7928 1248.57  10
   7   6 -12 1940.47 1503.98  14
   7   6 -12 2382.24 2333.59  13
   7   6 -12 1235.87 631.332  21
  -7  -6  11 4479.58 1940.21  10
   7   6 -11 7084.93 3391.13  13
   7   6 -11 5299.02 1193.92  21
  -7  -6  10 2678.32 1968.99  10
   7   6 -10-1103.04 2248.35  13
   7   6 -10 1666.97 707.281  21
  -7  -6   9 5264.35 1913.84  10
   7   6  -9 5169.78 3214.12  13
   7   6  -9 5619.23 1196.22  21
  -7  -6   8 1474.15 1053.42  10
   7   6  -8 1895.15 2219.07  13
   7   6  -8 2969.44 813.064  21
  -7  -6   7 7449.04 2694.73  10
   7   6  -7 9182.03 3747.71  13
  -7  -6   6 8297.46 2983.42  10
   7   6  -6 9075.12 3765.17  13
  -7   6   6 10865.4 1813.12  20
  -7  -6   5 8132.52 3202.12  10
  -7   6   5 7260.98 1420.39  20
  -7  -6   4 5695.94 2517.58  10
  -7   6   4 4329.94 1094.39  20
  -7  -6   3 14508.8 3612.31  10
  -7   6   3 15272.6 1748.24   5
  -7   6   3 14456.3 1990.58  20
  -7  -6   2 34962.3 5606.23  10
  -7   6   2 35003.9 2659.52   5
  -7   6   2 38828.8 3163.71  20
  -7  -6   1 18732.0 4074.57  10
  -7   6   1 20452.1 2047.54   5
  -7   6   1 17723.7 2115.26  20
  -7  -6   0 5521.85 1960.76  10
  -7   6   0 4770.56 944.633   5
  -7   6   0 5626.66 1158.59  20
  -7  -6  -1 10136.8 2792.80  16
  -7  -6  -1 14257.2 3616.32  10
  -7   6  -1 14927.3 1775.80   5
  -7   6  -1 13889.5 1851.44  20
  -7  -6  -2 135376. 11572.1  10
  -7  -6  -2 118169. 10054.7  16
  -7   6  -2 137752. 5481.76   5
  -7   6  -2 122465. 5488.19  20
  -7  -6  -3 12657.5 3377.61  16
  -7  -6  -3 13730.6 3720.88  10
  -7   6  -3 13429.7 1736.57  20
  -7   6  -3 15158.7 1828.88   5
  -7  -6  -4 616.417 1293.08  16
  -7  -6  -4 3712.30 2481.92  10
  -7  -6  -5 1792.47 1497.00  16
  -7  -6  -6 34060.3 5707.00  16
  -7  -6  -7 2247.09 1861.60  16
  -7  -6  -8 2042.11 1933.15  16
  -7  -6  -9 124.684 1256.73  16
  -7  -6 -10 13709.9 3926.77  16
  -7  -6 -11 13455.6 3844.83  16
  -7  -6 -12 24469.2 4840.88  16
  -7  -6 -13-696.373 1133.69  16
  -7  -6 -14 10760.5 2905.97  16
  -7  -6 -15-1177.00 1086.45  16
  -7  -6 -16 3575.23 1541.81  16
   7   7 -15 388.106 840.699  14
   7   7 -15 550.554 253.475  21
  -7  -7  14 6864.39 1894.57  10
   7   7 -14 5528.73 1915.79  14
   7   7 -14 7811.39 1109.83  21
  -7  -7  13 758.685 696.040  10
   7   7 -13 458.017 240.392  21
  -7  -7  12 3919.55 1734.47  10
   7   7 -12 536.992 1152.96  14
   7   7 -12 3845.62 866.603  21
  -7  -7  11 3837.11 1589.85  10
   7   7 -11 4155.24 2075.29  14
   7   7 -11 6077.14 2898.26  13
   7   7 -11 5036.77 1001.64  21
  -7  -7  10 12188.2 3070.91  10
   7   7 -10 6435.46 2871.56  13
   7   7 -10 13428.5 1615.18  21
  -7  -7   9 8967.51 2774.71  10
   7   7  -9 7284.96 3414.38  13
   7   7  -9 7266.82 1236.41  21
  -7  -7   8 4021.45 2293.12  10
   7   7  -8 4144.36 2212.16  13
   7   7  -8 3015.34 752.754  21
  -7  -7   7 28191.9 5038.61  10
   7   7  -7 28742.2 6774.91  13
  -7  -7   6 10762.4 3253.55  10
   7   7  -6 13987.1 5024.21  13
  -7  -7   5 19344.0 4179.29  10
   7   7  -5 21112.8 5777.62  13
  -7   7   5 21286.5 2511.22  20
  -7  -7   4 6165.57 2436.26  10
   7   7  -4 4178.98 2357.39  13
  -7   7   4 7275.01 1490.88  20
  -7  -7   3 4347.62 1470.62  10
  -7   7   3 8459.38 1579.21  20
  -7  -7   2 3631.68 2046.69  10
  -7   7   2 1528.24 708.367  20
  -7  -7   1 1004.62 2169.81  10
  -7   7   1 523.989 442.061  20
  -7  -7   0 707.061 1154.95  10
  -7   7   0 814.407 572.482  20
  -7  -7  -1 51850.2 7235.93  10
  -7   7  -1 48358.1 3509.03  20
  -7  -7  -2 1049.10 1397.50  10
  -7   7  -2 143.743 407.623  20
  -7  -7  -3 22235.9 4649.16  10
  -7   7  -3 21749.7 2253.97  20
  -7  -7  -4 2065.80 1824.78  10
  -7   7  -4 823.749 383.724  20
  -7  -7  -5 1863.03 1221.56  16
  -7  -7  -5 920.236 1856.93  10
  -7   7  -5 566.314 255.630  20
  -7  -7  -6-2352.08 2078.72  16
  -7  -7  -6 3853.29 2372.50  10
  -7  -7  -7 9863.41 3073.42  16
  -7  -7  -7 20177.7 4581.06  10
  -7  -7  -8 9880.17 3225.84  16
  -7  -7  -8 11944.9 3306.94  10
  -7  -7  -9 657.872 1180.39  16
  -7  -7  -9 1996.44 1777.92  10
  -7  -7 -10 2654.01 1592.31  16
  -7  -7 -10 2463.02 1776.94  10
  -7  -7 -11 15751.2 3523.66  16
  -7  -7 -11 26802.7 4435.35  10
  -7  -7 -12 7188.10 2299.55  16
  -7  -7 -12 4834.39 1776.34  10
  -7  -7 -13-1041.93 1506.91  16
  -7  -7 -13 303.334 826.634  10
  -7  -7 -14-1514.56 967.747  16
  -7  -7 -14-751.971 823.050  10
   7   8 -12 3061.01 1477.42  14
   7   8 -11 2693.25 1733.64  14
  -7  -8  10 913.174 1104.36  10
   7   8 -10 1582.83 1319.43  14
   7   8 -10 2401.53 2018.61  13
  -7  -8   9 11412.0 2341.36  10
   7   8  -9 17180.3 4190.24  13
  -7  -8   8 513.455 694.749  10
   7   8  -8 2439.63 2488.73  13
  -7  -8   7 14674.2 3012.79  10
   7   8  -7 15497.7 4287.28  13
  -7  -8   6 823.300 868.641  10
   7   8  -6-452.989 1886.41  13
  -7  -8   5 3883.34 1796.27  10
   7   8  -5 1510.90 2269.04  13
  -7  -8   4 7562.17 2421.91  10
   7   8  -4 1419.23 1964.98  13
  -7   8   4 6655.13 1320.79  20
  -7  -8   3 17866.8 3498.26  10
   7   8  -3 13304.9 4536.78  13
  -7   8   3 20710.5 2260.90  20
  -7  -8   2 4982.52 1644.22  10
   7   8  -2 4635.91 2688.08  13
  -7   8   2 8230.25 1425.43  20
  -7  -8   1 7628.36 2482.65  10
   7   8  -1 3784.00 2258.21  13
  -7   8   1 7879.98 1423.99  20
  -7  -8   0 7239.23 2407.74  10
  -7   8   0 7337.95 1330.85  20
  -7  -8  -1 1042.36 1115.64  10
  -7   8  -1-431.981 363.374  20
  -7  -8  -2 21777.6 4132.06  10
  -7   8  -2 20214.7 2054.90  20
  -7  -8  -3 4210.15 1876.32  10
  -7   8  -3 6714.81 1174.65  20
  -7  -8  -4 1911.99 1825.01  10
  -7   8  -4 882.819 402.015  20
  -7  -8  -5 10514.8 2648.41  10
  -7   8  -5 12888.3 1471.19  20
  -7  -8  -6 13160.3 3006.54  10
  -7  -8  -7 2862.59 1423.31  10
  -7  -8  -8 2044.71 1345.30  10
  -7  -8  -9 3677.82 1497.10  10
  -7  -8 -10 4424.84 1471.30  10
   7   9  -6 510.920 1074.99  13
   7   9  -5 5348.15 2593.87  13
   7   9  -4 38406.5 5915.02  13
   7   9  -3 2466.15 1648.54  13
   7   9  -2-650.770 1766.69  13
   7   9  -1 9518.95 3098.88  13
   7   9   0 17110.3 3944.62  13
  -7   9   0 20549.9 1808.89  20
   7   9   1 738.393 1179.08  13
  -7   9  -1 875.764 413.711  20
   7   9   2 4797.81 2253.61  13
  -7   9  -2 4478.32 790.911  20
   7   9   3 303.181 962.565  13
  -7   9  -3 1290.96 454.575  20
   7   9   4 2492.78 1689.09  13
   7   9   5 751.151 1047.94  13
   8   0 -22 519.687 672.334  12
   8   0 -21 1655.66 1115.14  12
   8   0 -20 32043.8 4511.54  12
  -8   0  19-318.246 788.479  18
  -8   0  18 20872.1 3506.02  18
  -8   0  17 2280.52 1708.07  18
  -8   0  16 196501. 10863.5  18
  -8   0  16 172251. 12598.7  10
  -8   0  15-1246.75 1096.10  18
  -8   0  15 2217.77 1855.06  10
   8   0 -14 729.961 1179.21   8
  -8   0  14 3740.10 1310.91  18
  -8   0  13 1087.85 1151.65  18
   8   0 -13-1626.17 1613.58   8
  -8   0  12 111598. 7765.68  18
  -8   0  11-47.1053 710.174  18
   8   0 -11 2272.95 1830.40   7
   8   0 -10 82.9206 818.059   7
   8   0  -9 27.7864 611.193   7
   8   0  -8 880.437 1038.69   7
   8   0  -7 170.997 694.164   7
  -8   0   5 1010.07 522.185   5
  -8   0   4 845.279 410.326   5
  -8   0   3 177.553 179.673   5
  -8   0   2 45340.4 2211.08   5
  -8   0   1 237.656 178.086   5
  -8   0   0 531401. 8348.12   5
  -8   0  -1 809.625 256.981   5
  -8   0  -2 1281.73 339.612   5
  -8   0 -10 6435.31 2455.95  12
  -8   0 -10 4693.95 1752.06  11
  -8   0 -11 459.066 1446.71  12
  -8   0 -11 2785.06 1716.90  11
  -8   0 -12 1590.38 1261.07  12
  -8   0 -12 1620.26 1261.51  11
  -8   0 -13 1598.41 1296.60  12
  -8   0 -13 568.356 1393.18  11
  -8   0 -14 31296.2 4939.41  12
  -8   0 -14 26937.0 4786.66  11
  -8   0 -15 2002.10 1467.01  12
  -8   0 -15-770.813 1244.60  11
  -8   0 -16 2763.09 1606.13  12
  -8   0 -16 1660.21 1175.81  11
  -8   0 -17 491.601 1057.67  12
  -8   0 -17 162.036 866.636  11
  -8   0 -18 61663.1 6037.57  12
  -8   0 -19-628.166 876.709  12
  -8   0 -20 1964.68 1025.22  19
  -8   0 -20 2153.94 1000.08  12
  -8   0 -21-654.342 427.209  12
   8   1 -22-149.762 677.523  12
   8  -1 -21 4579.43 1655.12  12
   8   1 -21 1907.88 1055.52  12
   8  -1 -20 1713.53 1097.04  12
   8   1 -20 1266.76 1239.79  12
  -8   1  19 5780.86 1867.64  18
  -8  -1  19 6594.02 1958.27  18
  -8  -1  18 5418.81 1696.61  18
  -8   1  18 3674.03 1717.46  18
  -8   1  17 2978.53 1630.27  18
  -8  -1  17 3586.90 1756.30  18
  -8  -1  17 1278.99 1470.97  10
  -8   1  16 200.826 739.670  18
  -8  -1  16-382.826 910.877  18
  -8  -1  16-2104.32 1771.40  10
  -8   1  15 18791.2 3360.08  18
  -8  -1  15 16744.9 3341.00  18
  -8  -1  15 19995.2 4466.24  10
  -8   1  14-122.868 768.902  18
  -8  -1  14 292.166 1199.86  18
  -8  -1  14-2002.11 1756.18  10
   8  -1 -13 7861.17 2552.21   8
  -8   1  13 7285.31 1941.80  18
  -8  -1  13 9370.89 2406.06  18
  -8  -1  13 9884.32 3277.39  10
  -8   1  12 27773.2 4029.75  18
  -8  -1  12 27452.2 4009.41  18
  -8  -1  12 29261.5 5200.74  10
  -8   1  11 63178.5 5582.06  18
  -8  -1  11 57972.1 5377.87  18
  -8  -1  11 69408.9 7525.19  10
   8   1 -11 66371.9 6734.38   7
   8  -1 -10 17925.5 3340.49   7
   8   1 -10 14622.0 3255.47   7
   8  -1  -9 15010.5 2903.07   7
   8   1  -9 12933.5 2800.96   7
   8  -1  -8 36054.2 4225.64   7
   8   1  -8 33989.1 4450.16   7
   8  -1  -7 67887.0 5627.17   7
   8   1  -7 62125.9 5506.12   7
   8  -1  -6 67022.8 5367.76   7
   8   1  -6 64251.7 5611.86   7
  -8   1   6 79731.1 3475.26   5
  -8   1   5 1447.49 518.187   5
  -8   1   4 8334.74 1059.81   5
  -8   1   3 23818.9 1718.88   5
  -8   1   2 79898.8 3184.92   5
  -8   1   1 31640.1 1947.16   5
  -8   1   0 42634.0 2238.36   5
  -8   1  -1 29620.8 1832.14   5
  -8   1  -2 13073.4 1264.43   5
  -8   1  -3 8260.94 1014.23   5
  -8   1  -4 14315.8 1374.23   5
  -8   1  -5 197542. 5466.60   5
  -8   1  -6 2653.39 669.906   5
  -8   1  -7 9320.90 1222.15   5
  -8   1  -8 28747.6 2256.20   5
  -8  -1 -10 3876.34 1936.37  12
  -8   1 -10 581.888 1314.65  12
  -8  -1 -10 4700.91 1950.03  11
  -8  -1 -11 5988.37 2007.08  12
  -8   1 -11 9017.11 2686.33  12
  -8   1 -11 7444.23 2061.72  11
  -8  -1 -11 8573.97 2702.22  11
  -8  -1 -12 655.400 810.385  12
  -8   1 -12 1658.76 1747.27  12
  -8   1 -12 1394.23 1073.67  11
  -8  -1 -12-393.648 876.738  11
  -8  -1 -13 15405.4 3466.09  12
  -8   1 -13 20033.6 4080.03  12
  -8   1 -13 15863.5 3313.38  11
  -8  -1 -13 20117.7 4051.74  11
  -8  -1 -14-213.558 820.114  12
  -8   1 -14-148.725 900.828  12
  -8   1 -14-477.061 1133.87  11
  -8  -1 -14 1406.93 1095.57  11
  -8  -1 -15 2982.58 1728.61  12
  -8   1 -15 3358.01 1759.00  12
  -8   1 -15 1133.84 1053.07  11
  -8  -1 -15 1311.16 709.969  11
  -8  -1 -16 7431.40 2269.57  12
  -8   1 -16 7057.43 2189.49  12
  -8   1 -16 7681.04 2118.75  11
  -8  -1 -16 4497.81 2017.16  11
  -8  -1 -17 9851.53 2572.77  12
  -8   1 -17 12381.8 2918.39  12
  -8  -1 -17 8440.79 2549.28  11
  -8  -1 -18-44.8686 706.207  12
  -8   1 -18 961.920 1130.92  12
  -8  -1 -19 1669.80 1051.06  12
  -8   1 -19 1746.78 904.326  12
  -8  -1 -20-229.131 702.514  19
  -8  -1 -20-129.984 550.336  12
  -8   1 -20 606.679 753.319  12
   8   2 -21 796.016 647.297  12
   8  -2 -20 4875.40 1509.36  12
   8   2 -20 6564.87 1863.02  12
  -8  -2  19 26583.9 3375.14  18
   8  -2 -19 20478.2 3338.36  12
  -8  -2  18 4338.05 1515.62  18
  -8  -2  18 3129.14 2009.16  10
  -8   2  17 8698.76 2205.28  18
  -8  -2  17 2733.85 1357.21  18
  -8  -2  17 2958.21 2384.77  10
  -8  -2  16 23329.2 3643.27  18
  -8   2  16 18665.1 3149.17  18
  -8  -2  16 22355.4 4749.27  10
  -8   2  15 80063.7 6675.98  18
  -8  -2  15 75567.6 6506.11  18
  -8  -2  15 77675.6 9016.53  10
  -8   2  14 3311.76 1640.36  18
  -8  -2  14 2519.48 1154.32  18
  -8  -2  14-288.288 1031.61  10
   8   2 -13 10617.9 3172.88   8
  -8   2  13 11804.0 2419.94  18
  -8  -2  13 11925.0 2520.71  18
  -8  -2  13 8097.38 3346.54  10
  -8   2  12 34345.4 4252.25  18
  -8  -2  12 43080.6 4782.88  18
  -8  -2  12 47768.2 7026.34  10
  -8   2  11 23147.5 3403.76  18
  -8  -2  11 23134.5 3486.72  18
   8   2 -11 25012.6 4285.77   7
  -8  -2  11 21972.4 4492.78  10
  -8  -2  10 69880.1 5824.37  18
  -8  -2  10 75003.8 8019.67  10
   8   2 -10 81030.9 7301.45   7
   8   2  -9 36680.8 4754.42   7
   8   2  -8 12890.0 2874.32   7
   8  -2  -7 35889.0 3963.81   7
   8   2  -7 30563.5 4041.52   7
  -8   2   7 38763.9 2631.79   5
   8  -2  -6 8116.84 1787.66   7
   8   2  -6 9063.98 2095.84   7
  -8   2   6 12142.4 1454.09   5
   8  -2  -5 106709. 6517.16   7
  -8   2   5 108949. 4180.44   5
  -8   2   4 82575.8 3577.00   5
  -8   2   3 3056.86 677.871   5
  -8   2   2 57935.0 2929.66   5
  -8   2   1 124354. 4317.60   5
  -8   2   0 46779.9 2548.88   5
  -8   2  -1 35741.5 2247.89   5
  -8   2  -2 50303.4 2731.83   5
  -8   2  -3 199701. 5699.55   5
  -8   2  -4 27494.8 2113.07   5
  -8   2  -5 199.899 243.883   5
  -8   2  -6 1828.01 570.299   5
  -8   2  -7 62423.8 3541.66   5
  -8   2  -8 20013.1 2074.99   5
  -8   2  -9 3027.42 1770.26  12
  -8   2  -9 3068.85 865.832   5
  -8  -2  -9 4209.40 1797.02  11
  -8  -2 -10 1521.40 1556.22  16
  -8  -2 -10 1952.25 1403.35  12
  -8   2 -10 381.545 1032.87  12
  -8   2 -10 56.1150 237.954   5
  -8  -2 -10 1149.42 1409.82  11
  -8  -2 -11 1364.51 1880.14  16
  -8  -2 -11 1251.90 1010.74  12
  -8   2 -11 1770.14 1763.96  12
  -8   2 -11 210.433 354.826   5
  -8  -2 -11 604.341 1380.98  11
  -8  -2 -12 10551.4 2775.40  12
  -8   2 -12 9274.42 2685.00  12
  -8  -2 -12 8768.76 2797.13  11
  -8  -2 -13 18728.0 3632.59  12
  -8   2 -13 14309.0 3228.47  12
  -8  -2 -13 19195.1 4189.05  11
  -8  -2 -14 22882.6 3956.96  12
  -8   2 -14 23198.2 4264.51  12
  -8  -2 -14 20029.4 4244.03  11
  -8  -2 -15 215.605 669.184  12
  -8   2 -15 934.912 1059.86  12
  -8  -2 -15 1305.22 1582.60  11
  -8  -2 -16 5941.88 1987.71  12
  -8   2 -16 4758.71 1894.11  12
  -8  -2 -16 6577.86 2338.41  11
  -8  -2 -17 9448.07 2255.90  12
  -8   2 -17 6391.26 2073.73  12
  -8  -2 -18 8021.36 1934.04  12
  -8   2 -18 9073.28 2172.11  12
  -8  -2 -19 1575.42 789.779  12
  -8   2 -19-273.091 666.804  12
  -8  -2 -20 3899.58 1494.22  19
  -8   2 -20 2870.25 891.769  12
   8   3 -20 2729.42 995.654  12
  -8  -3  19 6694.73 2391.24  10
   8   3 -19 3328.37 1338.83  12
  -8  -3  18-940.096 637.589  18
  -8  -3  18-1542.81 1485.85  10
   8   3 -18 11.8963 678.056  12
  -8  -3  17 1525.96 709.231  18
  -8  -3  17 3414.91 1943.94  10
  -8  -3  16 26636.7 3537.35  18
  -8  -3  16 23963.8 5123.26  10
  -8  -3  15 8023.92 1829.82  18
  -8  -3  15 5038.28 2483.89  10
  -8  -3  14 53788.3 5299.49  18
  -8  -3  14 49654.9 7205.14  10
  -8  -3  13 10962.4 2461.66  18
  -8  -3  13 7343.20 3288.69  10
   8   3 -12 2054.17 1738.24   8
  -8  -3  12-278.039 1853.17  10
  -8  -3  12 745.013 848.460  18
  -8  -3  11 40551.4 4495.67  18
  -8  -3  11 41569.7 6459.15  10
  -8  -3  10 35303.5 4156.24  18
  -8  -3  10 34584.2 5825.98  10
   8   3 -10 26427.5 4364.85   7
  -8  -3   9 19546.0 2925.63  18
   8   3  -9 16475.4 3371.84   7
  -8  -3   9 22415.2 4562.61  10
   8   3  -8 6789.36 2209.33   7
  -8   3   8 8838.57 1436.60   5
   8   3  -7 1601.72 1248.83   7
  -8   3   7 1417.15 563.385   5
   8   3  -6 211395. 10651.5   7
  -8   3   6 256383. 6995.40   5
   8   3  -5 356.303 787.437   7
  -8   3   5 994.160 516.846   5
  -8   3   4 44754.2 2794.21   5
  -8   3   3 2512.17 700.055   5
  -8   3   2 154380. 5220.01   5
  -8   3   1 9645.20 1247.16   5
  -8   3   0 80502.4 3693.46   5
  -8   3  -1 902.099 425.561   5
  -8   3  -2 13412.5 1498.86   5
  -8   3  -3 9483.64 1345.32   5
  -8   3  -4 192073. 6276.07   5
  -8   3  -5 5473.75 1117.02   5
  -8   3  -6 322.203 267.051   5
  -8   3  -7 17939.6 2103.96   5
  -8   3  -8 35158.5 2894.15   5
  -8  -3  -8 44088.3 6142.14  16
  -8  -3  -9 12174.3 3575.79  16
  -8   3  -9 9266.38 1562.39   5
  -8   3 -10 114.259 991.881  12
  -8   3 -10-186.674 414.743   5
  -8  -3 -11 313.436 1204.18  16
  -8   3 -11 72.5837 714.611  12
  -8   3 -11 66.6843 348.576   5
  -8  -3 -12 19555.7 4211.98  16
  -8   3 -12 12289.4 2881.67  12
  -8  -3 -13-153.728 1731.97  16
  -8   3 -13-1102.39 1146.39  12
  -8  -3 -14 2684.42 1723.80  16
  -8   3 -14 5019.64 2016.71  12
  -8  -3 -15 1821.66 1367.50  16
  -8   3 -15-2502.18 1667.35  12
  -8   3 -16 3134.57 1342.28  12
  -8   3 -17 621.147 951.214  12
  -8  -3 -18-1299.58 1060.40  19
  -8   3 -18-515.862 691.283  12
  -8  -3 -19 3069.53 1442.30  19
  -8   3 -19 655.394 656.460  12
  -8  -4  18 2593.45 1637.14  10
  -8  -4  17 283.257 1014.19  10
  -8  -4  16 4825.66 2361.12  10
  -8  -4  15 26143.3 5157.36  10
  -8  -4  14 4163.68 2298.77  10
  -8  -4  13 6469.67 2842.69  10
  -8  -4  12 2783.43 2048.45  10
  -8  -4  11 40568.4 6517.44  10
  -8  -4  10-1789.30 1692.34  10
   8   4  -9 771.770 1027.10   7
  -8  -4   9 37.1423 1077.27  10
   8   4  -8-246.836 925.119   7
  -8  -4   8-93.4972 970.462  10
  -8   4   8 2282.89 900.577   5
  -8  -4   7 128612. 10664.9  10
   8   4  -7 105077. 7761.85   7
  -8   4   7 126717. 5124.49   5
  -8   4   6 3675.13 856.996   5
  -8  -4   6 3640.24 1651.88  10
  -8  -4   5 90880.8 8902.06  10
  -8   4   5 94408.9 4303.96   5
  -8   4   4 3757.60 809.542   5
  -8   4   3 10194.7 1373.53   5
  -8   4   2 1592.86 482.297   5
  -8   4   1 201785. 6360.25   5
  -8   4   0 1660.72 492.037   5
  -8   4  -1 7897.22 1226.64   5
  -8   4  -2 7149.99 1167.79   5
  -8   4  -3 78455.5 4088.01   5
  -8  -4  -4 4230.47 1937.40  16
  -8   4  -4 2760.33 791.823   5
  -8  -4  -5 4243.81 2075.39  19
  -8  -4  -5 1457.54 1599.75  16
  -8   4  -5 6500.01 1186.11   5
  -8  -4  -6 30302.2 5319.60  16
  -8  -4  -6 28265.2 4655.41  19
  -8   4  -6 32050.9 2759.50   5
  -8   4  -7 126709. 5651.40   5
  -8  -4  -7 110016. 9566.51  19
   8   4   7 119993. 11230.7  17
  -8  -4  -7 133655. 11103.2  16
  -8  -4  -8 14275.7 3611.38  19
  -8   4  -8 17749.2 2152.48   5
   8   4   8 17617.3 4448.74  17
  -8  -4  -8 19887.4 4518.14  16
  -8  -4  -9 916.131 1561.22  19
   8   4   9 460.383 1208.28  17
  -8  -4  -9 3538.67 2296.47  16
  -8   4  -9 1212.54 478.191   5
  -8  -4 -10 2595.44 1606.71  19
   8   4  10 1622.25 1357.55  17
  -8  -4 -10 5565.74 2957.34  16
  -8  -4 -11 683.746 974.703  19
   8   4  11 605.821 1231.41  17
  -8  -4 -11-194.898 1254.22  16
  -8  -4 -12 21067.8 4365.43  19
   8   4  12 23346.4 5022.57  17
  -8  -4 -12 20938.5 4581.52  16
  -8  -4 -13 15581.5 3730.82  19
   8   4  13 20308.8 4436.31  17
  -8  -4 -13 18612.8 4145.59  16
   8   4  14 1643.49 1542.82  17
  -8  -4 -14 1283.08 1359.66  16
  -8  -4 -14 1353.03 1528.23  19
  -8  -4 -15 1798.96 1451.75  19
   8   4  15 2540.28 1463.87  17
  -8  -4 -15 2952.34 1735.98  16
  -8  -4 -16 5117.54 1833.45  19
  -8  -4 -16 3602.41 1407.93  16
  -8  -4 -17 12919.9 2461.87  16
  -8  -4 -17 13200.4 2724.37  19
  -8  -4 -18 1603.61 921.776  19
  -8  -5  18 1614.36 975.367  10
   8   5 -18 1181.89 459.611  21
  -8  -5  17 4525.65 1793.33  10
   8   5 -17 1704.60 601.915  21
  -8  -5  16 1354.70 1169.51  10
   8   5 -16 871.600 562.297  21
  -8  -5  15 7968.27 2757.98  10
  -8  -5  14 8116.46 2729.13  10
   8   5 -14 5643.39 2195.23  14
  -8  -5  13 6802.55 2910.53  10
   8   5 -13 2561.06 1235.95  14
  -8  -5  12 14590.6 3930.73  10
  -8  -5  11 12652.7 3712.75  10
  -8  -5  10 23001.8 4866.25  10
  -8  -5   9 1995.35 1663.70  10
  -8  -5   8 3410.16 2231.56  10
  -8  -5   7 8691.36 2828.40  10
  -8   5   7 8456.34 1358.58   5
  -8  -5   6 59538.6 7685.18  10
  -8   5   6 57707.3 3464.71   5
  -8   5   5 6659.17 1221.06   5
  -8  -5   5 4096.14 2256.68  10
  -8  -5   4-435.887 1141.85  10
  -8   5   4 1614.73 679.037   5
  -8   5   4 979.866 637.213  20
  -8   5   3 1137.35 452.984   5
  -8   5   3 888.244 509.380  20
  -8  -5   2 11929.8 3375.55  10
  -8   5   2 14257.0 1715.43   5
  -8   5   2 12164.5 1662.30  20
  -8  -5   1 3261.46 1707.45  10
  -8   5   1 4150.71 801.777   5
  -8   5   1 4060.33 929.043  20
  -8  -5   0 2028.84 2126.51  10
  -8   5   0-267.406 487.974   5
  -8   5   0 750.830 413.843  20
  -8  -5  -1-1472.12 1228.42  16
  -8  -5  -1-815.207 1083.93  10
  -8   5  -1 508.589 321.056   5
  -8  -5  -2 746.739 1235.48  16
  -8  -5  -2-1076.01 1520.65  10
  -8   5  -2 301.667 303.821   5
  -8  -5  -3-1613.91 1506.08  16
  -8  -5  -3 1346.81 1806.57  10
  -8   5  -3 732.752 441.206   5
  -8  -5  -4 871.277 1666.83  16
  -8   5  -4 1017.80 618.474   5
  -8  -5  -5 2580.65 1561.43  16
  -8   5  -5 1201.79 637.632   5
  -8  -5  -6 11130.8 3406.54  16
  -8   5  -6 11476.5 1660.53   5
  -8  -5  -7 2705.52 2031.64  16
  -8  -5  -8 43183.9 6590.19  16
  -8  -5  -9 66611.6 8353.50  16
  -8  -5 -10 4456.29 2485.73  16
  -8  -5 -11 3834.79 2096.65  16
  -8  -5 -12 1839.87 1542.04  16
  -8  -5 -13 18036.6 4024.14  16
  -8  -5 -14 3778.97 1942.18  16
  -8  -5 -15 4964.81 2002.92  16
  -8  -5 -16 2743.65 1355.13  16
  -8  -5 -17 240.622 785.934  16
  -8  -6  16 9284.62 2176.74  10
   8   6 -16 10592.5 1184.85  21
  -8  -6  15 1241.50 944.807  10
   8   6 -15 1483.09 1133.26  14
   8   6 -15 1194.77 514.539  21
  -8  -6  14 2393.06 1448.49  10
   8   6 -14 3997.76 1811.56  14
   8   6 -14 4351.76 947.493  21
  -8  -6  13 22901.8 4280.66  10
   8   6 -13 11875.9 3205.87  14
   8   6 -13 18092.8 1945.43  21
  -8  -6  12 24050.8 4596.39  10
   8   6 -12 25771.5 2287.14  21
  -8  -6  11 4145.91 2257.69  10
   8   6 -11 4130.46 1000.07  21
  -8  -6  10-3603.94 2340.03  10
   8   6 -10 184.765 234.024  21
  -8  -6   9-1.94277 1058.78  10
   8   6  -9 884.080 386.450  21
  -8  -6   8 7085.24 2805.03  10
   8   6  -8 12144.1 4394.12  13
  -8  -6   7 4189.20 2064.68  10
   8   6  -7 3020.59 2258.26  13
  -8  -6   6 1794.10 2055.08  10
   8   6  -6 2278.70 1401.18  13
  -8  -6   5 520.878 1569.38  10
  -8  -6   4 788.120 1384.96  10
  -8   6   4 1359.55 732.953  20
  -8  -6   3 29611.0 5335.19  10
  -8   6   3 29862.0 2799.86  20
  -8  -6   2 3101.05 1819.76  10
  -8   6   2 2960.99 869.394  20
  -8  -6   1 649.814 1356.53  10
  -8   6   1 5148.49 1196.61  20
  -8  -6   0 64483.5 7915.32  10
  -8   6   0 59300.8 3798.56  20
  -8  -6  -1 22881.3 4734.60  10
  -8   6  -1 18048.2 2050.94  20
  -8  -6  -2 744.442 1547.72  10
  -8  -6  -3 7791.56 2607.07  16
  -8  -6  -3 7650.97 3233.24  10
  -8  -6  -4 51322.3 7336.24  10
  -8  -6  -4 49949.4 6975.79  16
  -8  -6  -5 1308.82 1224.65  16
  -8  -6  -5-421.181 1216.49  10
  -8  -6  -6 4004.97 2480.68  16
  -8  -6  -6 1040.16 1321.42  10
  -8  -6  -7-3222.33 2472.01  16
  -8  -6  -8-88.7225 1205.01  16
  -8  -6  -9 1559.20 1196.36  16
  -8  -6 -10 2416.97 1576.90  16
  -8  -6 -11 102.574 1180.25  16
  -8  -6 -12 16625.7 3828.49  16
  -8  -6 -13 212.547 944.395  16
  -8  -6 -14 5193.63 1922.87  16
  -8  -6 -15 5263.35 1595.97  16
  -8  -7  13 1844.96 1140.39  10
   8   7 -13 81.4546 857.473  14
   8   7 -13 486.871 279.313  21
  -8  -7  12 5159.07 1711.92  10
   8   7 -12 4133.14 1911.97  14
   8   7 -12 3281.74 655.799  21
  -8  -7  11 8375.78 2465.31  10
   8   7 -11 5713.02 2359.20  14
   8   7 -11 8673.44 1125.58  21
  -8  -7  10 3076.93 1609.16  10
   8   7 -10 2003.79 2510.21  13
  -8  -7   9 7368.25 2431.58  10
   8   7  -9 8576.82 3528.89  13
  -8  -7   8 21867.3 4217.51  10
   8   7  -8 23456.8 5681.36  13
  -8  -7   7 30022.0 4908.53  10
   8   7  -7 38088.4 7094.93  13
  -8  -7   6 10377.4 2911.66  10
   8   7  -6 12533.1 4373.21  13
  -8  -7   5-391.124 1678.76  10
   8   7  -5-2284.75 2508.94  13
  -8  -7   4 36105.8 5824.09  10
   8   7  -4 32306.1 6831.88  13
  -8  -7   3-207.801 1256.77  10
  -8   7   3 1708.01 722.885  20
  -8  -7   2 529.167 1309.24  10
  -8   7   2 1029.86 669.615  20
  -8  -7   1 308.138 1011.73  10
  -8   7   1 780.662 492.186  20
  -8  -7   0 12687.3 3631.47  10
  -8   7   0 12635.2 1710.64  20
  -8  -7  -1 4099.66 1830.65  10
  -8   7  -1 3911.26 911.779  20
  -8  -7  -2 4105.05 2045.40  10
  -8   7  -2 3277.29 853.169  20
  -8  -7  -3 386.243 1581.68  10
  -8   7  -3 3904.66 889.169  20
  -8  -7  -4 6723.36 2592.13  10
  -8  -7  -5 20278.8 4253.77  10
  -8  -7  -6 3558.34 1573.12  16
  -8  -7  -6 3551.21 2359.69  10
  -8  -7  -7-1685.28 2045.02  16
  -8  -7  -7 3303.29 1892.41  10
  -8  -7  -8-157.555 871.266  16
  -8  -7  -8-596.984 1006.99  10
  -8  -7  -9 6183.61 1996.49  16
  -8  -7  -9 8276.18 2675.90  10
  -8  -7 -10 2078.92 1575.14  16
  -8  -7 -10 5350.64 2231.06  10
  -8  -7 -11 8510.32 2374.35  16
  -8  -7 -11 10106.4 2635.95  10
  -8  -7 -12-761.211 1237.59  16
  -8  -7 -12 1584.11 1220.05  10
  -8  -7 -13 22384.7 3161.75  10
  -8  -7 -13 14172.9 2544.61  16
   8   8 -10 1439.67 1137.77  14
  -8  -8   9 7916.40 1877.98  10
   8   8  -9 7004.90 2305.60  14
   8   8  -9 10915.8 3081.72  13
  -8  -8   8 1185.03 1069.70  10
   8   8  -8-1270.00 1331.92  13
  -8  -8   7 6454.51 1896.16  10
   8   8  -7 7139.07 2446.61  13
  -8  -8   6 11845.2 2692.45  10
   8   8  -6 11031.5 3528.45  13
  -8  -8   5 13533.3 2897.69  10
   8   8  -5 13140.7 3876.67  13
  -8  -8   4 670.294 1056.62  10
   8   8  -4 2904.91 2319.23  13
  -8  -8   3 11296.9 2884.74  10
   8   8  -3 7219.53 3043.95  13
  -8  -8   2 3476.15 1410.00  10
   8   8  -2 5322.73 2736.17  13
  -8  -8   1 6493.83 2222.20  10
   8   8  -1 2556.54 1825.98  13
  -8   8   1 7377.64 1258.64  20
  -8  -8   0 14331.3 3243.10  10
  -8   8   0 14329.7 1674.74  20
  -8  -8  -1-1621.17 1558.34  10
  -8   8  -1 1070.68 618.663  20
  -8  -8  -2 3697.54 1837.44  10
  -8   8  -2 4578.25 964.672  20
  -8  -8  -3 16265.4 3230.55  10
  -8   8  -3 18706.3 1711.24  20
  -8  -8  -4 16536.0 3443.84  10
  -8  -8  -5 10808.6 2618.85  10
  -8  -8  -6 1550.11 1011.64  10
  -8  -8  -7 7249.39 2109.91  10
  -8  -8  -8 79.1725 727.528  10
  -8  -8  -9 3087.83 1304.55  10
   8   9  -3 9966.38 2822.89  13
   8   9  -2 5162.13 2143.47  13
   8   9  -1 5363.38 2263.45  13
   8   9   0 18699.8 3757.06  13
   8   9   1 510.856 931.395  13
   8   9   2 944.758 1183.48  13
   9   0 -21 505.714 840.605  12
   9   0 -20 1597.13 1145.58  12
  -9   0  19 600.118 948.658  18
  -9   0  18 54168.0 5304.81  18
  -9   0  17-95.3984 802.674  18
  -9   0  16 15543.6 3008.76  18
  -9   0  15 584.647 1220.60  18
  -9   0  14 18653.6 3466.37  18
  -9   0  13 884.481 841.785  18
  -9   0  12-292.786 675.794  18
  -9   0  11 1427.27 1229.23  18
   9   0 -11 1015.63 1083.54   7
  -9   0  10 70411.5 6085.31  18
   9   0 -10 67004.1 6776.50   7
   9   0  -9-716.669 1113.49   7
   9   0  -8 68325.5 6543.93   7
   9   0  -7 404.594 1155.59   7
   9   0  -6-330.560 1036.51   7
  -9   0   4 289461. 6640.43   5
  -9   0   3 831.208 356.137   5
  -9   0   2 46860.2 2356.60   5
  -9   0   1 253.667 320.389   5
  -9   0  -8 1565.31 791.279  12
  -9   0  -9-1134.05 1231.40  12
  -9   0 -10 30955.4 4887.10  12
  -9   0 -11 843.753 1321.39  12
  -9   0 -12 12387.5 3038.04  12
  -9   0 -13 1327.83 1377.19  12
  -9   0 -14 14222.4 3193.35  12
  -9   0 -15-420.533 1035.03  12
  -9   0 -16 57870.9 6122.92  12
  -9   0 -17 1104.14 1033.55  19
  -9   0 -17 18.6118 749.772  12
  -9   0 -18 11602.1 2574.68  19
  -9   0 -18 12653.2 2550.80  12
  -9   0 -19 603.561 869.251  19
  -9   0 -19 161.624 534.088  12
  -9   0 -20 10013.4 1852.97  12
   9  -1 -21 1619.47 913.755  12
   9   1 -21 1705.98 892.612  12
   9  -1 -20 708.282 832.309  12
   9   1 -20 29.9327 687.685  12
  -9   1  19 911.096 902.781  18
  -9  -1  19 1889.64 1220.63  18
  -9   1  18 575.915 783.306  18
  -9  -1  18 261.208 797.413  18
  -9   1  17 56937.3 5564.57  18
  -9  -1  17 61563.3 5876.37  18
  -9  -1  17 68956.0 7639.57  10
  -9   1  16 1771.24 1161.38  18
  -9  -1  16 3608.53 1559.20  18
  -9  -1  16 1591.48 1465.56  10
  -9   1  15 1914.50 884.527  18
  -9  -1  15 6766.22 2109.99  18
  -9  -1  15 6955.15 2553.42  10
  -9   1  14 38577.2 4827.31  18
  -9  -1  14 35684.9 4569.94  18
  -9  -1  14 38367.2 6086.44  10
  -9   1  13 72953.6 6504.23  18
  -9  -1  13 76201.1 6683.51  18
  -9  -1  13 81195.4 8617.21  10
  -9   1  12 20167.3 3391.26  18
  -9  -1  12 20163.3 3504.37  18
  -9  -1  12 17124.6 4047.84  10
   9  -1 -11 13122.3 3048.96   7
  -9   1  11 11014.2 2529.18  18
  -9  -1  11 11962.9 2593.29  18
   9   1 -11 16215.1 3783.17   7
  -9   1  10 4307.62 1705.18  18
  -9  -1  10 3679.38 1602.83  18
   9  -1 -10 3321.45 1481.84   7
   9   1 -10 5842.55 2207.47   7
  -9   1   9 120949. 7656.49  18
  -9  -1   9 113653. 7697.29  18
   9  -1  -9 121175. 8665.47   7
   9   1  -9 108331. 8538.73   7
   9  -1  -8 16241.0 3049.40   7
   9   1  -8 15935.5 3278.01   7
   9  -1  -7 323.766 865.762   7
   9   1  -7-101.103 1180.89   7
   9  -1  -6 16054.3 2866.75   7
   9   1  -6 16365.7 2819.07   7
  -9   1   6 22136.0 1957.01   5
  -9   1   5 41979.6 2578.09   5
  -9   1   4 41306.1 2481.09   5
  -9   1   3 25519.9 1926.36   5
  -9   1   2 35620.9 2218.07   5
  -9   1   1 1020.50 411.109   5
  -9   1   0 68902.7 3102.77   5
  -9   1  -1 21269.4 1676.17   5
  -9   1  -2 58119.4 2785.84   5
  -9   1  -3 51032.5 2627.11   5
  -9   1  -4 5068.89 829.837   5
  -9   1  -5 38294.0 2359.13   5
  -9  -1  -8 1199.06 927.278  12
  -9   1  -8 160.560 1125.88  12
  -9   1  -9 15432.2 3655.52  19
  -9  -1  -9 16105.1 3371.49  12
  -9   1  -9 14490.4 3136.14  12
  -9  -1 -10 4352.64 2072.01  12
  -9   1 -10 2134.53 1616.39  12
  -9  -1 -11 3902.32 1717.41  12
  -9   1 -11 7376.62 2422.81  12
  -9  -1 -12 11.0409 1329.65  12
  -9   1 -12 990.638 1003.70  12
  -9  -1 -13-480.989 1168.01  12
  -9   1 -13 1572.06 1215.28  12
  -9  -1 -14 20120.7 3671.96  12
  -9   1 -14 16420.4 3479.80  12
  -9  -1 -15 16667.7 3324.63  12
  -9   1 -15 20059.7 3804.99  12
  -9   1 -16 1497.25 866.900  19
  -9  -1 -16-74.6996 737.172  12
  -9   1 -16 465.807 815.728  12
  -9  -1 -17 3230.41 2011.63  19
  -9  -1 -17 1313.83 878.934  12
  -9   1 -17 1077.49 864.518  12
  -9  -1 -18 4926.06 1845.59  19
  -9  -1 -18 4203.42 1369.91  12
  -9   1 -18 5028.71 1673.54  12
  -9  -1 -19 4383.30 1520.51  19
  -9  -1 -19 3432.91 1257.25  12
  -9   1 -19 2838.90 1022.54  12
  -9   1 -20 1750.58 822.762  12
   9  -2 -20 586.939 550.467  12
   9   2 -20 1228.49 896.523  12
  -9  -2  19-12.3240 617.462  18
   9  -2 -19 153.621 709.669  12
  -9  -2  18 8272.90 2660.38  10
  -9  -2  18 12521.2 2425.70  18
  -9   2  17 1637.18 1217.10  18
  -9  -2  17 3605.20 1704.16  18
  -9  -2  17 3175.11 1985.40  10
  -9   2  16 1838.31 1069.84  18
  -9  -2  16 1740.54 1265.18  18
  -9  -2  16 1177.36 1330.15  10
  -9   2  15 3287.66 1489.37  18
  -9  -2  15 2441.30 1484.42  18
  -9  -2  15 1998.98 1981.81  10
  -9   2  14 49387.1 5238.13  18
  -9  -2  14 52603.9 5454.15  18
  -9  -2  14 55599.9 7372.32  10
  -9   2  13 19251.2 3284.36  18
  -9  -2  13 18282.2 3414.15  18
  -9  -2  13 17681.9 4346.65  10
  -9   2  12 18984.0 3199.96  18
  -9  -2  12 14043.4 2769.31  18
  -9  -2  12 11959.4 3907.16  10
  -9   2  11 1919.89 1169.03  18
  -9  -2  11 2416.90 1488.63  18
   9   2 -11 1121.71 1171.56   7
  -9  -2  11-1053.61 1505.93  10
  -9  -2  10-26.1837 953.176  18
   9   2 -10 15.1784 823.711   7
  -9  -2  10 1096.32 1527.89  10
  -9  -2   9 24924.9 3636.85  18
  -9  -2   9 32206.1 5284.85  10
   9   2  -9 23755.5 4096.58   7
  -9  -2   8 21691.4 3272.54  18
   9   2  -8 24546.1 3929.49   7
   9   2  -7 30711.2 4309.30   7
  -9   2   7 37990.1 2743.31   5
   9  -2  -6 78441.9 6095.54   7
   9   2  -6 74233.6 6475.94   7
  -9   2   6 94136.0 4185.64   5
   9  -2  -5 12501.0 2250.19   7
  -9   2   5 14153.7 1546.90   5
  -9   2   4 23998.5 2053.60   5
  -9   2   3 166493. 5374.73   5
  -9   2   2 12682.5 1436.11   5
  -9   2   1 2242.13 584.270   5
  -9   2   0 96509.8 3964.94   5
  -9   2  -1 163792. 5178.21   5
  -9   2  -2 25563.8 1973.92   5
  -9   2  -3 1031.89 474.026   5
  -9   2  -4 4757.29 893.691   5
  -9   2  -5 128427. 4844.13   5
  -9   2  -6 1862.47 626.570   5
  -9  -2  -7 3791.22 1883.57  19
  -9  -2  -7 1472.93 1027.89  16
  -9   2  -7 3259.17 810.988   5
  -9  -2  -7 2325.62 1219.45  12
  -9   2  -7 2330.22 1583.69  12
  -9  -2  -8 6516.04 2487.55  19
  -9  -2  -8 5626.00 2307.90  16
  -9   2  -8 6133.87 1187.07   5
  -9  -2  -8 6923.64 2245.17  12
  -9   2  -8 6355.62 2151.87  12
  -9  -2  -9 2556.03 1892.78  16
  -9   2  -9 1785.01 663.491   5
  -9  -2  -9 3433.69 1579.54  12
  -9   2  -9 2848.88 1527.01  12
  -9  -2 -10 192.437 1277.15  16
  -9  -2 -10-109.713 670.017  12
  -9   2 -10-632.731 762.544  12
  -9  -2 -11 59928.6 6353.10  12
  -9   2 -11 57262.5 6526.11  12
  -9   2 -12 27895.1 4601.75  12
  -9  -2 -12 17599.3 3599.96  12
  -9  -2 -13 1057.89 790.042  12
  -9   2 -13 2380.40 1728.10  12
  -9  -2 -14-1087.65 1284.62  12
  -9   2 -14 919.151 950.496  12
  -9  -2 -15 19870.2 3318.22  12
  -9   2 -15 11230.7 2680.52  12
  -9  -2 -16 11426.9 3157.58  19
  -9  -2 -16 9510.62 2219.72  12
  -9   2 -16 11199.5 2560.16  12
  -9  -2 -17-174.434 784.155  19
  -9  -2 -17-641.796 864.266  12
  -9  -2 -18 2417.32 993.599  12
  -9   2 -18 2009.04 807.435  12
  -9  -2 -19 12203.0 2392.54  19
  -9   2 -19 6763.91 1529.39  12
   9   3 -19 2866.10 1081.26  12
  -9  -3  18 2437.63 1023.78  18
  -9  -3  18 1731.70 1400.69  10
   9   3 -18 2139.72 1286.99  12
  -9  -3  17-71.0796 723.432  18
  -9  -3  17 1674.44 1419.79  10
  -9  -3  16 9132.35 1928.96  18
  -9  -3  16 13895.7 3616.52  10
  -9  -3  15 950.846 603.167  18
  -9  -3  15-896.867 1272.13  10
  -9  -3  14 720.031 785.272  18
  -9  -3  14-1266.67 1512.99  10
  -9  -3  13 10872.4 2485.74  18
  -9  -3  13 7197.22 2796.49  10
  -9  -3  12 69465.4 6056.87  18
  -9  -3  12 78128.7 8860.57  10
  -9  -3  11 7891.89 2055.70  18
  -9  -3  11 11184.6 3575.02  10
  -9  -3  10 10623.4 2391.32  18
   9   3 -10 10575.6 2856.36   7
  -9  -3  10 11725.3 3743.31  10
  -9  -3   9 3059.61 1258.56  18
   9   3  -9 3559.24 1631.20   7
  -9  -3   9 3199.34 1511.46  10
  -9  -3   8 171449. 9435.10  18
  -9  -3   8 200597. 13440.7  10
   9   3  -8 158790. 10420.0   7
  -9  -3   8 208206. 14998.8  15
  -9  -3   7 52527.1 6740.97  10
   9   3  -7 40780.9 5009.07   7
  -9  -3   7 49396.0 7319.02  15
  -9  -3   7 46776.0 4570.26   9
  -9   3   7 56727.4 3419.44   5
   9   3  -6 3082.46 1670.12   7
  -9   3   6 6418.00 1246.70   5
  -9  -3   6 1918.55 1968.34  15
  -9  -3   6 5841.56 2588.00  10
  -9  -3   6 3249.52 1193.42   9
   9   3  -5 2066.30 963.546   7
  -9   3   5 3163.28 862.982   5
  -9   3   4 153123. 5499.02   5
  -9   3   3 2115.48 707.576   5
  -9   3   2 51216.9 3093.21   5
  -9   3   1 1514.64 581.028   5
  -9   3   0 800.593 349.227   5
  -9   3  -1 10763.4 1404.52   5
  -9   3  -2 192553. 6149.98   5
  -9   3  -3 18788.2 1888.81   5
  -9   3  -4 2969.62 803.342   5
  -9  -3  -5 54216.9 6879.75  16
  -9   3  -5 62766.8 3624.69   5
  -9  -3  -5 48777.0 6451.78  19
  -9   3  -6 69673.0 3905.57   5
  -9  -3  -6 67458.7 7619.13  19
  -9  -3  -6 68305.3 7696.37  16
  -9  -3  -7 4993.10 2087.68  19
  -9  -3  -7 2127.22 1931.12  16
  -9   3  -7 5674.82 1150.37   5
  -9   3  -8 11037.8 1643.19   5
  -9  -3  -8 11798.3 3355.48  19
  -9  -3  -8 12137.4 3450.25  16
  -9   3  -8 11442.4 2753.58  12
  -9  -3  -9 2137.60 1286.14  16
  -9   3  -9 2403.29 759.166   5
  -9   3  -9 2818.17 1502.46  12
  -9  -3  -9 3984.48 2704.97  19
  -9  -3 -10 124325. 10714.7  16
  -9   3 -10 120723. 9152.80  12
  -9  -3 -10 113362. 10385.3  19
  -9  -3 -11 3690.44 2107.04  19
  -9  -3 -11 1443.38 1023.39  16
  -9   3 -11 6923.57 2152.80  12
  -9  -3 -12 784.000 1754.08  19
  -9  -3 -12 418.892 1333.92  16
  -9   3 -12 955.181 1052.36  12
  -9  -3 -13 1776.14 1561.48  19
  -9  -3 -13-50.4139 1429.80  16
  -9   3 -13 1250.90 878.422  12
  -9  -3 -14 23878.1 4493.69  19
  -9  -3 -14 27556.3 4408.86  16
  -9   3 -14 27223.2 4097.19  12
  -9  -3 -15 3212.78 1923.26  19
  -9   3 -15-752.233 964.039  12
  -9   3 -16 925.886 882.550  12
  -9  -3 -16 23755.5 4607.73  19
  -9  -3 -17-104.786 736.876  19
  -9   3 -17 96.4810 558.963  12
  -9  -3 -18 3615.90 1129.70  19
  -9   3 -18 3755.08 1075.32  12
   9   4 -19 3757.36 694.433  21
  -9  -4  18 4653.35 1868.06  10
  -9  -4  17 25967.9 4216.53  10
  -9  -4  16 12336.5 3389.42  10
  -9  -4  15 3661.62 2066.15  10
  -9  -4  14 8728.53 3126.14  10
  -9  -4  13 8117.44 2597.56  10
  -9  -4  12 526.161 1302.96  10
  -9  -4  11 16510.4 2766.54  18
  -9  -4  11 10891.0 3606.80  10
  -9  -4  10 22860.6 3275.88  18
  -9  -4  10 27782.0 5382.62  10
  -9  -4   9 3307.40 1273.77  18
  -9  -4   9 2422.33 1684.97  10
  -9  -4   8 821.097 565.504  18
  -9  -4   8-1992.70 2131.88  10
  -9  -4   7 24025.3 3335.53  18
  -9  -4   7 25596.0 5084.27  10
  -9   4   7 27461.8 2438.74   5
  -9  -4   6 55153.8 7303.99  10
  -9  -4   6 52702.2 7603.14  15
  -9   4   6 56476.3 3449.63   5
  -9  -4   5 11713.8 3723.36  15
  -9  -4   5 11478.0 3077.65  10
  -9   4   5 15500.6 1817.59   5
  -9  -4   4 2493.58 2218.26  15
  -9  -4   4 540.271 1514.19  10
  -9   4   4 1332.94 687.415   5
  -9  -4   3 113139. 10110.0  10
  -9  -4   3 128504. 12188.0  15
  -9   4   3 119787. 5032.02   5
  -9  -4   2 7886.88 2671.30  10
  -9   4   2 7386.58 1208.23   5
  -9  -4   1 148.324 1243.16  10
  -9   4   1 80.2553 415.347   5
  -9  -4   0 19293.9 4266.39  10
  -9   4   0 16992.2 1864.79   5
  -9  -4   0 15950.5 3314.08  19
  -9  -4  -1 26659.8 4739.63  10
  -9   4  -1 28342.1 2393.41   5
  -9  -4  -1 27369.7 4541.76  19
  -9  -4  -2 1472.43 669.991  19
  -9  -4  -2-125.979 1444.85  16
  -9  -4  -2 2334.10 1470.87  10
  -9   4  -2 3747.18 865.875   5
  -9  -4  -3 46595.1 6524.42  10
  -9  -4  -3 35445.2 5792.54  16
  -9   4  -3 39990.2 2920.43   5
  -9  -4  -3 37031.7 5321.81  19
  -9  -4  -4 18104.6 3778.90  19
  -9  -4  -4 17190.6 4208.09  16
  -9   4  -4 21674.0 2152.99   5
  -9  -4  -5 167136. 12801.4  16
  -9  -4  -5 169265. 11949.2  19
  -9   4  -5 187270. 6627.65   5
  -9  -4  -6 4568.97 2055.47  16
  -9   4  -6 7736.15 1345.31   5
  -9  -4  -7 16919.7 3920.30  19
  -9  -4  -7 17097.2 4298.36  16
  -9   4  -7 15721.7 1936.99   5
  -9  -4  -8 1857.49 810.673  19
  -9  -4  -8 3724.27 2357.17  16
  -9  -4  -9 9960.16 3040.36  19
  -9  -4  -9 11761.2 3754.63  16
  -9  -4 -10 8440.89 2949.72  19
  -9  -4 -10 8196.60 2899.65  16
  -9  -4 -11 25488.9 4532.25  19
  -9  -4 -11 26472.3 4826.50  16
  -9  -4 -12 1144.67 1402.62  19
  -9  -4 -12-96.8455 1482.43  16
  -9  -4 -13-357.115 1017.05  19
  -9  -4 -13-1684.19 2015.48  16
  -9  -4 -14 3734.32 1701.06  19
  -9  -4 -14 2453.09 1333.08  16
  -9  -4 -15 23468.9 3814.85  19
  -9  -4 -15 25024.7 3796.52  16
  -9  -4 -16 2315.50 1224.33  16
  -9  -4 -16 976.430 994.136  19
  -9  -4 -17 72.7116 608.707  19
  -9  -5  17 9503.63 2286.93  10
   9   5 -17 8065.21 1053.29  21
  -9  -5  16 907.614 868.904  10
   9   5 -16 1236.53 581.419  21
  -9  -5  15 9443.04 2779.67  10
   9   5 -15 10280.6 1380.34  21
  -9  -5  14 12393.1 3142.82  10
   9   5 -14 10287.8 1524.21  21
  -9  -5  13 42707.1 6223.72  10
  -9  -5  12 7178.78 2669.27  10
   9   5 -12 6106.26 1997.82  14
  -9  -5  11 5864.89 2583.71  10
  -9  -5  10 8006.20 3110.16  10
  -9  -5   9 30663.7 5610.11  10
  -9  -5   8 18154.5 4314.98  10
  -9  -5   7 3013.84 1686.26  10
  -9  -5   6 1948.56 2054.98  10
  -9  -5   5 22813.6 4729.16  10
  -9  -5   4 115133. 10584.8  10
  -9  -5   4 109627. 11127.6  15
  -9  -5   3 2388.34 1952.33  15
  -9  -5   3 6704.56 2515.22  10
  -9   5   3 7154.98 1215.03   5
  -9   5   2 5714.03 1109.91   5
  -9   5   2 5634.51 1097.92  20
  -9  -5   1 9168.40 3359.45  10
  -9   5   1 12141.1 1628.53   5
  -9  -5   0 4786.70 2480.55  10
  -9   5   0 4124.80 917.653   5
  -9  -5  -1 7536.10 2740.39  10
  -9   5  -1 9093.39 1383.20   5
  -9  -5  -2 24267.7 5015.15  10
  -9   5  -2 25723.0 2426.81   5
  -9  -5  -3 2308.18 1778.74  16
  -9  -5  -3 6707.42 2903.26  10
  -9  -5  -4 9474.83 3234.06  16
  -9  -5  -4 14284.4 3983.68  10
  -9  -5  -5 22516.7 4748.46  16
  -9  -5  -5 22008.5 4857.79  10
  -9  -5  -6 47687.0 7005.89  16
  -9  -5  -7 38021.1 6204.93  16
  -9  -5  -8 6129.23 2832.02  16
  -9  -5  -9 9114.97 3176.13  16
  -9  -5 -10 5499.72 2097.42  16
  -9  -5 -11 16062.5 3817.22  16
  -9  -5 -11 17279.3 3388.32  19
  -9  -5 -12 445.990 620.385  19
  -9  -5 -12-1447.33 1593.28  16
  -9  -5 -13 780.689 631.028  19
  -9  -5 -13 1037.59 1164.56  16
  -9  -5 -14 4888.29 1632.63  19
  -9  -5 -14 4009.90 1502.11  16
  -9  -5 -15 1053.24 920.967  16
  -9  -6  15 3760.68 1498.88  10
   9   6 -15 3328.90 613.663  21
  -9  -6  14 17738.1 3236.84  10
   9   6 -14 16992.5 2796.33  14
   9   6 -14 18962.5 1593.64  21
  -9  -6  13 2088.48 1769.90  10
   9   6 -13 1988.35 909.518  14
   9   6 -13 2086.64 528.795  21
  -9  -6  12 11173.2 2866.72  10
   9   6 -12 6268.78 2430.14  14
   9   6 -12 10582.2 1294.03  21
  -9  -6  11 9880.93 3321.73  10
  -9  -6  10 34189.6 5357.68  10
  -9  -6   9 2200.09 1405.09  10
  -9  -6   8 15427.3 3884.96  10
  -9  -6   7 26358.6 4880.35  10
   9   6  -7 30215.1 6134.47  13
  -9  -6   6 1371.99 1857.32  10
   9   6  -6 1541.05 2131.59  13
  -9  -6   5 26412.3 5161.01  10
   9   6  -5 26557.1 6047.46  13
  -9  -6   4 8531.57 2576.61  10
  -9  -6   3 39830.7 6454.38  10
  -9  -6   2-1348.65 1421.53  10
  -9   6   2 1967.72 756.217  20
  -9  -6   1 54962.0 7435.14  10
  -9  -6   1 60477.4 8367.37  15
  -9   6   1 57385.2 3617.61  20
  -9  -6   0 12742.4 3808.04  10
  -9   6   0 11012.2 1546.08  20
  -9  -6  -1 3855.67 1861.70  10
  -9  -6  -2 6.32007 1930.04  10
  -9  -6  -3 6222.82 2601.24  10
  -9  -6  -4 3578.51 2092.20  10
  -9  -6  -5 3247.61 1142.09  16
  -9  -6  -5 7239.23 2456.52  10
  -9  -6  -6-638.472 1899.91  16
  -9  -6  -6 5983.53 2648.54  10
  -9  -6  -7 14493.1 3844.47  16
  -9  -6  -7 13022.0 3595.96  10
  -9  -6  -8-1305.89 1969.31  16
  -9  -6  -8-312.702 1033.89  10
  -9  -6  -9 440.353 1336.52  16
  -9  -6  -9 2165.97 2075.39  10
  -9  -6 -10 7649.93 2564.60  16
  -9  -6 -10 7514.15 2525.60  10
  -9  -6 -11-1296.15 1415.90  16
  -9  -6 -11 2216.69 1563.08  10
  -9  -6 -12 2269.31 1300.07  16
  -9  -6 -12 4406.59 2125.02  10
  -9  -6 -13 5456.64 1789.38  16
  -9  -6 -13 5168.27 1870.73  10
  -9  -6 -14 1083.75 1031.78  10
  -9  -7  12-802.562 882.660  10
   9   7 -12-63.8635 942.762  14
  -9  -7  11 1110.07 1315.26  10
   9   7 -11-1265.49 898.567  14
  -9  -7  10 1904.73 1613.32  10
  -9  -7   9 29083.1 4537.27  10
  -9  -7   8 2065.21 1413.32  10
   9   7  -8 8693.49 3381.71  13
  -9  -7   7 5474.03 2304.93  10
   9   7  -7 4173.29 2413.11  13
  -9  -7   6 8457.44 2493.83  10
   9   7  -6 8269.22 3576.16  13
  -9  -7   5 10611.5 3024.30  10
   9   7  -5 12386.2 3938.49  13
  -9  -7   4 8925.74 2932.64  10
   9   7  -4 10279.6 3828.67  13
  -9  -7   3 6806.97 2791.68  10
   9   7  -3 4559.47 2149.25  13
  -9  -7   2 7647.67 2740.22  10
  -9  -7   1 14899.0 3762.19  10
  -9  -7   0 4393.86 2257.02  10
  -9   7   0 5109.87 1055.01  20
  -9  -7  -1 3968.25 2174.65  10
  -9   7  -1 2299.82 707.180  20
  -9  -7  -2 11781.6 3151.83  10
  -9  -7  -3 14730.2 3503.86  10
  -9  -7  -4 9723.21 3004.09  10
  -9  -7  -5 13227.1 3224.90  10
  -9  -7  -6 11222.8 3095.18  10
  -9  -7  -7 9936.46 2871.30  10
  -9  -7  -8 7637.44 2228.30  10
  -9  -7  -9 17154.3 3449.18  10
  -9  -7 -10 6970.09 2282.18  10
  -9  -7 -11 5431.27 1696.45  10
  -9  -8   8 17.1574 656.390  10
  -9  -8   7 8810.44 2125.65  10
   9   8  -7 6788.41 2148.95  13
  -9  -8   6 8352.65 2101.00  10
   9   8  -6 10097.6 3112.87  13
  -9  -8   5 9144.26 2176.85  10
   9   8  -5 7600.39 3003.92  13
  -9  -8   4 16394.7 3065.47  10
   9   8  -4 13369.3 3731.21  13
  -9  -8   3 2642.10 1229.33  10
   9   8  -3 2981.58 1896.16  13
  -9  -8   2 5390.68 1893.21  10
   9   8  -2 4301.01 2293.53  13
  -9  -8   1 19766.3 3489.55  10
   9   8  -1 18501.5 4419.85  13
  -9  -8   0 17556.0 3153.13  10
   9   8   0 18456.4 4510.02  13
  -9  -8  -1-186.647 1059.14  10
  -9  -8  -2 13542.4 2963.29  10
  -9  -8  -3 42695.0 4965.07  10
  -9  -8  -4 5798.58 1891.64  10
  -9  -8  -5 4150.77 1583.12  10
  -9  -8  -6 1444.04 989.475  10
  -9  -8  -7 7511.52 1873.49  10
  10   0 -20 11968.1 2385.02  12
 -10   0  19 32.3174 541.395  18
 -10   0  18-246.330 648.673  18
 -10   0  17-1362.54 1132.06  18
 -10   0  16 57333.7 5630.35  18
 -10   0  15 2548.22 1687.82  18
 -10   0  14 12189.9 2638.29  18
 -10   0  13 585.834 1003.04  18
 -10   0  12 4224.05 1639.10  18
 -10   0  11-1.25511 728.508  18
  10   0 -11 3112.32 1757.98   7
 -10   0  10 59802.3 5895.85  18
  10   0 -10 57509.9 6440.75   7
 -10   0   9-938.823 702.669  18
  10   0  -9 1080.54 932.702   7
 -10   0   8 51805.1 5276.22  18
  10   0  -8 54993.2 6025.66   7
 -10   0   8 54807.9 5150.20   9
 -10   0   7 936.029 1097.25  18
  10   0  -7-527.752 1249.79   7
 -10   0   7-269.888 943.944   9
  10   0  -6 281176. 13110.1   7
 -10   0  -5 82.9433 821.726  12
 -10   0  -6 26415.0 4642.45  19
 -10   0  -6 21290.6 3905.83  12
 -10   0  -7 398.041 997.592  19
 -10   0  -7-341.942 887.846  12
 -10   0  -8 46831.5 5984.87  12
 -10   0  -8 48651.2 6625.44  19
 -10   0  -9 595.837 1028.27  19
 -10   0  -9 17.6993 825.403  12
 -10   0 -10-43.2658 1512.52  19
 -10   0 -10 1806.21 1317.61  12
 -10   0 -11 1854.85 1824.04  19
 -10   0 -11-1532.04 1489.71  12
 -10   0 -12 35711.9 5265.75  12
 -10   0 -12 38949.7 5813.50  19
 -10   0 -13 1561.82 1565.74  19
 -10   0 -13 246.444 686.734  12
 -10   0 -14 28210.1 4698.60  19
 -10   0 -14 24762.9 4116.02  12
 -10   0 -15 685.051 808.326  19
 -10   0 -15-153.669 955.876  12
 -10   0 -16 4788.98 1660.97  19
 -10   0 -16 3946.69 1582.25  12
 -10   0 -17 580.411 735.111  19
 -10   0 -17-1490.33 1178.55  12
 -10   0 -18 36969.5 3839.03  12
 -10   0 -18 34817.3 3881.62  19
 -10   0 -19-1874.28 861.595  12
  10  -1 -20 3404.74 1302.18  12
  10   1 -20 3007.35 1286.17  12
 -10  -1  19 17217.7 2504.10  18
 -10   1  18 498.222 833.350  18
 -10  -1  18 482.535 789.536  18
 -10   1  17 2204.53 1363.51  18
 -10  -1  17 833.010 1362.06  18
 -10   1  16 1596.10 1251.19  18
 -10  -1  16 1445.80 799.632  18
 -10  -1  16 1068.31 781.284  10
 -10   1  15 32511.7 4435.59  18
 -10  -1  15 45044.8 5099.61  18
 -10   1  14 4946.46 2000.25  18
 -10  -1  14 4917.78 1910.45  18
 -10   1  13 6585.04 1973.94  18
 -10  -1  13 9797.51 2448.66  18
 -10   1  12 4269.42 1500.20  18
 -10  -1  12 4222.17 1513.23  18
 -10   1  11 41803.0 4856.07  18
 -10  -1  11 44112.1 5079.44  18
 -10   1  10 3074.41 1485.73  18
 -10  -1  10 4288.73 1581.10  18
  10  -1 -10 4053.49 2002.19   7
  10   1 -10 4625.71 2161.79   7
 -10   1   9 1243.45 961.699  18
 -10  -1   9 1577.64 1481.16  18
  10  -1  -9 2865.42 1651.17   7
  10   1  -9-1920.14 1358.42   7
 -10   1   8 11113.8 2432.35  18
 -10  -1   8 12205.9 2547.08  18
  10  -1  -8 12067.6 2836.10   7
  10   1  -8 12475.9 3179.96   7
 -10  -1   8 11814.3 2523.54   9
 -10   1   7 27644.7 3705.95  18
  10  -1  -7 29250.9 4128.02   7
  10   1  -7 31430.9 4450.44   7
 -10   1   7 31597.2 3674.34   9
 -10  -1   7 31034.6 3913.53   9
  10  -1  -6 5060.77 1825.20   7
  10   1  -6 5542.10 1959.97   7
 -10  -1   6 9557.20 3401.49  15
 -10  -1   6 8090.10 1970.84   9
 -10   1   5 62835.4 3334.48   5
 -10   1   4 10516.8 1324.85   5
 -10   1   3 13042.9 1425.52   5
 -10   1   2 3561.02 742.118   5
 -10   1   1 59109.9 3016.88   5
 -10   1   0 6462.48 969.786   5
 -10   1  -1 6514.00 983.272   5
 -10   1  -2 16689.7 1555.54   5
 -10  -1  -5 6717.75 2534.94  19
 -10  -1  -5 5125.67 1747.56  12
 -10   1  -5 6835.94 1811.98  12
 -10  -1  -6-1101.43 1418.28  19
 -10  -1  -6 827.591 1037.63  12
 -10   1  -6 1217.82 1262.86  12
 -10  -1  -7 42042.7 5456.20  12
 -10   1  -7 36761.5 5209.48  12
 -10   1  -7 34612.6 5250.75  19
 -10  -1  -7 35449.5 5784.12  19
 -10   1  -8 21922.0 4129.92  19
 -10  -1  -8 27957.3 4411.07  12
 -10   1  -8 26641.1 4687.62  12
 -10  -1  -8 33121.2 5586.15  19
 -10   1  -9-248.059 749.106  19
 -10  -1  -9 1518.35 1131.46  19
 -10  -1  -9 1449.52 1625.09  12
 -10   1  -9 1956.12 1416.84  12
 -10  -1 -10-64.8357 1260.41  19
 -10   1 -10 1323.37 1821.35  19
 -10  -1 -10-402.402 1037.67  12
 -10   1 -10 1353.92 1370.79  12
 -10   1 -11 9897.64 2779.34  19
 -10  -1 -11 7779.08 2635.37  19
 -10  -1 -11 9943.12 2912.71  12
 -10   1 -11 10685.5 2908.41  12
 -10   1 -12 8687.98 2566.27  19
 -10  -1 -12 9306.46 3152.48  19
 -10  -1 -12 9004.74 2590.78  12
 -10   1 -12 7971.27 2433.38  12
 -10   1 -13 1358.17 1157.48  19
 -10  -1 -13 2938.94 2284.93  19
 -10  -1 -13 1641.26 1090.05  12
 -10   1 -13 972.258 815.880  12
 -10   1 -14 14449.3 3164.93  19
 -10  -1 -14 11754.8 3041.49  19
 -10  -1 -14 15312.7 3191.45  12
 -10   1 -14 14083.5 3071.28  12
 -10  -1 -15 8023.82 2616.38  19
 -10  -1 -15 4980.44 1724.06  12
 -10   1 -15 6092.63 2011.26  12
 -10  -1 -16 161.822 900.781  19
 -10  -1 -16 603.889 766.553  12
 -10   1 -16 242.993 597.600  12
 -10  -1 -17-1096.52 1378.80  19
 -10  -1 -17-429.685 804.550  12
 -10   1 -17-888.483 893.623  12
 -10  -1 -18 1877.15 906.243  19
 -10  -1 -18 3313.24 1098.38  12
 -10   1 -18 4206.80 1360.37  12
 -10   1 -19 8195.93 1592.90  12
 -10  -2  19 2413.79 956.230  18
  10  -2 -19-349.818 634.838  12
  10   2 -19 2914.13 1239.60  12
 -10  -2  18-16.2752 627.546  18
 -10   2  17 5975.39 1538.39  18
 -10  -2  17 5073.96 1634.37  18
 -10  -2  17 6216.62 2236.06  10
 -10   2  16 2886.90 1243.37  18
 -10  -2  16 5382.83 1762.86  18
 -10  -2  16 2371.92 1743.58  10
 -10   2  15 2551.95 1380.40  18
 -10  -2  15 1382.76 646.898  18
 -10  -2  15 2207.65 1442.30  10
 -10   2  14 10563.8 2422.19  18
 -10  -2  14 12501.3 2725.42  18
 -10  -2  14 15491.3 3817.06  10
 -10   2  13 1112.73 971.667  18
 -10  -2  13 3717.26 1652.67  18
 -10  -2  13-876.216 1708.20  10
 -10   2  12 34896.6 4277.19  18
 -10  -2  12 38641.0 4687.80  18
 -10  -2  12 42601.1 6247.61  10
 -10   2  11 4701.77 1693.83  18
 -10  -2  11 3414.41 1072.18  18
 -10  -2  11 2463.25 1646.69  10
 -10  -2  10 16044.6 2954.85  18
  10   2 -10 14537.2 3238.37   7
 -10  -2  10 19692.3 4289.00  10
 -10  -2   9 12978.0 2762.44  18
  10   2  -9 14222.5 3128.38   7
 -10  -2   9 16371.4 4038.57  10
 -10  -2   8 20052.6 3417.93  18
  10   2  -8 17872.9 3406.46   7
 -10  -2   8 23327.3 4348.93  10
  10   2  -7 9018.22 2585.16   7
 -10  -2   7 10640.8 3130.78  15
 -10  -2   7 9168.67 2100.50   9
  10   2  -6 2267.31 958.289   7
 -10   2   6 5412.12 1116.22   5
 -10  -2   6 4891.85 1958.75  15
 -10  -2   6 7294.48 1969.92   9
 -10  -2   5 36192.7 6487.53  15
 -10  -2   5 35183.8 3980.33   9
 -10   2   5 40622.3 2794.28   5
 -10  -2   4 21958.8 5003.15  15
 -10  -2   4 19316.0 2902.34   9
 -10   2   4 18663.5 1835.28   5
 -10   2   3 1790.49 602.940   5
 -10   2   2 69624.4 3533.48   5
 -10   2   1 166457. 5546.01   5
 -10   2   0 10107.7 1307.58   5
 -10   2  -1 2847.73 710.538   5
 -10   2  -2 23563.6 1978.04   5
 -10  -2  -3 16242.1 3505.09  19
 -10   2  -3 19117.1 1791.99   5
 -10  -2  -4 5043.96 2079.11  19
 -10  -2  -4 12036.3 2751.31  12
 -10   2  -4 8849.77 2298.64  12
 -10   2  -4 8472.53 1206.20   5
 -10  -2  -5 13687.6 3634.01  19
 -10  -2  -5 17105.3 3154.49  12
 -10   2  -5 14785.5 3072.82  12
 -10   2  -5 16249.0 1700.46   5
 -10  -2  -6 2092.92 1614.29  19
 -10  -2  -6-1240.00 1409.09  16
 -10   2  -6 1994.88 676.914   5
 -10  -2  -6 1630.91 1078.69  12
 -10   2  -6 2098.33 1116.76  12
 -10  -2  -7 1986.04 1276.88  19
 -10  -2  -7 2535.69 1744.94  16
 -10   2  -7 2382.14 722.673   5
 -10  -2  -7 3134.11 1539.42  12
 -10   2  -7 3932.89 1671.44  12
 -10  -2  -8 22216.9 4774.06  19
 -10  -2  -8 20998.0 4057.88  16
 -10  -2  -8 21573.8 3797.74  12
 -10   2  -8 24329.0 4188.15  12
 -10  -2  -9 73147.4 7786.98  16
 -10  -2  -9 84977.5 7636.02  12
 -10   2  -9 69423.9 7227.89  12
 -10  -2  -9 78156.5 8770.30  19
 -10  -2 -10 24593.5 5128.47  19
 -10  -2 -10 21054.0 4175.34  16
 -10   2 -10 28069.4 4522.23  12
 -10  -2 -10 20994.2 3850.71  12
 -10  -2 -11 2593.46 1588.63  19
 -10  -2 -11 310.372 693.818  12
 -10   2 -11 307.563 1217.28  12
 -10  -2 -12 2917.42 1753.17  19
 -10  -2 -12 6443.48 2066.44  12
 -10   2 -12 7584.71 2344.12  12
 -10  -2 -13 51313.3 5645.25  12
 -10   2 -13 34039.8 4864.86  12
 -10  -2 -13 49725.9 6777.95  19
 -10  -2 -14 8834.21 2957.81  19
 -10  -2 -14 9816.31 2425.85  12
 -10   2 -14 9312.32 2514.85  12
 -10  -2 -15 256.254 1133.60  19
 -10  -2 -15 855.143 829.373  12
 -10   2 -15-417.432 974.057  12
 -10  -2 -16 2040.48 1351.65  19
 -10  -2 -16 3351.75 1395.47  12
 -10   2 -16 2848.62 1360.87  12
 -10   2 -17 25052.2 3256.92  12
 -10  -2 -17 31950.7 4187.95  19
 -10  -2 -18 4319.47 1429.37  19
 -10   2 -18 8725.81 1689.79  12
 -10  -3  18 2796.36 1279.76  10
 -10  -3  18 2363.70 959.757  18
  10   3 -18 2536.82 1319.85  12
 -10  -3  17 606.620 877.742  18
 -10  -3  17-223.522 811.470  10
 -10  -3  16 3435.96 1394.46  18
 -10  -3  16 1460.10 1290.92  10
 -10  -3  15-482.420 914.849  18
 -10  -3  15 2221.21 1417.79  10
 -10  -3  14 2240.26 1169.70  18
 -10  -3  14 3673.69 2140.83  10
 -10  -3  13-640.315 955.287  18
 -10  -3  13-265.750 996.680  10
 -10  -3  12 49376.3 5146.01  18
 -10  -3  12 50132.0 6833.58  10
 -10  -3  11 1767.89 1253.10  18
 -10  -3  11 1122.20 1020.36  10
 -10  -3  10 10383.4 2552.86  18
 -10  -3  10 10249.2 3160.19  10
 -10  -3   9 12553.4 2623.21  18
 -10  -3   9 10214.4 3379.38  10
 -10  -3   8 3496.56 1434.13  18
  10   3  -8 7351.84 2427.78   7
 -10  -3   8 3701.84 2166.39  10
 -10  -3   7 3498.78 1653.91  18
  10   3  -7 8410.07 2399.55   7
 -10  -3   7 3385.68 1534.44  10
 -10  -3   7 2705.82 1605.34  15
 -10   3   7 6167.94 1249.47   5
 -10  -3   6 88164.4 8839.10  10
  10   3  -6 73212.8 6848.64   7
 -10  -3   6 79569.7 9893.97  15
 -10  -3   6 82215.2 6433.71   9
 -10   3   6 85668.2 4292.34   5
  10   3  -5 1237.91 1148.26   7
 -10   3   5 1636.40 658.132   5
 -10  -3   5 241.025 1306.25  15
 -10  -3   5-2504.22 1474.13  10
 -10  -3   5 1669.18 1093.00   9
  10   3  -4-601.399 1506.34   7
 -10  -3   4-1394.31 1866.04  15
 -10   3   4 748.526 586.168   5
 -10  -3   4 647.622 835.454  10
 -10  -3   4 414.582 474.006   9
 -10  -3   3 28373.3 6069.64  15
 -10  -3   3 27414.7 4888.94  10
 -10  -3   3 27557.8 3526.92   9
 -10   3   3 30542.0 2475.13   5
 -10  -3   2 2450.60 1307.26  10
 -10   3   2 6833.76 1142.60   5
 -10  -3   2 4618.11 1447.27   9
 -10  -3   2 5700.35 2003.97  19
 -10  -3   1 34122.1 5129.07  10
 -10  -3   1 31419.4 3673.55   9
 -10   3   1 35277.1 2661.07   5
 -10  -3   1 38568.6 5501.79  19
 -10  -3   0 129461. 10244.6  10
 -10   3   0 141021. 5372.34   5
 -10  -3   0 126866. 10164.2  19
 -10  -3  -1 1419.35 854.182  19
 -10  -3  -1-1003.59 1771.52  10
 -10   3  -1 115.412 335.566   5
 -10  -3  -2 8038.83 2699.82  19
 -10  -3  -2 7369.67 2435.36  10
 -10   3  -2 10282.6 1402.08   5
 -10  -3  -3 18830.0 4024.24  19
 -10  -3  -3 23148.1 4308.12  10
 -10   3  -3 21676.7 2064.84   5
 -10  -3  -4 20499.3 4242.81  19
 -10  -3  -4 18567.0 3939.26  10
 -10   3  -4 18644.3 1946.21   5
 -10  -3  -5 365.271 959.435  19
 -10  -3  -5-169.701 1444.71  16
 -10   3  -5 291.800 410.308   5
 -10  -3  -6 17154.3 3982.44  19
 -10  -3  -6 19498.1 4316.75  16
 -10   3  -6 19094.5 2019.15   5
 -10  -3  -7-327.549 1350.68  19
 -10  -3  -7 1097.40 1573.61  16
 -10   3  -7 1975.55 623.842   5
 -10   3  -7 403.172 947.880  12
 -10  -3  -8 139054. 11572.5  16
 -10   3  -8 146770. 10088.4  12
 -10  -3  -8 135106. 11362.1  19
 -10  -3  -9 445.149 838.243  19
 -10  -3  -9 710.534 943.978  16
 -10   3  -9-142.960 985.164  12
 -10  -3 -10 7782.25 2958.10  19
 -10  -3 -10 4353.18 1931.18  16
 -10   3 -10 6582.31 2342.75  12
 -10  -3 -11 165.760 1183.32  19
 -10  -3 -11-71.0306 1025.22  16
 -10   3 -11 1574.21 1249.51  12
 -10  -3 -12 41632.1 5688.13  16
 -10   3 -12 39838.2 5009.44  12
 -10  -3 -12 42856.8 6167.18  19
 -10  -3 -13 5001.31 2210.34  19
 -10  -3 -13 2122.63 1175.34  16
 -10  -3 -14 4485.26 2066.94  19
 -10   3 -14 3563.64 1674.87  12
 -10  -3 -15-1113.78 1214.00  19
 -10   3 -15-965.197 647.723  12
 -10  -3 -16 13176.6 2781.28  19
 -10   3 -16 12604.1 2267.78  12
 -10  -3 -17 1094.23 837.245  19
 -10   3 -17 1040.97 725.000  12
 -10  -4  18 6262.57 1737.94  10
 -10  -4  17 4970.87 1867.52  10
 -10  -4  16 6145.99 1994.87  10
 -10  -4  15 1239.18 1510.13  10
 -10  -4  14 2122.98 908.647  18
 -10  -4  14 1256.46 1858.07  10
 -10  -4  13 2416.29 1118.61  18
 -10  -4  13 1084.55 1492.88  10
 -10  -4  12 25472.2 3474.19  18
 -10  -4  12 30042.3 5435.02  10
 -10  -4  11 9776.94 2192.69  18
 -10  -4  11 6765.69 2751.57  10
 -10  -4  10 6768.10 1695.99  18
 -10  -4  10 5257.89 2514.46  10
 -10  -4   9 7959.03 2041.83  18
 -10  -4   9 11394.1 3620.63  10
 -10  -4   8 498.105 680.634  18
 -10  -4   8 434.211 1585.83  10
 -10  -4   7 557.128 562.181  18
 -10  -4   7 2440.87 1707.39  10
 -10  -4   7 1338.64 2238.23  15
 -10  -4   6 44651.2 6556.77  10
 -10  -4   6 35589.8 6473.31  15
 -10  -4   5 50541.6 6967.48  10
 -10  -4   5 55591.7 8355.77  15
 -10  -4   5 55598.5 4973.47   9
 -10   4   5 55909.9 3464.36   5
 -10  -4   4 1906.83 2364.90  15
 -10   4   4 5171.14 1109.19   5
 -10  -4   4 5080.84 2328.57  10
 -10  -4   4 3024.38 1108.66   9
 -10  -4   3 811.148 1502.52  10
 -10   4   3 2807.71 884.897   5
 -10  -4   2 50032.6 6660.72  10
 -10  -4   2 52394.7 8188.87  15
 -10   4   2 54757.2 3455.08   5
 -10  -4   1 43462.9 6417.41  10
 -10   4   1 44865.1 3124.93   5
 -10  -4   1 42199.7 5700.91  19
 -10  -4   0 42576.1 6255.86  10
 -10   4   0 48771.0 3238.57   5
 -10  -4   0 49774.7 6327.53  19
 -10  -4  -1 28864.6 5240.72  10
 -10   4  -1 31878.6 2598.44   5
 -10  -4  -1 26284.9 4560.99  19
 -10  -4  -2 6236.10 2310.73  10
 -10   4  -2 7560.98 1286.31   5
 -10  -4  -2 8368.50 2776.55  19
 -10  -4  -3 63974.5 7773.34  10
 -10   4  -3 67463.1 3825.20   5
 -10  -4  -3 57585.7 7042.72  19
 -10  -4  -4 16122.0 3809.89  19
 -10  -4  -4 17672.4 4203.97  10
 -10  -4  -5 10909.8 3153.45  19
 -10  -4  -5 5248.48 2389.13  16
 -10  -4  -5 11116.6 3332.54  10
 -10  -4  -6 21274.9 4187.92  19
 -10  -4  -6 12017.8 3620.85  16
 -10  -4  -7 3204.26 1517.75  19
 -10  -4  -7 2900.00 2225.79  16
 -10  -4  -8-1518.97 1204.35  19
 -10  -4  -8-970.082 1222.97  16
 -10  -4  -9 91216.9 9400.56  16
 -10  -4  -9 102924. 9326.05  19
 -10  -4 -10 7254.34 2529.79  19
 -10  -4 -10 3376.95 1569.45  16
 -10  -4 -11 6294.35 2231.40  19
 -10  -4 -11 3036.69 1709.66  16
 -10  -4 -12 524.399 866.758  19
 -10  -4 -12-3574.12 1977.87  16
 -10  -4 -13 41298.9 5312.65  16
 -10  -4 -13 50280.6 5780.45  19
 -10  -4 -14-871.589 683.682  19
 -10  -4 -15 4000.88 1513.41  19
 -10  -4 -16 524.345 722.964  19
 -10  -5  16 196.344 912.672  10
  10   5 -16 645.098 306.012  21
 -10  -5  15 35953.5 4775.69  10
  10   5 -15 31413.2 2035.09  21
 -10  -5  14 8156.22 2476.94  10
  10   5 -14 6901.27 993.242  21
 -10  -5  13 7688.79 2468.65  10
  10   5 -13 9925.44 1243.76  21
 -10  -5  12 14820.1 3509.17  10
 -10  -5  11 33031.3 5464.27  10
 -10  -5  10 17961.8 4150.62  10
 -10  -5   9 3677.34 2038.56  10
 -10  -5   8 1675.09 1386.48  10
 -10  -5   7 15099.9 4139.81  10
 -10  -5   6 13770.6 3628.37  10
 -10  -5   5 2659.39 1971.04  15
 -10  -5   5 160.899 1288.60  10
 -10  -5   4 2466.23 2092.23  15
 -10  -5   4 2616.53 1643.69  10
 -10  -5   3 89591.7 9363.14  10
 -10  -5   3 89545.0 10453.5  15
 -10  -5   2 20666.6 5022.30  15
 -10  -5   2 21043.3 4784.88  10
 -10  -5   1 1825.58 2660.92  15
 -10  -5   1-156.819 1058.99  10
 -10  -5   0 18933.6 4546.11  10
 -10  -5  -1 62191.0 7878.11  10
 -10  -5  -2 3934.01 1741.85  10
 -10  -5  -3 49372.7 7007.89  10
 -10  -5  -4 33524.3 5545.48  10
 -10  -5  -5 30106.0 5474.22  10
 -10  -5  -6 3978.22 2339.56  16
 -10  -5  -6 3504.40 1888.68  10
 -10  -5  -7 8346.05 2974.35  16
 -10  -5  -7 15225.6 4178.76  10
 -10  -5  -8 35889.4 5983.04  10
 -10  -5  -8 24715.2 4735.93  16
 -10  -5  -8 37967.9 5222.43  19
 -10  -5  -9 567.883 680.151  19
 -10  -5  -9-904.757 1715.18  16
 -10  -5  -9 448.110 970.032  10
 -10  -5 -10 3716.40 1549.00  19
 -10  -5 -10 2546.87 1246.31  16
 -10  -5 -10 7314.47 2625.74  10
 -10  -5 -11 6048.95 1961.22  19
 -10  -5 -11-658.442 1613.45  16
 -10  -5 -11 3070.58 2140.54  10
 -10  -5 -12 1901.89 1298.74  19
 -10  -5 -12-1064.47 1635.77  16
 -10  -5 -12 2521.60 1523.28  10
 -10  -5 -13 4002.56 1369.80  19
 -10  -5 -13 2895.06 1572.33  10
 -10  -5 -14 2240.79 1109.71  10
 -10  -6  14 11932.8 2477.80  10
 -10  -6  13 447.944 827.370  10
 -10  -6  12 9503.87 2672.84  10
 -10  -6  11 875.054 1048.15  10
  10   6 -11 1307.45 1142.73  14
 -10  -6  10 20270.3 3900.79  10
 -10  -6   9-200.073 1001.24  10
 -10  -6   8 1585.51 2008.40  10
 -10  -6   7 167.341 1655.82  10
 -10  -6   6 49684.5 6866.55  10
 -10  -6   5 5614.04 2429.06  10
 -10  -6   4 1302.11 1458.89  10
  10   6  -4 558.081 1551.00  13
 -10  -6   3 48715.2 6715.25  10
 -10  -6   2 76930.0 8477.00  10
 -10  -6   2 75269.0 8721.96  15
 -10  -6   1 26159.6 5289.52  15
 -10  -6   1 30244.2 5204.99  10
 -10  -6   0 8107.41 3682.51  15
 -10  -6   0 5856.72 2106.81  10
 -10  -6  -1 26537.9 5195.30  10
 -10  -6  -2 38839.0 6065.71  10
 -10  -6  -3-87.0480 1336.97  10
 -10  -6  -4 2559.09 1839.48  10
 -10  -6  -5 2187.30 1820.99  10
 -10  -6  -6 377.836 1529.33  10
 -10  -6  -7 3844.48 2493.91  10
 -10  -6  -8 2091.18 1503.47  10
 -10  -6  -9 8903.85 2672.25  10
 -10  -6 -10 5386.24 2101.40  10
 -10  -6 -11 8272.30 2382.28  10
 -10  -6 -12 4915.56 1666.26  10
 -10  -7  11 41306.4 4264.58  10
 -10  -7  10 899.671 1023.94  10
  10   7 -10 811.293 1226.94  14
 -10  -7   9 7044.16 2073.87  10
 -10  -7   8-1116.80 1240.90  10
 -10  -7   7 37053.6 4889.86  10
 -10  -7   6 4823.55 1976.11  10
  10   7  -6 4449.72 2358.95  13
 -10  -7   5 4985.19 1975.52  10
  10   7  -5 8910.21 3450.15  13
 -10  -7   4 428.040 924.922  10
  10   7  -4 1003.84 1594.34  13
 -10  -7   3 479.155 1061.49  10
  10   7  -3 2727.80 2085.20  13
 -10  -7   2 20840.2 3948.20  10
  10   7  -2 25803.2 5753.89  13
 -10  -7   1 19744.6 4014.55  10
 -10  -7   0-1121.32 1612.47  10
 -10  -7  -1 387.390 1248.17  15
 -10  -7  -1-432.033 1176.11  10
 -10  -7  -2 13341.9 3569.08  15
 -10  -7  -2 10416.8 2937.64  10
 -10  -7  -3 15704.6 4078.72  15
 -10  -7  -3 13241.2 3238.78  10
 -10  -7  -4 1240.96 1230.96  10
 -10  -7  -5 4062.25 2036.28  10
 -10  -7  -6 16681.1 3335.04  10
 -10  -7  -7 13968.0 2849.24  10
 -10  -7  -8 3703.31 1567.45  10
 -10  -7  -9 2384.60 1028.00  10
 -10  -7 -10 4283.04 1208.55  10
 -10  -8   5 534.064 828.011  10
 -10  -8   4 7240.59 1799.66  10
  10   8  -4 8360.09 2588.08  13
 -10  -8   3-75.4295 901.653  10
  10   8  -3 655.658 1341.50  13
 -10  -8   2 3435.79 1506.43  10
  10   8  -2 3268.91 1675.43  13
 -10  -8   1 615.683 890.847  10
  10   8  -1 4412.87 2121.25  13
 -10  -8   0 11976.6 2518.96  10
  10   8   0 8176.63 2779.03  13
 -10  -8  -1 4802.60 1456.68  10
  10   8   1-1119.19 1621.67  13
 -10  -8  -2 17502.7 2904.36  10
  10   8   2 18843.5 3959.74  13
 -10  -8  -3 5166.60 1499.72  10
 -10  -8  -4 450.521 552.668  10
 -11   0  19-427.500 833.607  18
 -11   0  18 2213.60 970.107  18
 -11   0  17-1093.89 865.272  18
 -11   0  16 4714.04 1760.97  18
 -11   0  15-49.1811 739.041  18
 -11   0  14 718.615 850.863  18
 -11   0  13 122.365 948.703  18
 -11   0  12 2706.46 1432.98  18
 -11   0  11 764.746 872.510  18
 -11   0  10 3857.95 1737.65  18
 -11   0   9-321.098 758.324  18
 -11   0   8 142009. 9169.16  18
  11   0  -8 134260. 9771.51   7
 -11   0   7-760.766 665.807  18
  11   0  -7-1685.05 1554.62   7
 -11   0   7 472.940 501.163   9
  11   0  -6 4664.31 1698.54   7
 -11   0   6 7629.25 2026.34   9
 -11   0   5-586.955 849.570   9
 -11   0   4 235572. 17064.2  15
 -11   0   4 231652. 10771.2   9
 -11   0   3 375.469 2277.62  15
 -11   0   3 777.096 792.504   9
 -11   0   2 4744.49 2429.29  15
 -11   0   2 5784.65 1570.61   9
 -11   0   1-4481.05 3085.61  15
 -11   0   1 1081.20 1400.41  19
 -11   0   0 174825. 14145.7  15
 -11   0   0 182762. 12143.6  19
 -11   0  -1 159.186 1574.25  15
 -11   0  -1 1063.12 778.124  19
 -11   0  -2 7262.79 2420.23  19
 -11   0  -3 1123.36 1191.72  19
 -11   0  -4 254440. 13543.6  12
 -11   0  -4 256451. 14926.9  19
 -11   0  -5 1583.33 1621.36  19
 -11   0  -5 1826.54 1605.46  12
 -11   0  -6 26572.0 5025.15  19
 -11   0  -6 27309.3 4559.38  12
 -11   0  -7-230.396 1438.20  19
 -11   0  -7-1534.57 1417.65  12
 -11   0  -8 12989.3 3478.46  19
 -11   0  -8 9521.73 2891.81  12
 -11   0  -9-450.618 1385.20  19
 -11   0  -9-1102.23 1443.63  12
 -11   0 -10 46098.5 5898.78  12
 -11   0 -10 48872.5 6656.46  19
 -11   0 -11 736.734 1466.35  19
 -11   0 -11 1700.87 1319.94  12
 -11   0 -12 8052.86 2528.87  19
 -11   0 -12 7528.97 2241.79  12
 -11   0 -13 2005.28 1426.73  19
 -11   0 -13-1685.54 1213.76  12
 -11   0 -14 18286.6 3587.09  19
 -11   0 -14 18913.3 3476.32  12
 -11   0 -15 552.372 729.722  19
 -11   0 -15 139.646 1026.97  12
 -11   0 -16 5443.53 1677.39  19
 -11   0 -16 7828.72 2027.89  12
 -11   0 -17-1012.66 783.460  19
 -11   0 -17 517.970 491.612  12
 -11  -1  19 113.834 651.904  18
  11  -1 -19 761.945 849.861  12
 -11   1  18 6170.99 1454.58  18
 -11  -1  18 5098.17 1480.43  18
 -11   1  17 9564.01 2106.24  18
 -11  -1  17 11528.9 2349.45  18
 -11   1  16 1410.95 1132.74  18
 -11  -1  16-33.5671 766.042  18
 -11   1  15 2094.81 1207.16  18
 -11  -1  15 1794.85 1192.15  18
 -11   1  14 13394.1 2695.66  18
 -11  -1  14 9880.48 2350.07  18
 -11   1  13 48444.1 5177.59  18
 -11  -1  13 51323.2 5479.68  18
 -11   1  12 1754.58 712.076  18
 -11  -1  12 1898.57 1373.06  18
 -11   1  11 3238.29 1579.63  18
 -11  -1  11 1284.84 1341.97  18
 -11   1  10 14929.6 2892.50  18
 -11  -1  10 16890.9 3148.11  18
 -11   1   9 56571.3 5647.07  18
 -11  -1   9 57388.7 5819.31  18
 -11   1   8 3535.01 1507.26  18
 -11  -1   8 1638.27 646.606  18
  11  -1  -8 3397.22 1482.81   7
  11   1  -8 1092.45 1107.01   7
 -11   1   7 18412.4 3138.61  18
 -11  -1   7 20283.8 3428.63  18
  11  -1  -7 21329.1 3713.53   7
  11   1  -7 15888.7 3238.73   7
 -11   1   7 23458.6 3396.15   9
 -11  -1   7 21028.0 3362.19   9
 -11   1   6 9181.16 2329.75  18
  11  -1  -6 6792.26 1947.92   7
  11   1  -6 9240.02 2431.27   7
 -11   1   6 10361.3 2252.35   9
 -11  -1   6 8348.10 2130.61   9
  11  -1  -5 15760.5 3104.85   7
 -11  -1   5 17541.8 4550.72  15
 -11   1   5 18898.9 2898.70   9
 -11  -1   5 15849.9 2773.65   9
 -11   1   4 6589.68 1112.57   5
 -11  -1   4 2330.42 1739.11  15
 -11   1   4 5058.91 1413.68   9
 -11  -1   4 6673.77 1912.47   9
 -11  -1   3 73468.7 9562.81  15
 -11   1   3 68159.0 5548.27   9
 -11  -1   3 75485.2 6069.97   9
 -11   1   3 71005.2 3489.10   5
 -11  -1   2 7740.65 2876.17  15
 -11   1   2 10346.6 1278.92   5
 -11   1   2 10670.6 2229.81   9
 -11  -1   2 9414.91 2038.22   9
 -11  -1   2 12075.7 3068.26  19
 -11  -1   1 16431.8 4528.03  15
 -11   1   1 12880.4 1461.66   5
 -11   1   1 11998.5 2380.22   9
 -11  -1   1 12123.6 2893.99  19
 -11  -1   0 9780.67 3537.31  15
 -11   1   0 7561.45 2126.53  19
 -11  -1   0 6935.99 2255.87  19
 -11  -1  -1 89714.5 10439.6  15
 -11   1  -1 90066.1 8116.48  19
 -11  -1  -1 91602.8 8799.49  19
 -11  -1  -2 70111.8 9248.18  15
 -11   1  -2 74243.9 7511.38  19
 -11  -1  -2 80730.4 8307.86  19
 -11   1  -3 3076.67 1550.14  19
 -11  -1  -3 265.024 796.925  19
 -11  -1  -3 2661.75 1356.14  15
 -11   1  -4 1207.71 1073.70  19
 -11  -1  -4 2786.41 1244.05  19
 -11   1  -4 1062.59 661.378  12
 -11  -1  -5 75124.1 7259.02  12
 -11   1  -5 72159.8 7282.70  12
 -11   1  -5 72763.9 7561.12  19
 -11  -1  -5 70565.4 8163.42  19
 -11   1  -6 3099.98 1914.65  19
 -11  -1  -6-140.451 1188.38  19
 -11  -1  -6 1458.17 687.112  12
 -11   1  -6 1365.33 1306.03  12
 -11   1  -7 7260.76 2570.72  19
 -11  -1  -7 6840.98 2967.73  19
 -11  -1  -7 8399.65 2451.47  12
 -11   1  -7 3917.18 1716.39  12
 -11   1  -8 2533.61 1932.34  19
 -11  -1  -8 5309.53 2244.92  19
 -11  -1  -8 3280.49 1633.23  12
 -11   1  -8 2678.86 1409.48  12
 -11   1  -9 4523.11 1833.76  19
 -11  -1  -9 6528.15 2932.75  19
 -11  -1  -9 4720.62 1960.95  12
 -11   1  -9 7075.46 2187.32  12
 -11   1 -10 1856.83 1454.98  19
 -11  -1 -10 2530.86 1628.83  19
 -11  -1 -10 4730.44 1868.74  12
 -11   1 -10 261.320 1089.83  12
 -11  -1 -11 8386.98 2712.62  19
 -11  -1 -11 9870.02 2531.98  12
 -11   1 -11 13774.1 3228.23  12
 -11  -1 -12 10033.3 2796.33  19
 -11  -1 -12 11006.5 2769.72  12
 -11   1 -12 10135.8 2667.85  12
 -11  -1 -13-161.445 945.422  19
 -11  -1 -13 1950.05 1406.87  12
 -11   1 -13-632.561 628.484  12
 -11  -1 -14 370.033 941.126  19
 -11  -1 -14 571.251 1098.76  12
 -11   1 -14 1291.84 1320.95  12
 -11  -1 -15 2415.36 1480.09  19
 -11  -1 -15 1352.14 799.278  12
 -11   1 -15 2289.91 1113.46  12
 -11  -1 -16 1458.40 992.757  19
 -11  -1 -16 1336.76 827.554  12
 -11   1 -16 132.936 600.602  12
 -11  -1 -17 3530.77 1422.54  19
 -11  -1 -17 4380.74 1205.66  12
 -11   1 -17 2793.08 975.152  12
 -11  -2  18 2379.01 870.649  18
 -11   2  17 2132.85 1017.46  18
 -11  -2  17 3258.72 1278.96  18
 -11   2  16-724.312 697.507  18
 -11  -2  16-1098.45 575.057  18
 -11  -2  16-2628.06 1433.23  10
 -11   2  15 6628.46 1711.04  18
 -11  -2  15 3343.77 1336.37  18
 -11  -2  15 5633.32 2192.18  10
 -11   2  14 3528.89 1227.61  18
 -11  -2  14 3080.03 1350.64  18
 -11  -2  14 7337.57 2503.63  10
 -11   2  13 14880.0 2741.87  18
 -11  -2  13 20181.4 3387.10  18
 -11  -2  13 20463.9 4048.15  10
 -11   2  12 13434.2 2867.72  18
 -11  -2  12 14487.5 2847.04  18
 -11  -2  12 13515.5 3441.24  10
 -11  -2  11 2568.10 1390.45  18
 -11  -2  10 7773.31 2018.14  18
 -11  -2   9 16683.3 3224.91  18
 -11  -2   8 8107.02 2195.52  18
 -11  -2   7-292.855 907.817  18
  11   2  -7 57.1267 716.458   7
 -11  -2   7 940.719 539.373   9
  11   2  -6 41215.6 5280.81   7
 -11  -2   6 48286.8 7989.40  15
 -11  -2   6 52249.9 5303.55   9
  11   2  -5 12141.2 2779.65   7
 -11  -2   5 13427.7 4214.52  15
 -11   2   5 15041.1 1728.72   5
 -11  -2   5 13280.6 2720.39   9
 -11  -2   4 176481. 15423.4  15
 -11  -2   4 169150. 9356.45   9
 -11   2   4 166640. 5806.65   5
 -11  -2   3 39708.9 7299.24  15
 -11  -2   3 37006.2 4303.43   9
 -11   2   3 45091.3 2938.95   5
 -11  -2   2 4778.22 2290.55  15
 -11   2   2 6405.45 1115.02   5
 -11  -2   2 5304.84 1652.38   9
 -11  -2   2 8165.72 3002.98  19
 -11  -2   1 21396.2 5202.93  15
 -11  -2   1 25134.2 3565.06   9
 -11   2   1 24499.6 2118.65   5
 -11  -2   1 24956.9 4681.27  19
 -11  -2   0 100916. 11565.8  15
 -11   2   0 100602. 4363.94   5
 -11  -2   0 103465. 9416.92  19
 -11  -2  -1 97735.9 11486.3  15
 -11   2  -1 93912.3 4192.74   5
 -11  -2  -1 91212.0 8862.10  19
 -11  -2  -2 4301.88 2061.53  19
 -11   2  -2 7475.12 1172.93   5
 -11  -2  -3 2056.32 1370.89  19
 -11   2  -3 2780.82 735.184   5
 -11  -2  -4 1522.01 1649.73  19
 -11   2  -4-29.0591 348.125   5
 -11  -2  -5 20584.8 4456.68  19
 -11   2  -5 17333.4 3690.74  12
 -11  -2  -6 19762.0 4530.34  19
 -11  -2  -6 14185.3 3188.30  12
 -11   2  -6 20387.2 3885.76  12
 -11  -2  -7 3946.97 1970.63  19
 -11  -2  -7 2069.29 1074.47  12
 -11   2  -7 2102.60 1500.39  12
 -11  -2  -8 1900.63 1721.94  19
 -11  -2  -8 428.059 792.832  12
 -11   2  -8 3810.30 1796.73  12
 -11  -2  -9-288.022 1335.31  19
 -11  -2  -9 2236.72 1203.05  12
 -11   2  -9 179.097 867.115  12
 -11  -2 -10-459.459 992.191  19
 -11  -2 -10-241.902 816.568  12
 -11   2 -10 139.611 776.048  12
 -11  -2 -11 53876.4 5819.33  12
 -11   2 -11 51695.0 6037.05  12
 -11  -2 -11 53574.8 7121.91  19
 -11  -2 -12 1487.49 1489.85  19
 -11  -2 -12-153.156 823.079  12
 -11   2 -12-115.755 714.879  12
 -11  -2 -13 984.364 861.071  19
 -11  -2 -13 863.119 796.759  12
 -11   2 -13-233.118 582.609  12
 -11  -2 -14 7184.89 2409.37  19
 -11  -2 -14 7236.42 1842.87  12
 -11   2 -14 9233.48 2218.04  12
 -11  -2 -15 21092.2 3694.39  19
 -11  -2 -15 23801.4 3085.23  12
 -11   2 -15 16934.8 2886.45  12
 -11  -2 -16 2394.54 1110.34  19
 -11  -2 -16 2540.19 942.470  12
 -11  -2 -17-8.71654 589.712  19
 -11   2 -17-628.408 437.448  12
 -11  -3  17 380.683 352.881  18
 -11  -3  17 600.281 783.642  10
 -11  -3  16 250.826 614.858  18
 -11  -3  16 1932.91 1433.54  10
 -11  -3  15 273.635 517.587  18
 -11  -3  15 489.720 1394.79  10
 -11  -3  14 31120.6 3763.73  18
 -11  -3  14 30173.0 4813.24  10
 -11  -3  13 4095.49 1635.05  18
 -11  -3  13 3440.51 1783.57  10
 -11  -3  12 1972.11 1224.75  18
 -11  -3  12 5792.46 2414.76  10
 -11  -3  11 698.591 908.497  18
 -11  -3  11 2956.26 1975.33  10
 -11  -3  10 77841.5 6612.75  18
 -11  -3  10 83009.4 8624.29  10
 -11  -3   9 2153.60 1249.22  18
 -11  -3   9 5323.98 2261.43  10
 -11  -3   8 1283.08 1045.91  18
 -11  -3   8 73.9952 1245.13  10
 -11  -3   7 5992.26 2052.05  18
 -11  -3   7 4708.12 2423.28  10
 -11  -3   7 4120.45 2051.67  15
 -11  -3   6 976.476 1113.37  10
 -11  -3   6 3780.77 2546.79  15
 -11  -3   6 1399.18 833.023   9
 -11  -3   5 45779.7 6119.00  10
  11   3  -5 28058.2 4268.65   7
 -11  -3   5 34363.4 6820.59  15
 -11  -3   5 37143.1 4405.77   9
  11   3  -4 21346.9 3802.13   7
 -11  -3   4 21431.9 5770.31  15
 -11  -3   4 28340.7 4767.61  10
 -11  -3   4 28398.8 3822.33   9
 -11   3   4 26487.2 2358.06   5
 -11  -3   3 2802.32 3090.86  15
 -11   3   3 3740.32 942.528   5
 -11  -3   3 4735.48 2254.73  10
 -11  -3   3 2326.23 811.524   9
 -11  -3   2 76464.1 7910.44  10
 -11  -3   2 76855.1 10279.5  15
 -11  -3   2 73623.4 6091.39   9
 -11   3   2 77119.0 4022.57   5
 -11  -3   1 66637.8 7339.20  10
 -11  -3   1 73882.5 10035.2  15
 -11  -3   1 73839.9 5959.71   9
 -11   3   1 70384.4 3828.24   5
 -11  -3   1 74412.6 8019.55  19
 -11  -3   0 31517.4 7016.87  15
 -11  -3   0 27220.1 3624.37   9
 -11   3   0 27833.5 2399.42   5
 -11  -3   0 26432.6 4707.22  19
 -11   3  -1 4215.82 957.841   5
 -11  -3  -1 3911.05 1454.24   9
 -11  -3  -1 5102.08 2098.98  19
 -11  -3  -2 3134.68 1652.75  19
 -11   3  -2 1971.24 641.334   5
 -11  -3  -3 3333.80 1605.94  19
 -11   3  -3 5262.31 1032.81   5
 -11  -3  -4-263.838 1295.67  19
 -11  -3  -5 4620.75 2295.46  19
 -11  -3  -6 35704.2 5776.87  19
 -11   3  -7 42152.0 5323.05  12
 -11  -3  -7 32427.2 5633.37  19
 -11  -3  -8 2673.07 1791.75  19
 -11   3  -8 3340.94 1754.68  12
 -11  -3  -9 1735.97 880.483  19
 -11   3  -9 3422.31 1564.46  12
 -11   3 -10 29089.9 4313.71  12
 -11  -3 -10 32062.7 5349.92  19
 -11  -3 -11 2071.26 1790.52  19
 -11   3 -11 2680.67 1365.48  12
 -11  -3 -12 13395.2 3075.78  19
 -11   3 -12 16642.2 3015.03  12
 -11  -3 -13 1523.14 1265.27  19
 -11   3 -13 1247.24 1104.21  12
 -11  -3 -14 1407.28 1148.89  19
 -11   3 -14 4666.84 1353.50  12
 -11  -3 -15 604.705 561.702  19
 -11   3 -15 617.986 539.428  12
 -11  -3 -16 16425.3 2632.18  19
 -11  -4  16 337.820 752.578  10
  11   4 -16 605.470 293.125  21
 -11  -4  15 34.7568 1103.33  10
 -11  -4  14 3144.90 885.230  18
 -11  -4  14 5746.00 2066.41  10
 -11  -4  13 8993.45 1905.23  18
 -11  -4  13 7326.31 2762.58  10
 -11  -4  12 10532.0 2132.07  18
 -11  -4  12 12165.0 3271.35  10
 -11  -4  11 1757.03 978.252  18
 -11  -4  11 2129.19 1756.22  10
 -11  -4  10 6889.39 1735.76  18
 -11  -4  10 7897.97 2891.47  10
 -11  -4   9 60746.1 5409.05  18
 -11  -4   9 62342.5 7580.97  10
 -11  -4   8 21066.4 3304.48  18
 -11  -4   8 21518.9 4321.07  10
 -11  -4   7 4077.88 1774.52  18
 -11  -4   7 5120.38 2210.62  10
 -11  -4   6 8920.46 2256.22  18
 -11  -4   6 9298.37 3110.70  10
 -11  -4   6 3459.59 1728.35  15
 -11  -4   5 29874.7 5050.43  10
 -11  -4   5 33927.7 6579.35  15
 -11  -4   4 10081.7 3715.15  15
 -11  -4   4 15989.7 3908.59  10
 -11  -4   4 13241.3 2489.92   9
 -11  -4   3 105262. 9786.92  10
 -11  -4   3 100503. 11417.6  15
 -11  -4   3 108604. 7031.51   9
 -11  -4   2 8365.06 3582.95  15
 -11  -4   2 11910.7 3475.18  10
 -11  -4   2 9500.94 2080.90   9
 -11  -4   1 190247. 13259.3  10
 -11  -4   1 182637. 16180.6  15
 -11  -4   1 194213. 9463.37   9
 -11  -4   0 1103.99 1024.53  10
 -11  -4   0 1906.04 831.217   9
 -11  -4   0 1329.49 1528.65  19
 -11  -4  -1 28444.6 5003.03  10
 -11  -4  -1 29376.7 3625.11   9
 -11  -4  -1 28986.2 5003.31  19
 -11  -4  -2 2294.68 1300.73  10
 -11  -4  -2 3287.45 1213.24   9
 -11  -4  -2 2559.84 1365.41  19
 -11  -4  -3 13954.0 3322.33  10
 -11  -4  -3 12045.9 3263.24  19
 -11  -4  -4 27718.4 4897.18  19
 -11  -4  -4 25344.7 4796.83  10
 -11  -4  -5 626.439 996.959  19
 -11  -4  -5 1762.14 1311.21  10
 -11  -4  -6 4033.45 1730.36  19
 -11  -4  -6 4054.42 1890.67  10
 -11  -4  -7 38175.8 5624.70  10
 -11  -4  -7 32296.3 5317.35  19
 -11  -4  -8 10350.5 3097.12  19
 -11  -4  -8 11907.9 3170.67  10
 -11  -4  -9 430.729 1016.50  19
 -11  -4  -9-773.311 1352.34  10
 -11  -4 -10 6847.49 2336.63  19
 -11  -4 -10 3917.97 1545.99  10
 -11  -4 -11 34560.8 4721.10  10
 -11  -4 -11 28794.8 4508.05  19
 -11  -4 -12 2605.60 1261.44  19
 -11  -4 -12 6365.64 1912.43  10
 -11  -4 -13 1359.18 943.060  19
 -11  -4 -13-1349.14 822.615  10
 -11  -4 -14 6167.03 1605.47  19
 -11  -5  15 1889.53 1081.00  10
 -11  -5  14 7342.32 2142.31  10
 -11  -5  13 10304.9 2660.05  10
 -11  -5  12 12055.1 2781.09  10
 -11  -5  11 15010.0 3445.34  10
 -11  -5  10 9207.68 2920.83  10
 -11  -5   9 21474.8 4466.11  10
 -11  -5   8 8348.34 2811.92  10
 -11  -5   7 17586.3 4146.95  10
 -11  -5   6 1664.99 1170.49  15
 -11  -5   6-201.465 1463.26  10
 -11  -5   5 2446.22 1878.07  10
 -11  -5   5 5681.32 2804.05  15
 -11  -5   4 915.637 1785.51  15
 -11  -5   4-333.865 1548.95  10
 -11  -5   3 19521.5 5255.19  15
 -11  -5   3 18014.0 4099.35  10
 -11  -5   2-557.714 1768.12  15
 -11  -5   2-555.288 1725.19  10
 -11  -5   1 50890.5 6995.55  10
 -11  -5   1 53712.5 8275.93  15
 -11  -5   0 3320.57 2285.33  15
 -11  -5   0 3635.57 1719.68  10
 -11  -5  -1 82016.4 8632.90  10
 -11  -5  -1 91216.6 10984.4  15
 -11  -5  -2 8031.31 2935.12  10
 -11  -5  -3 1366.23 1169.56  10
 -11  -5  -4 2319.86 1577.99  10
 -11  -5  -4-173.297 774.441  19
 -11  -5  -5 27845.8 4994.29  10
 -11  -5  -5 25750.9 4169.30  19
 -11  -5  -6 59103.7 7216.89  10
 -11  -5  -6 62660.1 6433.60  19
 -11  -5  -7 567.100 1403.93  10
 -11  -5  -7 2513.26 1350.78  19
 -11  -5  -8 831.467 855.383  19
 -11  -5  -8 1778.12 1566.57  10
 -11  -5  -9 14837.1 2871.31  19
 -11  -5  -9 10741.1 2845.75  10
 -11  -5 -10 13705.4 2656.27  19
 -11  -5 -10 12286.5 3025.20  10
 -11  -5 -11 1240.41 933.967  19
 -11  -5 -11 2367.04 1410.37  10
 -11  -5 -12 869.044 718.206  19
 -11  -5 -12 1358.08 1257.41  10
 -11  -5 -13-241.598 580.076  10
 -11  -6  12 7115.79 1928.83  10
 -11  -6  11 1755.30 1077.79  10
 -11  -6  10 1541.78 1503.24  10
 -11  -6   9 1795.43 1143.48  10
 -11  -6   8 32532.4 4681.51  10
 -11  -6   7 7010.82 2471.85  10
 -11  -6   6 26514.1 4570.11  10
 -11  -6   5 49456.3 6332.08  10
 -11  -6   4 87034.3 8431.07  10
 -11  -6   3 25256.8 4723.87  15
 -11  -6   3 24168.4 4415.55  10
 -11  -6   2 13993.6 3787.49  15
 -11  -6   2 15639.8 3636.33  10
 -11  -6   1 6634.88 3521.54  15
 -11  -6   1 4918.61 2030.14  10
 -11  -6   0 70961.6 7774.33  10
 -11  -6   0 77197.5 9055.66  15
 -11  -6  -1 1606.42 1600.22  15
 -11  -6  -1 588.687 1217.94  10
 -11  -6  -2 12779.8 3685.24  15
 -11  -6  -2 18567.7 3819.31  10
 -11  -6  -3 126.600 1192.39  10
 -11  -6  -4 9871.76 2811.40  10
 -11  -6  -5-2326.99 1609.28  10
 -11  -6  -6 22513.5 4106.16  10
 -11  -6  -7 1352.62 1038.42  10
 -11  -6  -8-68.9742 681.583  10
 -11  -6  -9 2998.16 1261.14  10
 -11  -6 -10 5299.20 1625.14  10
 -11  -6 -11-296.225 512.239  10
 -11  -7   9 3450.77 1436.49  10
 -11  -7   8 835.454 964.895  10
 -11  -7   7-1194.82 974.231  10
 -11  -7   6 160.368 780.290  10
 -11  -7   5 10032.7 2458.95  10
 -11  -7   4 1874.47 1188.70  10
 -11  -7   3 15904.3 3211.11  10
  11   7  -3 14654.9 3451.35  13
 -11  -7   2 1901.77 1506.38  10
  11   7  -2 339.871 1157.00  13
 -11  -7   1 542.377 869.122  10
  11   7  -1 3235.22 1804.16  13
 -11  -7   0-1365.53 1253.10  10
 -11  -7  -1 49987.2 5517.33  10
 -11  -7  -1 45157.6 5497.41  15
 -11  -7  -2 1852.22 1347.84  15
 -11  -7  -2 1178.46 1360.41  10
 -11  -7  -3 649.965 1295.70  15
 -11  -7  -3 1477.67 1408.62  10
 -11  -7  -4 5604.50 2414.22  15
 -11  -7  -4 7609.92 2302.91  10
 -11  -7  -5 34585.7 4355.09  10
 -11  -7  -5 29886.9 4522.94  15
 -11  -7  -6 323.839 760.154  15
 -11  -7  -6 1033.34 927.773  10
 -11  -7  -7 2115.95 1262.59  15
 -11  -7  -7 1922.21 1034.49  10
 -12   0  18-445.318 560.786  18
 -12   0  17 683.967 870.089  18
 -12   0  16 5323.53 1522.80  18
 -12   0  15 572.573 691.266  18
 -12   0  14 3282.41 1545.67  18
 -12   0  13-1367.93 1330.89  18
 -12   0  12 736.860 974.573  18
 -12   0  11-1018.95 1081.40  18
 -12   0  10 58615.9 5861.49  18
 -12   0   9 301.471 1171.57  18
 -12   0   8 4441.44 1682.37  18
 -12   0   7 1051.82 1094.32  18
 -12   0   7-1078.77 965.947   9
 -12   0   6 102473. 7804.28  18
 -12   0   6 105581. 7491.20   9
  12   0  -5-58.1199 814.411   7
 -12   0   5-274.695 630.437   9
 -12   0   4 1560.78 1051.51   9
 -12   0   3-619.360 2312.46  15
 -12   0   3 490.069 702.762   9
 -12   0   2 110178. 12064.7  15
 -12   0   2 117435. 7886.46   9
 -12   0   1-257.808 1649.87  15
 -12   0   1-419.138 912.021   9
 -12   0   0 14231.4 4422.60  15
 -12   0   0 16282.9 3733.36  19
 -12   0  -1-2930.37 1953.78  15
 -12   0  -1 777.228 802.600  19
 -12   0  -2 16849.8 3945.91  19
 -12   0  -3-1280.49 1314.06  19
 -12   0  -4 108549. 9864.00  19
 -12   0  -5 2371.21 1694.70  19
 -12   0  -6 3212.39 1453.92  19
 -12   0  -6 2501.92 1627.86  12
 -12   0  -7 983.830 1413.94  19
 -12   0  -7 651.771 849.123  12
 -12   0  -8 92144.4 8337.52  12
 -12   0  -8 95595.6 9161.34  19
 -12   0  -9 2131.15 1557.87  19
 -12   0  -9-1392.78 1012.90  12
 -12   0 -10 1398.49 1233.53  19
 -12   0 -10 1327.55 1008.52  12
 -12   0 -11 215.403 839.264  19
 -12   0 -11-212.091 774.850  12
 -12   0 -12 32087.6 4450.64  12
 -12   0 -12 34090.0 4808.04  19
 -12   0 -13-660.211 905.120  19
 -12   0 -13-1919.18 1171.10  12
 -12   0 -14-734.267 888.735  19
 -12   0 -14 432.330 900.737  12
 -12   0 -15 1304.35 977.768  19
 -12   0 -15 106.300 544.717  12
 -12   0 -16 7408.30 1603.62  12
 -12  -1  18 280.814 373.009  18
 -12   1  17 13876.8 2104.48  18
 -12  -1  17 15241.7 2302.46  18
 -12   1  16 11636.5 2146.55  18
 -12  -1  16 12184.1 2249.19  18
 -12   1  15 11959.0 2242.67  18
 -12  -1  15 13357.3 2527.25  18
 -12   1  14 1171.05 966.000  18
 -12  -1  14 1299.72 865.144  18
 -12   1  13 1909.32 1217.06  18
 -12  -1  13 2639.05 1214.62  18
 -12   1  12 26543.6 3633.18  18
 -12  -1  12 26474.9 3867.54  18
 -12   1  11 2921.44 1300.52  18
 -12  -1  11 2765.21 1339.61  18
 -12   1  10 776.528 834.720  18
 -12  -1  10 1144.52 919.749  18
 -12   1   9 31071.1 4057.89  18
 -12  -1   9 33743.5 4558.77  18
 -12   1   8 4784.73 1780.38  18
 -12  -1   8 1669.05 1078.37  18
 -12   1   7 30399.4 4104.82  18
 -12  -1   7 24728.9 3737.60  18
 -12  -1   7 30935.7 4124.11   9
 -12   1   6 47527.1 5110.66  18
 -12   1   6 49558.9 4973.96   9
 -12  -1   6 55159.2 5478.47   9
 -12   1   5 49668.3 5194.73  18
 -12   1   5 56437.2 5285.39   9
 -12  -1   5 47615.5 5148.64   9
 -12  -1   4 16108.3 5191.92  15
 -12   1   4 16351.1 2818.83   9
 -12  -1   4 15511.9 2932.98   9
 -12  -1   3 1428.04 2302.39  15
 -12   1   3-592.519 657.623   9
 -12  -1   3-1282.66 999.093   9
 -12  -1   2 5058.34 2951.91  15
 -12   1   2 4285.52 1369.88   9
 -12  -1   2 5863.91 1692.00   9
 -12  -1   1 82232.3 10480.2  15
 -12   1   1 92646.0 6831.72   9
 -12  -1   1 89009.0 6898.30   9
 -12  -1   1 98590.2 9453.26  19
 -12  -1   0 828.011 1375.83  15
 -12   1   0 427.867 742.827   9
 -12  -1   0 1239.68 885.108   9
 -12  -1   0 2794.42 1646.26  19
 -12  -1  -1-2239.42 2595.88  15
 -12   1  -1-516.956 827.710  19
 -12  -1  -1-1594.93 1717.92  19
 -12  -1  -2 10036.7 3863.44  15
 -12   1  -2 13054.4 3261.07  19
 -12  -1  -2 15929.8 4018.99  19
 -12  -1  -3 182629. 15304.7  15
 -12   1  -3 193750. 12507.0  19
 -12  -1  -3 180415. 13056.6  19
 -12  -1  -4 1250.88 1676.06  19
 -12  -1  -4 191.907 1209.24  15
 -12   1  -4 682.358 899.427  19
 -12   1  -5 20932.0 4150.34  19
 -12  -1  -5 20360.0 4363.87  19
 -12  -1  -5 17562.3 4877.45  15
 -12  -1  -6 47602.2 6713.13  19
 -12  -1  -7 63599.5 6746.41  12
 -12   1  -7 66951.7 7092.85  12
 -12  -1  -7 70574.6 8186.24  19
 -12  -1  -8 32554.3 4843.25  12
 -12   1  -8 33251.1 4984.82  12
 -12  -1  -8 40517.2 6229.16  19
 -12  -1  -9 2217.62 1778.56  19
 -12  -1  -9 2879.33 1518.91  12
 -12   1  -9 816.705 702.933  12
 -12  -1 -10 666.636 1516.78  19
 -12  -1 -10 1666.64 893.401  12
 -12   1 -10 649.419 1103.37  12
 -12  -1 -11 11636.2 3104.31  19
 -12  -1 -11 12174.1 2752.21  12
 -12   1 -11 14262.6 3111.70  12
 -12  -1 -12 876.215 944.136  19
 -12  -1 -12 1465.85 1109.97  12
 -12   1 -12 83.6617 698.242  12
 -12  -1 -13 5414.40 2020.60  19
 -12  -1 -13 4746.06 1551.25  12
 -12   1 -13 6879.41 2007.09  12
 -12  -1 -14 10012.9 2435.58  19
 -12  -1 -14 9419.57 2101.89  12
 -12   1 -14 4307.98 1599.22  12
 -12  -1 -15 254.828 536.106  19
 -12  -1 -15-113.870 778.903  12
 -12   1 -15 904.903 677.670  12
 -12  -1 -16 1148.06 676.026  19
 -12   1 -16 149.402 382.527  12
 -12  -2  17 12981.1 1916.97  18
 -12  -2  16 996.691 690.785  18
 -12  -2  15 25405.2 3254.93  18
 -12  -2  14 344.371 1061.78  18
 -12  -2  13 4978.44 1721.16  18
 -12  -2  12 1745.59 1259.04  18
 -12  -2  11 35814.7 4539.95  18
 -12  -2  10 2903.45 1628.12  18
 -12  -2   9 15260.5 3072.87  18
 -12  -2   8 32355.2 4423.73  18
 -12  -2   7 46100.8 5334.95  18
 -12  -2   6 85799.4 6848.55   9
 -12  -2   5 7188.57 2728.22  15
 -12  -2   5 5940.85 1957.35   9
 -12  -2   4 8508.69 3793.89  15
 -12  -2   4 5742.42 1795.54   9
 -12  -2   3 48185.0 8120.24  15
 -12  -2   3 45959.4 4965.55   9
 -12  -2   2 14300.0 4476.05  15
 -12  -2   2 16668.3 3021.51   9
 -12  -2   1 867.415 1471.80  15
 -12  -2   1 1264.27 783.173   9
 -12  -2   0 22234.4 5860.52  15
 -12  -2   0 24499.7 3605.79   9
 -12  -2   0 30775.6 5344.83  19
 -12  -2  -1 961.384 1492.83  15
 -12  -2  -1 763.622 1379.23  19
 -12  -2  -2 38296.0 7656.88  15
 -12  -2  -2 34740.6 6013.15  19
 -12  -2  -3 42762.2 7657.56  15
 -12  -2  -3 38660.9 6108.30  19
 -12  -2  -4 3065.84 1728.81  19
 -12  -2  -4 3561.67 2821.18  15
 -12  -2  -5 8165.42 3001.77  19
 -12  -2  -6 2873.91 1798.03  19
 -12  -2  -7 4168.66 1679.43  19
 -12  -2  -8 12667.9 3476.35  19
 -12   2  -8 17563.7 3536.74  12
 -12  -2  -9 22156.7 4551.89  19
 -12   2  -9 17928.6 3581.03  12
 -12  -2 -10-923.141 1197.29  19
 -12   2 -10 2533.87 1365.57  12
 -12  -2 -11 391.733 1283.47  19
 -12   2 -11 1643.50 1110.02  12
 -12   2 -12 39209.5 4732.15  12
 -12  -2 -12 39189.5 5329.80  19
 -12  -2 -13 11997.2 2748.05  19
 -12   2 -13 4190.25 1544.28  12
 -12  -2 -14 588.566 762.614  19
 -12   2 -14-197.161 668.789  12
 -12  -2 -15-1407.96 1012.81  19
 -12  -3  16 29193.3 2698.06  18
 -12  -3  15 43.5473 615.166  18
 -12  -3  15 719.080 836.858  10
 -12  -3  14 698.985 631.251  18
 -12  -3  14-1763.99 1185.82  10
 -12  -3  13 230.606 543.906  18
 -12  -3  13 1283.20 1058.79  10
 -12  -3  12 50949.7 4868.46  18
 -12  -3  12 49882.6 5829.11  10
 -12  -3  11-283.266 891.531  18
 -12  -3  11 542.390 1367.07  10
 -12  -3  10 22497.7 3488.11  18
 -12  -3  10 23762.7 4363.10  10
 -12  -3   9 1298.95 1005.13  18
 -12  -3   9 2592.07 1589.86  10
 -12  -3   8 16547.8 2967.02  18
 -12  -3   8 17627.1 3919.26  10
 -12  -3   7 10453.8 2457.59  18
 -12  -3   7 7401.91 2353.33  10
 -12  -3   6 53649.1 5450.45  18
 -12  -3   6 62882.5 9050.97  15
 -12  -3   5 3797.01 2610.91  15
 -12  -3   5 3899.49 1570.62   9
 -12  -3   4 7876.27 3019.35  15
 -12  -3   4 12953.8 2713.95   9
 -12  -3   3 892.723 2005.19  15
 -12  -3   3 1603.52 1085.17   9
 -12  -3   2 45565.6 8074.53  15
 -12  -3   2 39703.5 4464.26   9
 -12  -3   1 18179.0 5250.65  15
 -12  -3   1 15883.3 2849.77   9
 -12  -3   0 37906.5 7485.27  15
 -12  -3   0 32842.7 4128.44   9
 -12  -3   0 35892.8 5856.38  19
 -12  -3  -1 5831.33 3424.86  15
 -12  -3  -1 6492.74 1856.60   9
 -12  -3  -1 10280.9 3146.81  19
 -12  -3  -2 92395.6 11666.4  15
 -12  -3  -2 90075.5 6827.44   9
 -12  -3  -2 93622.0 9245.54  19
 -12  -3  -3 1259.78 2624.69  15
 -12  -3  -3 2680.71 1844.04  19
 -12  -3  -4 12813.5 3416.41  19
 -12  -3  -5 7976.19 2837.40  19
 -12  -3  -6 1999.64 1434.85  19
 -12  -3  -7 5989.22 2295.08  19
 -12  -3  -8 7205.54 2468.53  19
 -12  -3  -9 115.434 1175.30  19
 -12  -3 -10-128.732 1222.64  19
 -12  -3 -11 425.593 1192.27  19
 -12  -3 -12-448.311 1416.64  19
 -12  -3 -13-932.572 719.627  19
 -12  -3 -14 5837.61 1593.76  19
 -12  -4  14 289.199 365.571  18
 -12  -4  14 561.446 659.927  10
 -12  -4  13 726.049 514.061  18
 -12  -4  13 1064.86 1213.41  10
 -12  -4  12 1648.29 952.414  18
 -12  -4  12 1859.69 1646.07  10
 -12  -4  11 53308.6 4493.16  18
 -12  -4  11 58086.4 6385.68  10
 -12  -4  10 4021.55 1492.80  18
 -12  -4  10 4003.12 1642.34  10
 -12  -4   9 18.2509 933.542  18
 -12  -4   9 3226.36 2039.44  10
 -12  -4   8 605.360 653.711  18
 -12  -4   8 1105.16 1398.83  10
 -12  -4   7 57919.6 5273.18  18
 -12  -4   7 65506.8 7360.25  10
 -12  -4   6 15715.6 2866.31  18
 -12  -4   6 14563.4 3389.02  10
 -12  -4   6 11879.1 3693.71  15
 -12  -4   5 2153.57 1011.64  18
 -12  -4   5 508.057 1367.64  10
 -12  -4   5 3557.02 2605.51  15
 -12  -4   4 7913.48 2674.66  10
 -12  -4   4 5029.54 2901.10  15
 -12  -4   4 5214.48 1464.20   9
 -12  -4   3 30853.2 6401.16  15
 -12  -4   3 33589.3 5291.64  10
 -12  -4   3 33134.1 3776.99   9
 -12  -4   2-1745.88 1621.41  10
 -12  -4   2-597.041 618.023   9
 -12  -4   1 3223.44 3032.37  15
 -12  -4   1 6792.68 2464.38  10
 -12  -4   1 5334.60 1547.80   9
 -12  -4   0 23040.5 5684.16  15
 -12  -4   0 20783.1 4194.36  10
 -12  -4   0 15480.2 2639.81   9
 -12  -4  -1 1740.64 1975.90  15
 -12  -4  -1 50.9537 1450.92  10
 -12  -4  -1 834.384 485.304   9
 -12  -4  -2 3456.29 2600.15  15
 -12  -4  -2 6525.05 2068.60  10
 -12  -4  -2 5564.33 1645.79   9
 -12  -4  -2 5502.46 2187.79  19
 -12  -4  -3-395.961 1268.18  10
 -12  -4  -3 1130.17 1010.66   9
 -12  -4  -3 2919.23 1934.29  19
 -12  -4  -4 15694.3 3468.69  10
 -12  -4  -4 15983.1 2603.16   9
 -12  -4  -4 15677.1 3441.30  19
 -12  -4  -5 6115.62 2198.74  10
 -12  -4  -5 4414.63 1393.28   9
 -12  -4  -5 4322.52 1993.45  19
 -12  -4  -6 1876.02 1642.71  10
 -12  -4  -6 728.407 629.684   9
 -12  -4  -6 631.387 1388.32  19
 -12  -4  -7-577.349 939.327  19
 -12  -4  -7 2190.66 1512.35  10
 -12  -4  -8-116.515 995.085  19
 -12  -4  -9 52862.1 5989.39  19
 -12  -4 -10 12169.9 2803.01  19
 -12  -4 -11 36470.6 4418.90  19
 -12  -4 -12 2147.09 1081.70  19
 -12  -4 -13 12029.7 2175.95  19
 -12  -5  13-848.637 842.830  10
 -12  -5  12 338.182 793.508  10
 -12  -5  11 561.060 705.752  10
 -12  -5  10 2520.52 1489.54  10
 -12  -5   9 1464.95 823.828  10
 -12  -5   8 476.423 854.156  10
 -12  -5   7 1895.63 1556.48  10
 -12  -5   6 28813.9 4651.14  10
 -12  -5   5 2310.36 1054.21  10
 -12  -5   5 1497.57 1519.37  15
 -12  -5   4 346.955 882.778  10
 -12  -5   4 21.9604 1550.01  15
 -12  -5   3 11574.9 3484.19  15
 -12  -5   3 14787.7 3427.73  10
 -12  -5   2 26329.3 5440.41  15
 -12  -5   2 26452.2 4758.73  10
 -12  -5   1 96960.5 8909.57  10
 -12  -5   1 96784.8 10495.6  15
 -12  -5   0 45014.4 6012.99  10
 -12  -5   0 37370.2 6578.02  15
 -12  -5  -1 4026.95 2389.42  15
 -12  -5  -1 3394.13 1936.11  10
 -12  -5  -2 23990.8 5424.09  15
 -12  -5  -2 21886.8 4124.03  10
 -12  -5  -3 50507.8 6133.93  10
 -12  -5  -3 53750.7 8130.64  15
 -12  -5  -4 28261.3 5929.11  15
 -12  -5  -4 30091.9 4745.54  10
 -12  -5  -5 435.940 815.493  10
 -12  -5  -5 2680.78 1328.33  19
 -12  -5  -6 3421.94 1466.33  10
 -12  -5  -6 5319.85 1729.38  19
 -12  -5  -7 17470.5 3242.82  10
 -12  -5  -7 16830.0 2993.45  19
 -12  -5  -8 2806.65 1289.65  10
 -12  -5  -8 2330.18 1133.90  19
 -12  -5  -9 6028.63 1786.71  10
 -12  -5  -9 4584.97 1495.66  19
 -12  -5 -10 284.055 659.682  10
 -12  -5 -10 584.466 565.532  19
 -12  -6  10 18725.7 2926.74  10
 -12  -6   9 5712.15 1839.22  10
 -12  -6   8 5344.23 1801.14  10
 -12  -6   7 19585.6 3399.36  10
 -12  -6   6 6832.18 2089.60  10
 -12  -6   5 16919.4 3346.16  10
 -12  -6   4 3951.71 1763.44  10
 -12  -6   3 8589.96 2600.47  10
 -12  -6   3 5542.01 1984.75  15
 -12  -6   2 18230.5 3562.99  10
 -12  -6   2 19062.1 3970.28  15
 -12  -6   1 2666.49 1996.83  15
 -12  -6   1-604.649 1161.40  10
 -12  -6   0 27706.4 4890.75  15
 -12  -6   0 26124.2 4198.93  10
 -12  -6  -1 2942.09 1955.88  15
 -12  -6  -1 5806.90 2209.89  10
 -12  -6  -2 34855.3 4804.93  10
 -12  -6  -2 34609.0 5597.61  15
 -12  -6  -3 2620.48 1689.25  15
 -12  -6  -3 3227.72 1695.66  10
 -12  -6  -4 16016.9 3929.97  15
 -12  -6  -4 13345.0 2816.11  10
 -12  -6  -5 11398.2 3411.52  15
 -12  -6  -5 7107.55 1962.11  10
 -12  -6  -6-934.902 1672.12  15
 -12  -6  -6 631.290 785.325  10
 -12  -6  -7 4827.44 2367.77  15
 -12  -6  -7 2403.50 1199.42  10
 -12  -6  -8 13760.0 3249.75  15
 -12  -6  -8 13154.3 2414.31  10
 -12  -6  -9-974.839 827.551  15
 -12  -7   5 20325.5 2968.60  10
 -12  -7   4 2790.65 1031.60  10
 -12  -7   3 10198.3 2162.98  10
 -12  -7   2 2325.61 1144.32  10
 -12  -7   1 34559.4 4074.56  10
 -12  -7   0 9684.82 2107.55  10
 -12  -7  -1 1569.80 1078.61  10
 -12  -7  -2-124.684 766.877  10
 -12  -7  -3 42309.3 4253.51  10
 -12  -7  -4 1227.26 834.472  10
 -13   0  16 19792.0 2419.46  18
 -13   0  15 1739.73 1076.81  18
 -13   0  14 18513.8 2811.62  18
 -13   0  13 561.146 923.820  18
 -13   0  12 61870.3 5432.86  18
 -13   0  11 655.654 980.063  18
 -13   0  10 23863.4 3580.75  18
 -13   0   9 224.320 1088.66  18
 -13   0   8 97475.8 7464.39  18
 -13   0   7 231.885 771.297  18
 -13   0   6 17168.2 3182.04  18
 -13   0   6 16996.8 3069.25   9
 -13   0   5 974.008 917.765  18
 -13   0   5 1169.36 993.623   9
 -13   0   4 459.755 724.837   9
 -13   0   3-745.687 1080.20   9
 -13   0   2 1885.46 1232.66   9
 -13   0   1 659.265 1687.60  15
 -13   0   1-147.504 717.638   9
 -13   0   0 957.524 1644.30  15
 -13   0   0 2519.13 1353.04   9
 -13   0  -1-586.319 2023.24  15
 -13   0  -1-142.111 663.482   9
 -13   0  -1-450.469 1282.67  19
 -13   0  -2 20047.3 4009.34  19
 -13   0  -3-163.088 1042.24  19
 -13   0  -4 30270.6 5265.66  19
 -13   0  -5 1091.78 1088.08  19
 -13   0  -6 163441. 11635.5  19
 -13   0  -7 2162.61 1628.01  19
 -13   0  -8 8868.46 2563.92  19
 -13   0  -9 1306.08 937.163  19
 -13   0 -10 89964.3 7723.80  19
 -13   0 -11 447.717 611.603  19
 -13   0 -12-840.877 997.477  19
 -13   0 -13-336.531 539.308  19
 -13   0 -14 16530.5 2492.44  19
 -13  -1  16 2998.13 1059.56  18
 -13   1  15 5772.04 1357.09  18
 -13  -1  15 7572.99 1688.13  18
 -13   1  14 11053.8 2083.53  18
 -13  -1  14 12487.1 2327.06  18
 -13   1  13 920.817 862.595  18
 -13  -1  13 1068.51 766.338  18
 -13   1  12 8934.27 2038.73  18
 -13  -1  12 6376.45 1736.08  18
 -13   1  11 2261.12 1049.28  18
 -13  -1  11 316.243 853.477  18
 -13   1  10-537.039 1018.01  18
 -13  -1  10 304.203 986.782  18
 -13   1   9 13902.1 2629.59  18
 -13  -1   9 14085.6 2915.81  18
 -13   1   8 1472.89 732.778  18
 -13  -1   8 247.220 876.885  18
 -13   1   7-30.7683 914.865  18
 -13  -1   7 1047.49 876.973  18
 -13   1   6 9815.63 2362.58  18
 -13  -1   6 10706.3 2594.96  18
 -13  -1   6 11227.2 2572.76   9
 -13   1   5 1318.62 813.650  18
 -13   1   5 1044.40 808.684   9
 -13  -1   5-255.731 714.150   9
 -13   1   4 2719.36 1168.02  18
 -13   1   4 5005.65 1576.81   9
 -13  -1   4 3038.10 1226.09   9
 -13  -1   3 31207.5 6814.92  15
 -13   1   3 37855.1 4309.27   9
 -13  -1   3 31657.3 4171.68   9
 -13  -1   2 4364.45 2379.74  15
 -13   1   2 4288.82 1375.37   9
 -13  -1   2 3347.03 1253.15   9
 -13  -1   1 12912.8 4053.13  15
 -13   1   1 13798.6 2574.13   9
 -13  -1   1 13400.5 2751.93   9
 -13  -1   0 17350.5 4761.71  15
 -13   1   0 17373.5 2956.64   9
 -13  -1   0 20300.8 3433.45   9
 -13  -1  -1 66967.2 9416.30  15
 -13   1  -1 69970.7 6024.49   9
 -13  -1  -1 69050.0 6184.35   9
 -13  -1  -1 78325.4 8340.55  19
 -13  -1  -2 1733.28 1614.34  15
 -13  -1  -2-2452.23 2274.34  19
 -13  -1  -3 3209.58 2125.33  15
 -13   1  -3 876.077 662.003  19
 -13  -1  -3-1525.56 1598.92  19
 -13  -1  -4 26835.5 5655.41  15
 -13  -1  -4 18891.2 4129.15  19
 -13  -1  -5 52565.4 6916.65  19
 -13  -1  -6 1794.90 1471.11  19
 -13  -1  -7 20107.7 4276.92  19
 -13  -1  -8 7074.57 2731.79  19
 -13  -1  -9 16.0540 1047.99  19
 -13  -1 -10-177.584 854.445  19
 -13  -1 -11 13596.0 3097.66  19
 -13  -1 -12 2413.88 1384.77  19
 -13  -1 -13 1817.68 956.864  19
 -13  -1 -14-612.116 767.515  19
 -13  -2  15 3015.39 995.125  18
 -13  -2  14 516.059 711.660  18
 -13  -2  13 41926.4 4166.70  18
 -13  -2  12 1084.53 972.986  18
 -13  -2  11 2331.08 1118.54  18
 -13  -2  10 14860.6 2722.65  18
 -13  -2   9 85936.1 6773.57  18
 -13  -2   8 16581.8 3046.51  18
 -13  -2   7 1241.35 925.511  18
 -13  -2   6 13786.0 2852.78  18
 -13  -2   6 16818.5 3103.67   9
 -13  -2   5 45207.8 4868.72   9
 -13  -2   4 21791.3 5832.39  15
 -13  -2   4 24287.2 3613.05   9
 -13  -2   3 18818.5 5505.88  15
 -13  -2   3 14495.7 2830.83   9
 -13  -2   2 2698.42 2817.39  15
 -13  -2   2 1006.58 829.832   9
 -13  -2   1 11864.5 4257.62  15
 -13  -2   1 13931.9 2751.88   9
 -13  -2   0 10856.9 4157.65  15
 -13  -2   0 8907.69 2174.80   9
 -13  -2  -1 17867.3 5048.00  15
 -13  -2  -1 23466.0 3570.77   9
 -13  -2  -1 25316.1 4928.97  19
 -13  -2  -2 6919.37 3559.65  15
 -13  -2  -2 8974.15 2258.66   9
 -13  -2  -2 12061.2 3462.70  19
 -13  -2  -3-964.426 1816.94  15
 -13  -2  -3-531.899 1434.10  19
 -13  -2  -4 3268.13 2152.68  15
 -13  -2  -4 6462.88 2514.25  19
 -13  -2  -5 56964.2 8249.77  15
 -13  -2  -5 53256.8 6914.32  19
 -13  -2  -6 6869.78 2795.29  19
 -13  -2  -6 3732.32 2139.08  15
 -13  -2  -7 484.136 820.921  19
 -13  -2  -7-1797.17 1869.77  15
 -13  -2  -8 10674.2 2866.26  19
 -13  -2  -9 18332.2 3817.76  19
 -13  -2 -10 14685.0 3244.94  19
 -13  -2 -11 16111.5 3206.64  19
 -13  -2 -12 550.994 786.305  19
 -13  -2 -13 2224.45 935.978  19
 -13  -2 -14 23627.0 2914.41  19
 -13  -3  14 22750.4 2541.97  18
 -13  -3  13 1226.41 714.093  18
 -13  -3  12 3578.32 1232.70  18
 -13  -3  11 1192.26 993.070  18
 -13  -3  10 46407.4 4554.11  18
 -13  -3   9 5465.57 1792.80  18
 -13  -3   8 57679.4 5341.16  18
 -13  -3   7 1501.49 1270.00  18
 -13  -3   6 2993.86 1329.33  18
 -13  -3   5 3869.41 1579.22  18
 -13  -3   5 8583.47 3814.08  15
 -13  -3   5 3722.71 1418.81   9
 -13  -3   4 54321.7 8377.45  15
 -13  -3   4 58040.2 5289.98   9
 -13  -3   3 23851.0 5787.62  15
 -13  -3   3 19548.8 3075.18   9
 -13  -3   2 4148.46 3137.73  15
 -13  -3   2 1422.86 1223.35   9
 -13  -3   1-822.595 2102.99  15
 -13  -3   1 2062.06 1146.08   9
 -13  -3   0 71284.9 9782.38  15
 -13  -3   0 82441.3 6317.54   9
 -13  -3  -1 1789.30 2006.54  15
 -13  -3  -1 1334.59 1078.55   9
 -13  -3  -2 1892.07 2697.82  15
 -13  -3  -2-65.4841 563.485   9
 -13  -3  -2-172.769 990.139  19
 -13  -3  -3 5885.00 2521.31  15
 -13  -3  -3 6329.87 1799.72   9
 -13  -3  -3 3774.35 2110.02  19
 -13  -3  -4 19940.6 5034.30  15
 -13  -3  -4 16417.3 2771.87   9
 -13  -3  -4 15700.8 3633.64  19
 -13  -3  -5 6009.56 2918.02  15
 -13  -3  -5 3960.91 1377.60   9
 -13  -3  -5 2904.68 1623.40  19
 -13  -3  -6 4353.89 2360.70  15
 -13  -3  -6 295.934 1238.56  19
 -13  -3  -7 4563.00 2232.00  15
 -13  -3  -7 3176.63 1744.66  19
 -13  -3  -8 2633.62 1347.21  19
 -13  -3  -8 4639.57 2415.89  15
 -13  -3  -9 3577.55 1711.57  19
 -13  -3  -9 2366.11 1668.34  15
 -13  -3 -10 8298.35 2270.52  19
 -13  -3 -10 6743.77 2436.44  15
 -13  -3 -11 1928.05 1349.20  19
 -13  -3 -12 2877.17 1334.77  19
 -13  -3 -13-335.196 487.633  19
 -13  -4  12-340.987 497.365  18
 -13  -4  12-2285.12 1144.90  10
 -13  -4  11-28.8506 468.468  18
 -13  -4  11 228.471 630.811  10
 -13  -4  10 2516.21 987.020  18
 -13  -4  10 2677.41 1294.81  10
 -13  -4   9 44889.5 4132.24  18
 -13  -4   9 46439.7 5052.80  10
 -13  -4   8 1068.31 913.328  18
 -13  -4   8 2428.03 1460.34  10
 -13  -4   7 8851.25 1866.67  18
 -13  -4   7 11677.4 2696.91  10
 -13  -4   6 2363.63 1303.74  18
 -13  -4   6 2336.31 1307.49  10
 -13  -4   5 42373.7 4440.55  18
 -13  -4   5 41632.7 5186.35  10
 -13  -4   4-205.013 686.478  18
 -13  -4   4 495.072 1007.63  10
 -13  -4   4 596.286 1332.39  15
 -13  -4   3 1013.21 1218.33  10
 -13  -4   3 16.8003 1890.91  15
 -13  -4   3 1435.03 877.650   9
 -13  -4   2 6041.74 2140.77  10
 -13  -4   2 7115.02 2808.01  15
 -13  -4   2 10393.7 2006.60   9
 -13  -4   1 10712.0 3223.06  15
 -13  -4   1 15013.3 3055.87  10
 -13  -4   1 14536.9 2373.82   9
 -13  -4   0 1330.55 2496.90  15
 -13  -4   0 1984.97 843.857   9
 -13  -4  -1 3367.65 1594.05  15
 -13  -4  -1 7511.55 1613.64   9
 -13  -4  -2 17993.9 4939.89  15
 -13  -4  -2 18508.5 2615.74   9
 -13  -4  -3 2295.97 2162.94  15
 -13  -4  -3 1019.15 572.603   9
 -13  -4  -4-692.262 1482.29  15
 -13  -4  -4 2931.51 1082.87   9
 -13  -4  -4 3795.77 1910.69  19
 -13  -4  -5 39933.0 6771.08  15
 -13  -4  -5 37747.3 3623.87   9
 -13  -4  -5 45471.9 5605.28  19
 -13  -4  -6 2284.73 2078.47  15
 -13  -4  -6 2362.55 932.140   9
 -13  -4  -6 2910.44 1481.22  19
 -13  -4  -7 10623.1 3625.38  15
 -13  -4  -7 6924.68 1433.33   9
 -13  -4  -7 7036.90 2014.69  19
 -13  -4  -8 7953.76 2708.86  15
 -13  -4  -8 7826.34 2093.80  19
 -13  -4  -9 18304.2 3990.60  15
 -13  -4  -9 15915.4 2813.19  19
 -13  -4 -10 1482.49 1317.09  15
 -13  -4 -10-77.2037 702.927  19
 -13  -4 -11 9883.29 2287.03  15
 -13  -4 -11 13123.1 2212.85  19
 -13  -5  10 612.692 727.083  10
 -13  -5   9 2168.68 1252.02  10
 -13  -5   8 14215.8 2766.82  10
 -13  -5   7-2059.67 1238.90  10
 -13  -5   6 653.835 1039.99  10
 -13  -5   5 307.428 571.009  18
 -13  -5   5 395.124 913.609  10
 -13  -5   4 11617.5 2012.70  18
 -13  -5   4 13622.6 2885.78  10
 -13  -5   3 20237.6 2623.15  18
 -13  -5   3 18655.5 3375.17  10
 -13  -5   3 19545.0 4360.26  15
 -13  -5   2 6708.43 1577.78  18
 -13  -5   2 9065.28 2388.91  10
 -13  -5   2 7596.74 2826.66  15
 -13  -5   1 9229.05 2556.55  10
 -13  -5   1 10132.4 3442.79  15
 -13  -5   0 21849.5 4644.27  15
 -13  -5   0 20286.8 3534.16  10
 -13  -5  -1 21664.3 4677.00  15
 -13  -5  -1 26117.5 4001.94  10
 -13  -5  -2-782.950 1665.64  15
 -13  -5  -2 210.925 707.277  10
 -13  -5  -3-2330.73 1819.46  15
 -13  -5  -3-625.943 683.555  10
 -13  -5  -4 3329.43 2267.71  15
 -13  -5  -4 2788.30 1516.10  10
 -13  -5  -5 27128.7 5091.21  15
 -13  -5  -5 21436.4 3404.13  10
 -13  -5  -6 2752.41 2134.83  15
 -13  -5  -6 997.955 671.366  10
 -13  -5  -7 774.647 1367.77  15
 -13  -5  -7 1144.86 678.045  10
 -13  -5  -8-460.360 940.268  15
 -13  -5  -9 4324.79 1596.04  15
 -13  -6   7 14751.6 2481.52  10
 -13  -6   6 3920.08 1500.20  10
 -13  -6   5 1986.47 1168.68  10
 -13  -6   4 5998.87 1736.83  10
 -13  -6   3 370.206 809.145  10
 -13  -6   2 2674.82 1191.48  10
 -13  -6   2 1628.42 964.047  15
 -13  -6   1 2608.89 1272.61  10
 -13  -6   1 2036.16 1391.67  15
 -13  -6   0 5485.91 1665.96  10
 -13  -6   0 5259.25 1904.26  15
 -13  -6  -1 891.859 776.363  10
 -13  -6  -1 160.276 793.408  15
 -13  -6  -2 9968.57 2841.81  15
 -13  -6  -2 6938.04 1776.82  10
 -13  -6  -3 4291.39 2204.22  15
 -13  -6  -3 6297.53 1716.68  10
 -13  -6  -4 932.863 1177.82  15
 -13  -6  -4 1039.09 940.065  10
 -13  -6  -5 4954.86 1884.93  15
 -13  -6  -6 13137.5 2766.27  15
 -14   0  14 5135.08 1250.37  18
 -14   0  13-162.229 777.729  18
 -14   0  12 67415.9 5127.75  18
 -14   0  11 655.100 637.852  18
 -14   0  10 8321.22 1897.45  18
 -14   0   9 478.409 604.677  18
 -14   0   8 4379.61 1607.26  18
 -14   0   7 1491.68 928.296  18
 -14   0   6 33750.1 4158.35  18
 -14   0   5-260.088 852.648  18
 -14   0   5-188.012 657.258   9
 -14   0   4 29817.4 4019.68  18
 -14   0   4 29602.1 3863.42   9
 -14   0   3 160.991 578.115   9
 -14   0   2 25469.8 3629.21   9
 -14   0   1 654.569 675.399   9
 -14   0   0 10211.1 2291.73   9
 -14   0  -1-530.867 955.604   9
 -14   0  -2-493.940 583.822   9
 -14   0  -3-1043.07 1153.78   9
 -14   0  -4 106779. 9040.88  19
 -14   0  -5-1137.63 777.395  19
 -14   0  -6 32862.4 4843.44  19
 -14   0  -7-11.2611 972.998  19
 -14   0  -8 84892.9 7256.05  19
 -14   0  -9 560.251 652.702  19
 -14   0 -10 6459.26 1798.29  19
 -14   0 -11 212.513 735.438  19
 -14  -1  14 2450.61 931.462  18
 -14   1  13 16584.0 2191.19  18
 -14  -1  13 19013.7 2648.62  18
 -14   1  12-486.521 543.166  18
 -14  -1  12-187.511 766.287  18
 -14   1  11 2098.94 1126.70  18
 -14  -1  11-119.311 955.185  18
 -14   1  10 7103.10 1733.06  18
 -14  -1  10 7610.13 2055.05  18
 -14   1   9 1532.07 888.514  18
 -14  -1   9 1868.60 1037.50  18
 -14   1   8-248.050 780.529  18
 -14  -1   8-666.634 897.023  18
 -14   1   7 24477.0 3238.40  18
 -14  -1   7 22316.4 3478.79  18
 -14   1   6 17585.9 2900.02  18
 -14  -1   6 15890.9 2920.74  18
 -14   1   5 9653.12 2191.83  18
 -14  -1   5 9360.18 2170.61  18
 -14  -1   5 10515.3 2365.09   9
 -14   1   4-909.875 750.509  18
 -14   1   4-694.567 1072.19   9
 -14  -1   4 1427.53 790.319   9
 -14   1   3 97147.4 6568.90   9
 -14  -1   3 89654.9 6788.94   9
 -14   1   2 4793.75 1367.31   9
 -14  -1   2 5048.92 1667.56   9
 -14  -1   1 18850.4 4758.33  15
 -14   1   1 18124.3 2895.75   9
 -14  -1   1 16274.2 2911.44   9
 -14  -1   0 7360.22 3191.39  15
 -14   1   0 9436.34 2096.21   9
 -14  -1   0 10613.2 2222.24   9
 -14  -1  -1 9902.26 3803.19  15
 -14   1  -1 6684.62 1686.87   9
 -14  -1  -1 7904.45 2466.07   9
 -14  -1  -2 15138.4 4196.36  15
 -14   1  -2 18049.3 2963.96   9
 -14  -1  -2 14410.0 2651.23   9
 -14  -1  -3 13379.8 3678.67  15
 -14   1  -3 14013.5 2605.51   9
 -14  -1  -3 12709.3 2542.35   9
 -14  -1  -3 15243.2 3452.83  19
 -14   1  -4 3794.88 1218.42   9
 -14  -1  -4 3128.63 1499.50   9
 -14  -1  -4 2977.85 1325.03  19
 -14  -1  -5 2261.39 1580.41  19
 -14  -1  -6 11435.3 3126.48  19
 -14  -1  -7 4745.87 2264.89  19
 -14  -1  -8 11971.0 2907.20  19
 -14  -1  -9 12351.6 2894.99  19
 -14  -1 -10 234.757 569.096  19
 -14  -1 -11-222.362 891.733  19
 -14  -1 -12-199.169 667.641  19
 -14  -2  14 977.164 494.980  18
 -14  -2  13 3979.43 1171.03  18
 -14  -2  12 18650.0 2612.96  18
 -14  -2  11 15687.5 2599.35  18
 -14  -2  10 6840.84 1888.49  18
 -14  -2   9 1035.40 1154.19  18
 -14  -2   8 29139.4 3686.94  18
 -14  -2   7 27914.1 3758.01  18
 -14  -2   6 2332.05 1984.16  18
 -14  -2   5 8214.56 2130.51  18
 -14  -2   5 11759.1 2447.69   9
 -14  -2   4 4018.06 1491.62   9
 -14  -2   3 70980.2 5899.61   9
 -14  -2   2 1017.49 1292.35  15
 -14  -2   2 1703.07 1029.28   9
 -14  -2   1 20825.5 5212.11  15
 -14  -2   1 23437.4 3444.11   9
 -14  -2   0 8398.46 2965.11  15
 -14  -2   0 7079.53 1886.06   9
 -14  -2  -1 3127.30 2371.99  15
 -14  -2  -1 670.703 511.296   9
 -14  -2  -2 5335.44 2685.59  15
 -14  -2  -2 4389.87 1469.34   9
 -14  -2  -3 83926.8 9453.54  15
 -14  -2  -3 87030.5 6494.84   9
 -14  -2  -3 98245.4 8870.90  19
 -14  -2  -4 13144.0 3901.47  15
 -14  -2  -4 15017.3 2730.76   9
 -14  -2  -4 13753.2 3258.85  19
 -14  -2  -5 4486.63 2149.36  15
 -14  -2  -5 1472.46 802.752   9
 -14  -2  -5 3662.38 1900.32  19
 -14  -2  -6 18279.0 4037.42  15
 -14  -2  -6 17965.7 3689.77  19
 -14  -2  -7 62088.6 6504.50  19
 -14  -2  -8 20475.8 3661.57  19
 -14  -2  -9 3629.85 1609.06  19
 -14  -2 -10-336.249 917.197  19
 -14  -2 -11 23307.0 3137.97  19
 -14  -2 -12 7592.12 1644.50  19
 -14  -3  12 8637.63 1567.37  18
 -14  -3  11 295.188 444.485  18
 -14  -3  10 9690.65 1907.50  18
 -14  -3   9 777.539 593.060  18
 -14  -3   8 2374.95 1489.00  18
 -14  -3   7 5070.77 1639.14  18
 -14  -3   6 88429.6 6411.94  18
 -14  -3   5 9229.38 2111.52  18
 -14  -3   4 1301.47 1193.03  18
 -14  -3   3-11.5949 1792.42  15
 -14  -3   3 2814.92 1119.44   9
 -14  -3   2 88504.2 10027.9  15
 -14  -3   2 87773.8 6134.06   9
 -14  -3   1 11795.2 3432.65  15
 -14  -3   1 16238.3 2697.02   9
 -14  -3   0-39.8731 1312.94  15
 -14  -3   0-336.874 693.036   9
 -14  -3  -1-1195.34 2347.60  15
 -14  -3  -1 2074.16 869.077   9
 -14  -3  -2 49160.6 7474.96  15
 -14  -3  -2 49649.9 4499.67   9
 -14  -3  -3 3227.22 2586.25  15
 -14  -3  -3 1055.62 675.174   9
 -14  -3  -4 23383.8 4925.19  15
 -14  -3  -4 21855.1 2957.65   9
 -14  -3  -5 11986.3 3363.83  15
 -14  -3  -5 10668.0 2039.82   9
 -14  -3  -5 12772.9 2994.39  19
 -14  -3  -6 2400.28 1801.42  15
 -14  -3  -6 5213.05 1428.44   9
 -14  -3  -6 3416.37 1748.82  19
 -14  -3  -7 279.241 433.764   9
 -14  -3  -7-509.161 975.424  19
 -14  -3  -8 9575.01 2741.31  15
 -14  -3  -8 9023.99 1651.73   9
 -14  -3  -8 8911.27 2201.58  19
 -14  -3  -9 1036.49 1093.34  15
 -14  -3  -9 2181.05 772.403   9
 -14  -3  -9 1508.07 1020.56  19
 -14  -3 -10 1673.03 651.579   9
 -14  -3 -10 1015.04 717.188  19
 -14  -3 -11-219.495 522.690  19
 -14  -4  10 1464.11 570.807  18
 -14  -4   9 238.378 583.488  18
 -14  -4   8 3057.48 1037.18  18
 -14  -4   7 21925.1 2768.23  18
 -14  -4   6 1883.55 842.823  18
 -14  -4   5 8637.96 1905.57  18
 -14  -4   4 10.1059 474.549  18
 -14  -4   3 12119.9 2280.26  18
 -14  -4   3 7000.92 2752.41  15
 -14  -4   2 251.460 1092.25  15
 -14  -4   1 11230.9 3202.62  15
 -14  -4   1 10756.0 1881.97   9
 -14  -4   0 1430.25 1660.47  15
 -14  -4   0 3039.85 1010.00   9
 -14  -4  -1 1764.00 1626.37  15
 -14  -4  -1 2113.21 824.115   9
 -14  -4  -2 3095.14 2063.35  15
 -14  -4  -2 2707.20 1076.80   9
 -14  -4  -3 47411.9 6726.48  15
 -14  -4  -3 53964.7 3955.36   9
 -14  -4  -4-477.485 1321.91  15
 -14  -4  -4 2062.06 790.484   9
 -14  -4  -5 951.564 1479.09  15
 -14  -4  -5 621.325 519.479   9
 -14  -4  -6 235.802 1226.59  15
 -14  -4  -6-205.830 465.777   9
 -14  -4  -7 44631.5 5607.87  15
 -14  -4  -8 424.065 1009.82  15
 -14  -5   5 189.444 558.147  10
 -14  -5   4 8470.35 1448.59  18
 -14  -5   4 9563.18 2101.46  10
 -14  -5   3 648.099 543.456  18
 -14  -5   3 614.169 641.640  10
 -14  -5   2 7067.14 1380.91  18
 -14  -5   2 7734.27 1694.76  10
 -14  -5   1 5274.30 1273.70  18
 -14  -5   1 5525.80 1571.59  10
 -14  -5   1 6663.56 2630.05  15
 -14  -5   0 4166.13 1049.82  18
 -14  -5   0 4412.68 1478.43  15
 -14  -5  -1 68.6445 1285.76  15
 -14  -5  -2 18042.7 3485.57  15
 -14  -5  -3 2231.88 1163.31  15
 -14  -5  -4-431.350 1249.78  15
 -14  -5  -5 1085.80 1223.67  15
 -14  -5  -6 6717.19 2121.88  15
 -15   0  12-681.540 646.257  18
 -15   0  11 930.736 710.509  18
 -15   0  10 38338.9 3576.59  18
 -15   0   9-881.547 960.752  18
 -15   0   8 410.564 675.612  18
 -15   0   7-1062.23 553.667  18
 -15   0   6 11853.8 2271.35  18
 -15   0   5 151.919 864.001  18
 -15   0   4 12165.8 2380.74  18
 -15   0   4 10678.0 2167.04   9
 -15   0   3 1021.32 938.055  18
 -15   0   3 540.522 571.839   9
 -15   0   2 10580.3 2074.89  18
 -15   0   2 10704.4 2154.28   9
 -15   0   1-69.5419 593.294   9
 -15   0   0 49981.0 4630.91   9
 -15   0  -1 466.987 564.729   9
 -15   0  -2 16652.3 2629.49   9
 -15   0  -3 226.706 505.506   9
 -15   0  -4 20482.0 2881.62   9
 -15   0  -5-140.557 464.370   9
 -15   0  -6 59659.6 4625.68   9
 -15   0  -7 651.861 458.994   9
 -15   0  -8 16254.3 2276.26   9
 -15   0  -9-590.381 441.190   9
 -15   0 -10 4319.89 1011.12   9
 -15  -1  12 1811.28 758.058  18
 -15  -1  11 1290.98 630.418  18
 -15  -1  10 1387.74 802.564  18
 -15  -1   9 38077.3 3755.87  18
 -15  -1   8 15579.2 2511.18  18
 -15  -1   7 1513.13 808.372  18
 -15  -1   6-226.443 632.880  18
 -15  -1   5 84413.8 6199.41  18
 -15  -1   4 5111.37 1491.97  18
 -15  -1   4 7342.46 1728.31   9
 -15  -1   3 357.474 943.846  18
 -15   1   3 218.996 601.364   9
 -15  -1   3-527.184 737.746   9
 -15   1   2 2241.05 978.799   9
 -15  -1   2 2057.90 1276.81   9
 -15   1   1 38659.7 3752.28   9
 -15  -1   1 37113.9 4097.00   9
 -15   1   0 4229.84 1352.39   9
 -15  -1   0 2097.53 913.336   9
 -15   1  -1 2439.13 956.030   9
 -15  -1  -1 925.094 687.775   9
 -15   1  -2 1328.35 918.955   9
 -15  -1  -2 1927.90 816.749   9
 -15   1  -3 454.425 671.326   9
 -15  -1  -3-405.126 887.780   9
 -15   1  -4 3642.79 1143.23   9
 -15  -1  -4 2930.48 1150.74   9
 -15   1  -5 1765.01 835.092   9
 -15  -1  -5-52.8008 429.328   9
 -15   1  -6 9450.66 1822.91   9
 -15  -1  -6 10765.1 1977.05   9
 -15   1  -7 14864.6 2051.32   9
 -15  -1  -7 13059.0 2149.03   9
 -15   1  -8 5571.64 1311.15   9
 -15  -1  -8 3291.68 1026.93   9
 -15   1  -9 18376.3 2104.32   9
 -15  -1  -9 19515.6 2253.14   9
 -15  -1 -10 6793.25 1275.27   9
 -15  -2  11 162.301 418.226  18
 -15  -2  10 30587.6 3086.31  18
 -15  -2   9 6117.35 1466.46  18
 -15  -2   8-813.296 658.424  18
 -15  -2   7 620.866 691.450  18
 -15  -2   6 13168.4 2376.53  18
 -15  -2   5 18832.1 2875.03  18
 -15  -2   4 5318.43 1432.85  18
 -15  -2   3 13686.2 2495.79  18
 -15  -2   3 16474.5 2554.07   9
 -15  -2   2 6713.66 1574.00   9
 -15  -2   1 7010.21 1614.88   9
 -15  -2   0 18838.2 2771.21   9
 -15  -2  -1 40277.5 5982.28  15
 -15  -2  -1 41653.9 4049.93   9
 -15  -2  -2 18658.3 3974.17  15
 -15  -2  -2 22029.7 2925.93   9
 -15  -2  -3 1792.24 1410.79  15
 -15  -2  -3-360.339 616.895   9
 -15  -2  -4 18007.5 3577.97  15
 -15  -2  -4 20086.1 2747.45   9
 -15  -2  -5 60686.3 6399.36  15
 -15  -2  -5 61475.9 4618.32   9
 -15  -2  -6 5053.07 1386.83   9
 -15  -2  -7 899.192 655.708   9
 -15  -2  -8 1045.71 678.957   9
 -15  -2  -9 26351.3 2415.02   9
 -15  -3   9 1829.99 888.576  18
 -15  -3   8 13146.7 2030.48  18
 -15  -3   7 4761.16 1257.30  18
 -15  -3   6 580.829 672.941  18
 -15  -3   5 1093.19 764.189  18
 -15  -3   4 44860.9 4112.88  18
 -15  -3   3 3545.38 1102.48  18
 -15  -3   2 1843.72 746.171  18
 -15  -3   2 2797.96 953.687   9
 -15  -3   1 1080.09 640.886   9
 -15  -3   0 57993.0 7141.47  15
 -15  -3   0 63261.6 4571.40   9
 -15  -3  -1 1178.78 1374.22  15
 -15  -3  -1 1103.76 859.422   9
 -15  -3  -2 8012.01 2577.90  15
 -15  -3  -2 8029.54 1549.87   9
 -15  -3  -3-63.6682 1051.40  15
 -15  -3  -3 562.026 546.192   9
 -15  -3  -4 2005.53 1459.17  15
 -15  -3  -4 6539.07 1402.26   9
 -15  -3  -5 3727.17 1505.80  15
 -15  -3  -5 1783.29 689.826   9
 -15  -3  -6 34353.9 4452.18  15
 -15  -3  -6 37215.6 2988.76   9
 -15  -3  -7 1341.98 614.671   9
 -15  -4   6 5384.50 1128.93  18
 -15  -4   5 5458.67 1228.83  18
 -15  -4   4 3187.74 888.348  18
 -15  -4   3 13652.1 2006.59  18
 -15  -4   2 2600.18 827.297  18
 -15  -4   1-269.290 511.262  18
 -15  -4   0-523.908 992.002  15
 -15  -4  -1 36781.0 5114.62  15
 -15  -4  -2-1070.26 1248.67  15
 -15  -4  -2 448.238 352.014   9
 -15  -4  -3 1029.93 1022.81  15
 -15  -4  -4 303.995 948.843  15
 -15  -4  -5 34463.3 4263.38  15
 -16   0   8 13700.8 1884.91  18
 -16   0   7-954.141 597.293  18
 -16   0   6 29653.3 2872.84  18
 -16   0   5 395.007 529.196  18
 -16   0   4 6379.96 1378.24  18
 -16   0   3-122.910 494.502  18
 -16   0   2 61455.6 4413.08  18
 -16   0   2 63086.3 4457.11   9
 -16   0   1-1003.12 782.038  18
 -16   0   1 1232.56 712.936   9
 -16   0   0-256.679 401.427  18
 -16   0   0 1040.19 796.738   9
 -16   0  -1 276.069 577.737  18
 -16   0  -1 255.091 437.366   9
 -16   0  -2 27216.2 2865.73   9
 -16   0  -3 481.963 412.615   9
 -16   0  -4 7271.82 1416.54   9
 -16   0  -5-82.0379 399.462   9
 -16   0  -6 18885.2 2081.39   9
 -16  -1   8 2388.68 728.051  18
 -16  -1   7 51060.9 3829.18  18
 -16  -1   6 7713.52 1595.29  18
 -16  -1   5-533.638 560.172  18
 -16  -1   4 3026.41 1132.29  18
 -16  -1   3 26212.8 2948.86  18
 -16  -1   2 8253.59 1594.67  18
 -16  -1   2 10315.4 1844.32   9
 -16  -1   1 11953.1 2061.63  18
 -16   1   1 14175.4 1921.67   9
 -16  -1   1 13157.8 2101.69   9
 -16  -1   0 508.995 701.829  18
 -16   1   0 1358.68 682.196   9
 -16  -1   0-63.2883 400.794   9
 -16   1  -1 12905.6 1809.34   9
 -16  -1  -1 10857.6 1865.28   9
 -16   1  -2 802.368 639.267   9
 -16  -1  -2 68.2734 390.828   9
 -16   1  -3 12045.7 1716.90   9
 -16  -1  -3 11582.6 1890.52   9
 -16   1  -4 1098.30 570.756   9
 -16  -1  -4 2611.12 927.138   9
 -16   1  -5 4743.85 1024.44   9
 -16  -1  -5 4036.83 1058.82   9
 -16  -1  -6 835.852 443.123   9
 -16  -2   8 11257.3 1731.24  18
 -16  -2   7 1136.86 726.473  18
 -16  -2   6 1625.22 816.276  18
 -16  -2   5 7953.33 1578.55  18
 -16  -2   4 1826.08 924.095  18
 -16  -2   3 1652.00 896.993  18
 -16  -2   2 27096.7 3001.98  18
 -16  -2   1 8810.69 1781.32  18
 -16  -2   1 9343.23 1648.51   9
 -16  -2   0 11044.4 1812.04   9
 -16  -2  -1 1225.47 641.031   9
 -16  -2  -2 25096.9 2590.47   9
 -16  -2  -3 25707.4 2594.33   9
 -16  -2  -4 4916.34 1093.19   9
 -16  -2  -5 1954.67 749.021   9
 -16  -3   5 420.973 498.625  18
 -16  -3   4 3808.79 1059.20  18
 -16  -3   3 2098.83 810.301  18
 -16  -3   2 31183.3 2885.19  18
 -16  -3   1 61.3556 426.401  18
 -16  -3   0 7295.76 1492.43  18
 -16  -3  -1 2605.45 761.983  18
 -16  -3  -1 4680.32 1009.66   9
   0   0   0    0.00    0.00   0
TITL 471-24Zn in P2(1)/c
REM P2(1)/c (#14 in standard setting)
CELL 1.54184  13.982035   8.500100  20.179854  90.0000  92.7023  90.0000
ZERR   10.00   0.000802   0.000532   0.001763   0.0000   0.0068   0.0000
LATT  1
SYMM -x, y+1/2,-z+1/2
SFAC C H N O
UNIT 110.00 100.00 10.00 10.00
TREF
HKLF 4
END
;
_shelx_hkl_checksum              77471
loop_
_space_group_symop_operation_xyz
'x, y, z'
'-x, y+1/2, -z+1/2'
'-x, -y, -z'
'x, -y-1/2, z-1/2'
loop_
_atom_site_label
_atom_site_type_symbol
_atom_site_fract_x
_atom_site_fract_y
_atom_site_fract_z
_atom_site_U_iso_or_equiv
_atom_site_adp_type
_atom_site_occupancy
_atom_site_site_symmetry_order
_atom_site_calc_flag
_atom_site_refinement_flags_posn
_atom_site_refinement_flags_adp
_atom_site_refinement_flags_occupancy
_atom_site_disorder_assembly
_atom_site_disorder_group
Zn1 Zn 0.44121(4) 0.06257(8) 0.22250(4) 0.0286(2) Uani 1 1 d . . . . .
Zn2 Zn -0.08835(4) 0.41157(8) 0.51102(4) 0.0267(2) Uani 1 1 d . . . . .
N1 N 0.4802(3) -0.0636(5) 0.1401(3) 0.0375(12) Uani 1 1 d . . . . .
N2 N -0.1806(3) 0.2514(5) 0.5476(2) 0.0311(10) Uani 1 1 d . . . . .
O1 O 0.3388(2) 0.1767(5) 0.2890(2) 0.0383(10) Uani 1 1 d . . . . .
O2 O 0.3028(2) -0.0146(5) 0.2210(2) 0.0404(10) Uani 1 1 d . . . . .
O3 O 0.0901(2) 0.4276(4) 0.41482(19) 0.0341(9) Uani 1 1 d . . . . .
O4 O -0.0452(2) 0.2948(4) 0.43051(19) 0.0354(9) Uani 1 1 d . . . . .
O5 O -0.1130(2) 0.1618(4) 0.3111(2) 0.0376(10) Uani 1 1 d . . . . .
O6 O -0.0400(2) -0.3278(5) 0.4409(2) 0.0435(11) Uani 1 1 d . . . . .
O7 O -0.1802(3) -0.4457(4) 0.4549(2) 0.0407(10) Uani 1 1 d . . . . .
O8 O -0.4513(2) 0.0294(4) 0.2855(2) 0.0379(10) Uani 1 1 d . . . . .
O9 O -0.4680(2) -0.2212(4) 0.31557(19) 0.0318(9) Uani 1 1 d . . . . .
C1 C 0.2785(3) 0.0879(7) 0.2616(3) 0.0327(13) Uani 1 1 d . . . . .
C2 C 0.1752(3) 0.1046(6) 0.2760(3) 0.0315(13) Uani 1 1 d . . . . .
C3 C 0.1482(3) 0.2022(6) 0.3266(3) 0.0269(12) Uani 1 1 d . . . . .
H3 H 0.1952 0.2588 0.3505 0.032 Uiso 1 1 calc R U . . .
C4 C 0.0531(3) 0.2188(6) 0.3431(3) 0.0284(12) Uani 1 1 d . . . . .
C5 C 0.0304(3) 0.3229(6) 0.4004(3) 0.0287(12) Uani 1 1 d . . . . .
C6 C -0.0153(3) 0.1384(6) 0.3027(3) 0.0327(14) Uani 1 1 d . . . . .
C7 C 0.0089(4) 0.0484(7) 0.2489(3) 0.0468(17) Uani 1 1 d . . . . .
H7 H -0.0384 0.0027 0.2213 0.056 Uiso 1 1 calc R U . . .
C8 C 0.1050(4) 0.0276(7) 0.2370(3) 0.0438(16) Uani 1 1 d . . . . .
H8 H 0.1226 -0.0381 0.2029 0.053 Uiso 1 1 calc R U . . .
C9 C -0.1630(3) 0.0322(6) 0.3320(3) 0.0317(13) Uani 1 1 d . . . . .
C10 C -0.1213(3) -0.0875(6) 0.3691(3) 0.0358(14) Uani 1 1 d . . . . .
H10 H -0.0558 -0.0861 0.3796 0.043 Uiso 1 1 calc R U . . .
C11 C -0.1776(3) -0.2107(6) 0.3908(3) 0.0306(13) Uani 1 1 d . . . . .
C12 C -0.1297(4) -0.3388(6) 0.4324(3) 0.0355(14) Uani 1 1 d . . . . .
C13 C -0.2605(3) 0.0319(6) 0.3159(3) 0.0318(13) Uani 1 1 d . . . . .
H13 H -0.2886 0.1149 0.2921 0.038 Uiso 1 1 calc R U . . .
C14 C -0.3156(3) -0.0937(6) 0.3357(3) 0.0278(12) Uani 1 1 d . . . . .
C15 C -0.4194(3) -0.0975(6) 0.3107(3) 0.0259(12) Uani 1 1 d . . . . .
C16 C -0.2753(3) -0.2135(6) 0.3735(3) 0.0275(12) Uani 1 1 d . . . . .
H16 H -0.3132 -0.2960 0.3874 0.033 Uiso 1 1 calc R U . . .
C17 C 0.5697(4) -0.0637(7) 0.1201(4) 0.0490(17) Uani 1 1 d . . . . .
H17 H 0.6168 -0.0145 0.1468 0.059 Uiso 1 1 calc R U . . .
C18 C 0.5958(5) -0.1321(9) 0.0627(4) 0.062(2) Uani 1 1 d . . . . .
H18 H 0.6592 -0.1284 0.0509 0.075 Uiso 1 1 calc R U . . .
C19 C 0.5292(6) -0.2054(9) 0.0230(4) 0.073(2) Uani 1 1 d . . . . .
H19 H 0.5457 -0.2526 -0.0165 0.087 Uiso 1 1 calc R U . . .
C20 C 0.4366(6) -0.2081(11) 0.0427(4) 0.087(3) Uani 1 1 d . . . . .
H20 H 0.3890 -0.2581 0.0167 0.104 Uiso 1 1 calc R U . . .
C21 C 0.4144(5) -0.1357(9) 0.1017(4) 0.059(2) Uani 1 1 d . . . . .
H21 H 0.3514 -0.1378 0.1146 0.071 Uiso 1 1 calc R U . . .
C22 C -0.1962(4) 0.1143(7) 0.5176(3) 0.0477(16) Uani 1 1 d . . . . .
H22 H -0.1599 0.0895 0.4816 0.057 Uiso 1 1 calc R U . . .
C23 C -0.2632(5) 0.0068(8) 0.5367(4) 0.063(2) Uani 1 1 d . . . . .
H23 H -0.2702 -0.0901 0.5157 0.075 Uiso 1 1 calc R U . . .
C24 C -0.3192(4) 0.0478(7) 0.5881(4) 0.0499(18) Uani 1 1 d . . . . .
H24 H -0.3679 -0.0188 0.6006 0.060 Uiso 1 1 calc R U . . .
C25 C -0.3031(4) 0.1851(8) 0.6202(3) 0.0496(17) Uani 1 1 d . . . . .
H25 H -0.3394 0.2126 0.6558 0.060 Uiso 1 1 calc R U . . .
C26 C -0.2330(4) 0.2834(7) 0.5998(3) 0.0440(16) Uani 1 1 d . . . . .
H26 H -0.2212 0.3764 0.6231 0.053 Uiso 1 1 calc R U . . .
loop_
_atom_site_aniso_label
_atom_site_aniso_U_11
_atom_site_aniso_U_22
_atom_site_aniso_U_33
_atom_site_aniso_U_23
_atom_site_aniso_U_13
_atom_site_aniso_U_12
Zn1 0.0091(3) 0.0276(4) 0.0491(5) 0.0013(3) 0.0022(3) 0.0018(3)
Zn2 0.0105(3) 0.0279(4) 0.0422(5) 0.0031(3) 0.0064(3) 0.0001(3)
N1 0.028(2) 0.024(2) 0.060(3) -0.002(2) 0.006(2) 0.005(2)
N2 0.021(2) 0.032(2) 0.041(3) 0.002(2) 0.008(2) -0.002(2)
O1 0.0135(17) 0.045(2) 0.057(3) 0.001(2) 0.0090(17) -0.0039(17)
O2 0.0157(18) 0.041(2) 0.066(3) -0.006(2) 0.0126(18) 0.0049(17)
O3 0.0241(19) 0.034(2) 0.046(2) -0.0024(19) 0.0099(17) -0.0026(16)
O4 0.0188(18) 0.041(2) 0.048(3) -0.004(2) 0.0123(17) 0.0000(16)
O5 0.0099(16) 0.027(2) 0.077(3) 0.002(2) 0.0074(18) -0.0033(15)
O6 0.0186(19) 0.058(3) 0.054(3) 0.013(2) -0.0053(18) 0.0101(18)
O7 0.028(2) 0.037(2) 0.057(3) 0.015(2) -0.0053(19) 0.0042(17)
O8 0.0141(17) 0.030(2) 0.068(3) 0.006(2) -0.0148(18) 0.0041(16)
O9 0.0092(16) 0.0241(19) 0.063(3) -0.0067(19) 0.0091(16) -0.0038(14)
C1 0.014(3) 0.039(3) 0.046(4) 0.005(3) 0.010(2) 0.003(2)
C2 0.011(2) 0.033(3) 0.051(4) -0.005(3) 0.009(2) 0.003(2)
C3 0.013(2) 0.026(3) 0.042(3) 0.000(3) 0.001(2) -0.003(2)
C4 0.020(3) 0.019(2) 0.047(4) -0.001(2) 0.009(2) -0.001(2)
C5 0.014(2) 0.031(3) 0.041(3) 0.003(3) 0.003(2) 0.007(2)
C6 0.009(2) 0.025(3) 0.064(4) -0.001(3) 0.004(2) -0.003(2)
C7 0.024(3) 0.041(4) 0.076(5) -0.027(3) 0.005(3) -0.011(3)
C8 0.023(3) 0.043(4) 0.066(5) -0.019(3) 0.013(3) -0.003(3)
C9 0.012(2) 0.027(3) 0.056(4) 0.005(3) 0.005(2) -0.005(2)
C10 0.011(2) 0.032(3) 0.065(4) 0.004(3) 0.004(2) 0.001(2)
C11 0.017(2) 0.024(3) 0.050(4) 0.006(3) -0.001(2) 0.000(2)
C12 0.025(3) 0.032(3) 0.049(4) 0.001(3) 0.001(3) 0.008(2)
C13 0.011(2) 0.026(3) 0.058(4) 0.003(3) -0.001(2) 0.003(2)
C14 0.011(2) 0.027(3) 0.045(3) -0.002(3) 0.001(2) -0.002(2)
C15 0.008(2) 0.035(3) 0.035(3) -0.002(3) 0.005(2) 0.002(2)
C16 0.013(2) 0.020(2) 0.049(4) 0.002(3) 0.003(2) -0.001(2)
C17 0.028(3) 0.043(4) 0.076(5) 0.000(4) 0.010(3) 0.001(3)
C18 0.053(4) 0.059(5) 0.077(6) 0.002(4) 0.028(4) 0.022(4)
C19 0.090(6) 0.072(5) 0.059(5) -0.007(5) 0.021(5) 0.027(5)
C20 0.069(5) 0.112(8) 0.079(6) -0.041(6) -0.001(5) 0.009(5)
C21 0.041(4) 0.063(5) 0.072(5) -0.023(4) 0.003(4) 0.000(3)
C22 0.047(4) 0.044(4) 0.053(4) -0.010(3) 0.012(3) -0.017(3)
C23 0.071(5) 0.048(4) 0.069(5) -0.004(4) 0.011(4) -0.033(4)
C24 0.038(4) 0.048(4) 0.064(5) 0.019(4) 0.005(3) -0.016(3)
C25 0.042(4) 0.051(4) 0.058(5) 0.005(4) 0.023(3) -0.007(3)
C26 0.036(3) 0.037(3) 0.061(4) 0.004(3) 0.021(3) -0.008(3)
loop_
_atom_type_symbol
_atom_type_description
_atom_type_scat_dispersion_real
_atom_type_scat_dispersion_imag
_atom_type_scat_source
C C 0.0181 0.0091 'International Tables Vol C Tables 4.2.6.8 and 6.1.1.4'
H H 0.0000 0.0000 'International Tables Vol C Tables 4.2.6.8 and 6.1.1.4'
N N 0.0311 0.0180 'International Tables Vol C Tables 4.2.6.8 and 6.1.1.4'
O O 0.0492 0.0322 'International Tables Vol C Tables 4.2.6.8 and 6.1.1.4'
Zn Zn -1.5491 0.6778 'International Tables Vol C Tables 4.2.6.8 and 6.1.1.4'
loop_
_geom_angle_atom_site_label_1
_geom_angle_atom_site_label_2
_geom_angle_atom_site_label_3
_geom_angle
_geom_angle_site_symmetry_1
_geom_angle_site_symmetry_3
_geom_angle_publ_flag
O8 Zn1 O9 103.20(14) 1_655 2 ?
O8 Zn1 O2 131.76(18) 1_655 . ?
O9 Zn1 O2 118.40(15) 2 . ?
O8 Zn1 N1 103.04(18) 1_655 . ?
O9 Zn1 N1 95.99(16) 2 . ?
O2 Zn1 N1 96.15(17) . . ?
O8 Zn1 O1 99.63(16) 1_655 . ?
O9 Zn1 O1 88.22(14) 2 . ?
O2 Zn1 O1 60.91(14) . . ?
N1 Zn1 O1 155.29(16) . . ?
O4 Zn2 O3 159.89(14) . 3_566 ?
O4 Zn2 N2 100.45(17) . . ?
O3 Zn2 N2 98.82(17) 3_566 . ?
O4 Zn2 O7 92.82(17) . 1_565 ?
O3 Zn2 O7 88.84(16) 3_566 1_565 ?
N2 Zn2 O7 101.73(16) . 1_565 ?
O4 Zn2 O6 85.68(15) . 3_556 ?
O3 Zn2 O6 85.88(15) 3_566 3_556 ?
N2 Zn2 O6 98.42(16) . 3_556 ?
O7 Zn2 O6 159.73(15) 1_565 3_556 ?
O4 Zn2 Zn2 81.07(10) . 3_566 ?
O3 Zn2 Zn2 78.84(10) 3_566 3_566 ?
N2 Zn2 Zn2 161.10(13) . 3_566 ?
O7 Zn2 Zn2 97.00(11) 1_565 3_566 ?
O6 Zn2 Zn2 62.79(11) 3_556 3_566 ?
C21 N1 C17 117.3(6) . . ?
C21 N1 Zn1 120.4(4) . . ?
C17 N1 Zn1 121.9(4) . . ?
C22 N2 C26 117.0(5) . . ?
C22 N2 Zn2 121.0(4) . . ?
C26 N2 Zn2 121.9(4) . . ?
C1 O1 Zn1 84.8(3) . . ?
C1 O2 Zn1 93.1(3) . . ?
C5 O3 Zn2 128.5(3) . 3_566 ?
C5 O4 Zn2 125.5(4) . . ?
C9 O5 C6 115.8(4) . . ?
C12 O6 Zn2 148.4(4) . 3_556 ?
C12 O7 Zn2 106.2(3) . 1_545 ?
C15 O8 Zn1 129.4(3) . 1_455 ?
C15 O9 Zn1 128.1(3) . 2_545 ?
O1 C1 O2 121.0(4) . . ?
O1 C1 C2 119.8(5) . . ?
O2 C1 C2 119.2(5) . . ?
C3 C2 C8 119.4(5) . . ?
C3 C2 C1 120.1(5) . . ?
C8 C2 C1 120.5(5) . . ?
C2 C3 C4 122.3(5) . . ?
C2 C3 H3 118.9 . . ?
C4 C3 H3 118.9 . . ?
C3 C4 C6 116.3(5) . . ?
C3 C4 C5 118.8(5) . . ?
C6 C4 C5 124.8(4) . . ?
O3 C5 O4 126.1(5) . . ?
O3 C5 C4 115.9(4) . . ?
O4 C5 C4 118.0(5) . . ?
C7 C6 O5 116.8(5) . . ?
C7 C6 C4 122.7(5) . . ?
O5 C6 C4 120.1(5) . . ?
C6 C7 C8 118.8(5) . . ?
C6 C7 H7 120.6 . . ?
C8 C7 H7 120.6 . . ?
C7 C8 C2 120.4(5) . . ?
C7 C8 H8 119.8 . . ?
C2 C8 H8 119.8 . . ?
C10 C9 O5 123.2(4) . . ?
C10 C9 C13 120.9(5) . . ?
O5 C9 C13 115.8(5) . . ?
C9 C10 C11 119.7(5) . . ?
C9 C10 H10 120.2 . . ?
C11 C10 H10 120.2 . . ?
C10 C11 C16 119.7(5) . . ?
C10 C11 C12 118.3(4) . . ?
C16 C11 C12 122.0(5) . . ?
O7 C12 O6 125.4(5) . . ?
O7 C12 C11 118.8(5) . . ?
O6 C12 C11 115.8(5) . . ?
C9 C13 C14 119.1(5) . . ?
C9 C13 H13 120.4 . . ?
C14 C13 H13 120.4 . . ?
C16 C14 C13 120.7(5) . . ?
C16 C14 C15 121.9(4) . . ?
C13 C14 C15 117.3(5) . . ?
O9 C15 O8 124.2(4) . . ?
O9 C15 C14 120.3(4) . . ?
O8 C15 C14 115.5(4) . . ?
C14 C16 C11 119.8(5) . . ?
C14 C16 H16 120.1 . . ?
C11 C16 H16 120.1 . . ?
N1 C17 C18 123.4(6) . . ?
N1 C17 H17 118.3 . . ?
C18 C17 H17 118.3 . . ?
C19 C18 C17 119.8(7) . . ?
C19 C18 H18 120.1 . . ?
C17 C18 H18 120.1 . . ?
C18 C19 C20 118.0(7) . . ?
C18 C19 H19 121.0 . . ?
C20 C19 H19 121.0 . . ?
C19 C20 C21 119.5(8) . . ?
C19 C20 H20 120.2 . . ?
C21 C20 H20 120.2 . . ?
N1 C21 C20 122.0(7) . . ?
N1 C21 H21 119.0 . . ?
C20 C21 H21 119.0 . . ?
N2 C22 C23 123.7(6) . . ?
N2 C22 H22 118.2 . . ?
C23 C22 H22 118.2 . . ?
C24 C23 C22 117.6(7) . . ?
C24 C23 H23 121.2 . . ?
C22 C23 H23 121.2 . . ?
C25 C24 C23 119.6(6) . . ?
C25 C24 H24 120.2 . . ?
C23 C24 H24 120.2 . . ?
C24 C25 C26 119.3(6) . . ?
C24 C25 H25 120.3 . . ?
C26 C25 H25 120.3 . . ?
N2 C26 C25 122.6(6) . . ?
N2 C26 H26 118.7 . . ?
C25 C26 H26 118.7 . . ?
loop_
_geom_bond_atom_site_label_1
_geom_bond_atom_site_label_2
_geom_bond_distance
_geom_bond_site_symmetry_2
_geom_bond_publ_flag
Zn1 O8 1.943(3) 1_655 ?
Zn1 O9 2.033(3) 2 ?
Zn1 O2 2.043(3) . ?
Zn1 N1 2.073(5) . ?
Zn1 O1 2.231(4) . ?
Zn2 O4 2.020(4) . ?
Zn2 O3 2.028(4) 3_566 ?
Zn2 N2 2.038(4) . ?
Zn2 O7 2.066(4) 1_565 ?
Zn2 O6 2.122(3) 3_556 ?
Zn2 Zn2 2.9437(12) 3_566 ?
N1 C21 1.325(8) . ?
N1 C17 1.333(7) . ?
N2 C22 1.326(7) . ?
N2 C26 1.338(7) . ?
O1 C1 1.243(6) . ?
O2 C1 1.253(6) . ?
O3 C5 1.245(6) . ?
O3 Zn2 2.028(4) 3_566 ?
O4 C5 1.266(5) . ?
O5 C9 1.382(6) . ?
O5 C6 1.399(5) . ?
O6 C12 1.261(6) . ?
O6 Zn2 2.122(3) 3_556 ?
O7 C12 1.250(6) . ?
O7 Zn2 2.066(4) 1_545 ?
O8 C15 1.265(6) . ?
O8 Zn1 1.943(3) 1_455 ?
O9 C15 1.258(6) . ?
O9 Zn1 2.033(3) 2_545 ?
C1 C2 1.494(6) . ?
C2 C3 1.382(7) . ?
C2 C8 1.392(7) . ?
C3 C4 1.393(6) . ?
C3 H3 0.9300 . ?
C4 C6 1.405(7) . ?
C4 C5 1.502(7) . ?
C6 C7 1.382(8) . ?
C7 C8 1.387(7) . ?
C7 H7 0.9300 . ?
C8 H8 0.9300 . ?
C9 C10 1.376(7) . ?
C9 C13 1.386(6) . ?
C10 C11 1.393(7) . ?
C10 H10 0.9300 . ?
C11 C16 1.394(6) . ?
C11 C12 1.512(7) . ?
C13 C14 1.387(7) . ?
C13 H13 0.9300 . ?
C14 C16 1.377(7) . ?
C14 C15 1.514(6) . ?
C16 H16 0.9300 . ?
C17 C18 1.361(9) . ?
C17 H17 0.9300 . ?
C18 C19 1.351(10) . ?
C18 H18 0.9300 . ?
C19 C20 1.373(9) . ?
C19 H19 0.9300 . ?
C20 C21 1.389(9) . ?
C20 H20 0.9300 . ?
C21 H21 0.9300 . ?
C22 C23 1.377(8) . ?
C22 H22 0.9300 . ?
C23 C24 1.372(9) . ?
C23 H23 0.9300 . ?
C24 C25 1.349(8) . ?
C24 H24 0.9300 . ?
C25 C26 1.367(7) . ?
C25 H25 0.9300 . ?
C26 H26 0.9300 . ?
loop_
_geom_hbond_atom_site_label_D
_geom_hbond_atom_site_label_H
_geom_hbond_atom_site_label_A
_geom_hbond_distance_DH
_geom_hbond_distance_HA
_geom_hbond_distance_DA
_geom_hbond_angle_DHA
_geom_hbond_site_symmetry_A
C26 H26 O3 0.93 2.62 3.189(6) 120.2 3_566
C22 H22 O4 0.93 2.61 3.202(7) 121.6 .
C21 H21 O2 0.93 2.51 3.106(8) 122.0 .
C21 H21 O2 0.93 2.51 3.106(8) 122.0 .
C22 H22 O4 0.93 2.61 3.202(7) 121.6 .
C26 H26 O3 0.93 2.62 3.189(6) 120.2 3_566
loop_
_geom_torsion_atom_site_label_1
_geom_torsion_atom_site_label_2
_geom_torsion_atom_site_label_3
_geom_torsion_atom_site_label_4
_geom_torsion
_geom_torsion_site_symmetry_1
_geom_torsion_site_symmetry_2
_geom_torsion_site_symmetry_3
_geom_torsion_site_symmetry_4
_geom_torsion_publ_flag
Zn1 O1 C1 O2 5.5(5) . . . . ?
Zn1 O1 C1 C2 -173.4(5) . . . . ?
Zn1 O2 C1 O1 -6.0(6) . . . . ?
Zn1 O2 C1 C2 173.0(4) . . . . ?
O1 C1 C2 C3 -9.4(8) . . . . ?
O2 C1 C2 C3 171.6(5) . . . . ?
O1 C1 C2 C8 167.9(6) . . . . ?
O2 C1 C2 C8 -11.1(9) . . . . ?
C8 C2 C3 C4 4.3(9) . . . . ?
C1 C2 C3 C4 -178.3(5) . . . . ?
C2 C3 C4 C6 -3.9(8) . . . . ?
C2 C3 C4 C5 177.8(5) . . . . ?
Zn2 O3 C5 O4 -0.5(8) 3_566 . . . ?
Zn2 O3 C5 C4 -178.7(3) 3_566 . . . ?
Zn2 O4 C5 O3 -0.8(8) . . . . ?
Zn2 O4 C5 C4 177.3(3) . . . . ?
C3 C4 C5 O3 24.0(7) . . . . ?
C6 C4 C5 O3 -154.1(5) . . . . ?
C3 C4 C5 O4 -154.3(5) . . . . ?
C6 C4 C5 O4 27.6(8) . . . . ?
C9 O5 C6 C7 71.8(7) . . . . ?
C9 O5 C6 C4 -115.3(6) . . . . ?
C3 C4 C6 C7 -0.6(9) . . . . ?
C5 C4 C6 C7 177.6(5) . . . . ?
C3 C4 C6 O5 -173.1(5) . . . . ?
C5 C4 C6 O5 5.1(9) . . . . ?
O5 C6 C7 C8 177.3(5) . . . . ?
C4 C6 C7 C8 4.6(10) . . . . ?
C6 C7 C8 C2 -4.2(10) . . . . ?
C3 C2 C8 C7 -0.1(10) . . . . ?
C1 C2 C8 C7 -177.4(6) . . . . ?
C6 O5 C9 C10 27.4(8) . . . . ?
C6 O5 C9 C13 -155.3(5) . . . . ?
O5 C9 C10 C11 177.1(5) . . . . ?
C13 C9 C10 C11 -0.1(9) . . . . ?
C9 C10 C11 C16 1.5(9) . . . . ?
C9 C10 C11 C12 -179.0(5) . . . . ?
Zn2 O7 C12 O6 2.8(8) 1_545 . . . ?
Zn2 O7 C12 C11 -177.8(4) 1_545 . . . ?
Zn2 O6 C12 O7 -7.8(12) 3_556 . . . ?
Zn2 O6 C12 C11 172.7(5) 3_556 . . . ?
C10 C11 C12 O7 176.5(6) . . . . ?
C16 C11 C12 O7 -4.0(9) . . . . ?
C10 C11 C12 O6 -4.0(8) . . . . ?
C16 C11 C12 O6 175.5(5) . . . . ?
C10 C9 C13 C14 -2.1(9) . . . . ?
O5 C9 C13 C14 -179.5(5) . . . . ?
C9 C13 C14 C16 3.0(9) . . . . ?
C9 C13 C14 C15 -173.6(5) . . . . ?
Zn1 O9 C15 O8 121.5(5) 2_545 . . . ?
Zn1 O9 C15 C14 -58.3(7) 2_545 . . . ?
Zn1 O8 C15 O9 -23.0(8) 1_455 . . . ?
Zn1 O8 C15 C14 156.8(4) 1_455 . . . ?
C16 C14 C15 O9 -10.7(8) . . . . ?
C13 C14 C15 O9 165.9(5) . . . . ?
C16 C14 C15 O8 169.5(5) . . . . ?
C13 C14 C15 O8 -13.9(7) . . . . ?
C13 C14 C16 C11 -1.5(9) . . . . ?
C15 C14 C16 C11 174.9(5) . . . . ?
C10 C11 C16 C14 -0.7(9) . . . . ?
C12 C11 C16 C14 179.8(5) . . . . ?
C21 N1 C17 C18 0.7(10) . . . . ?
Zn1 N1 C17 C18 -173.2(5) . . . . ?
N1 C17 C18 C19 -0.4(11) . . . . ?
C17 C18 C19 C20 -0.2(12) . . . . ?
C18 C19 C20 C21 0.4(14) . . . . ?
C17 N1 C21 C20 -0.4(11) . . . . ?
Zn1 N1 C21 C20 173.6(6) . . . . ?
C19 C20 C21 N1 -0.1(14) . . . . ?
C26 N2 C22 C23 0.8(10) . . . . ?
Zn2 N2 C22 C23 -174.6(6) . . . . ?
N2 C22 C23 C24 2.8(12) . . . . ?
C22 C23 C24 C25 -4.1(11) . . . . ?
C23 C24 C25 C26 1.9(11) . . . . ?
C22 N2 C26 C25 -3.2(9) . . . . ?
Zn2 N2 C26 C25 172.1(5) . . . . ?
C24 C25 C26 N2 1.9(10) . . . . ?
