#------------------------------------------------------------------------------
#$Date: 2022-06-28 01:33:40 +0300 (Tue, 28 Jun 2022) $
#$Revision: 276298 $
#$URL: file:///home/coder/svn-repositories/cod/cif/7/24/51/7245102.cif $
#------------------------------------------------------------------------------
#
# This file is available in the Crystallography Open Database (COD),
# http://www.crystallography.net/
#
# All data on this site have been placed in the public domain by the
# contributors.
#
data_7245102
loop_
_publ_author_name
'Gu, Wen-Jun'
'Gu, Jinzhong'
'Kirillova, Marina'
'Kirillov, Alexander'
_publ_section_title
;
 Zn(II) metal-organic architectures from ether-bridged tetracarboxylate
 linkers: assembly, structural variety and catalytic features
;
_journal_name_full               CrystEngComm
_journal_paper_doi               10.1039/D2CE00722C
_journal_year                    2022
_chemical_formula_sum            'C52 H38 N4 O21 Zn2'
_chemical_formula_weight         1185.60
_space_group_crystal_system      monoclinic
_space_group_IT_number           14
_space_group_name_Hall           '-P 2ybc'
_space_group_name_H-M_alt        'P 1 21/c 1'
_atom_sites_solution_hydrogens   mixed
_audit_creation_method           SHELXL-2014/7
_audit_update_record
;
2021-12-01 deposited with the CCDC.	2022-06-27 downloaded from the CCDC.
;
_cell_angle_alpha                90
_cell_angle_beta                 90.123(4)
_cell_angle_gamma                90
_cell_formula_units_Z            4
_cell_length_a                   16.2368(6)
_cell_length_b                   21.9026(9)
_cell_length_c                   14.2576(6)
_cell_measurement_reflns_used    25826
_cell_measurement_temperature    293(2)
_cell_measurement_theta_max      70.191
_cell_measurement_theta_min      3.388
_cell_volume                     5070.4(4)
_computing_cell_refinement       'Bruker SAINT'
_computing_data_collection       'Bruker APEX2'
_computing_data_reduction        'Bruker SAINT'
_computing_molecular_graphics    'Bruker SHELXTL'
_computing_publication_material  'Bruker SHELXTL'
_computing_structure_refinement  'SHELXL-2014/7 (Sheldrick, 2014)'
_computing_structure_solution    'SHELXL-2014/7 (Sheldrick, 2014)'
_diffrn_ambient_temperature      293(2)
_diffrn_measured_fraction_theta_full 0.998
_diffrn_measured_fraction_theta_max 0.980
_diffrn_measurement_device_type  'Bruker APE-II CCD'
_diffrn_measurement_method       '\f and \w scans'
_diffrn_radiation_type           CuK\a
_diffrn_radiation_wavelength     1.54184
_diffrn_reflns_av_R_equivalents  0.0730
_diffrn_reflns_av_unetI/netI     0.0843
_diffrn_reflns_Laue_measured_fraction_full 0.998
_diffrn_reflns_Laue_measured_fraction_max 0.980
_diffrn_reflns_limit_h_max       19
_diffrn_reflns_limit_h_min       -17
_diffrn_reflns_limit_k_max       26
_diffrn_reflns_limit_k_min       -26
_diffrn_reflns_limit_l_max       17
_diffrn_reflns_limit_l_min       -10
_diffrn_reflns_number            25826
_diffrn_reflns_point_group_measured_fraction_full 0.998
_diffrn_reflns_point_group_measured_fraction_max 0.980
_diffrn_reflns_theta_full        67.684
_diffrn_reflns_theta_max         70.191
_diffrn_reflns_theta_min         3.388
_diffrn_source                   'fine-focus sealed tube'
_exptl_absorpt_coefficient_mu    1.921
_exptl_absorpt_correction_T_max  0.749
_exptl_absorpt_correction_T_min  0.700
_exptl_absorpt_correction_type   multi-scan
_exptl_absorpt_process_details   SADABS
_exptl_crystal_colour            colourless
_exptl_crystal_density_diffrn    1.553
_exptl_crystal_description       block
_exptl_crystal_F_000             2424
_exptl_crystal_size_max          0.200
_exptl_crystal_size_mid          0.180
_exptl_crystal_size_min          0.160
_exptl_transmission_factor_max   0.735
_exptl_transmission_factor_min   0.715
_refine_diff_density_max         0.819
_refine_diff_density_min         -0.269
_refine_diff_density_rms         0.072
_refine_ls_extinction_method     none
_refine_ls_goodness_of_fit_ref   0.997
_refine_ls_hydrogen_treatment    constr
_refine_ls_matrix_type           full
_refine_ls_number_parameters     712
_refine_ls_number_reflns         9460
_refine_ls_number_restraints     0
_refine_ls_restrained_S_all      0.997
_refine_ls_R_factor_all          0.1231
_refine_ls_R_factor_gt           0.0575
_refine_ls_shift/su_max          0.002
_refine_ls_shift/su_mean         0.000
_refine_ls_structure_factor_coef Fsqd
_refine_ls_weighting_details
'w=1/[\s^2^(Fo^2^)+(0.0485P)^2^+1.6696P] where P=(Fo^2^+2Fc^2^)/3'
_refine_ls_weighting_scheme      calc
_refine_ls_wR_factor_gt          0.1218
_refine_ls_wR_factor_ref         0.1604
_reflns_Friedel_coverage         0.000
_reflns_number_gt                4970
_reflns_number_total             9460
_reflns_threshold_expression     'I > 2\s(I)'
_cod_data_source_file            d2ce00722c1.cif
_cod_data_source_block           475-9Zn2
_cod_original_sg_symbol_H-M      'P 21/c'
_cod_database_code               7245102
_shelx_shelxl_version_number     2014/7
_shelx_space_group_comment
;
The symmetry employed for this shelxl refinement is uniquely defined
by the following loop, which should always be used as a source of
symmetry information in preference to the above space-group names.
They are only intended as comments.
;
_shelx_estimated_absorpt_t_min   0.700
_shelx_estimated_absorpt_t_max   0.749
_shelx_res_file
;

    475-9Zn2.res created by SHELXL-2014/7

TITL 475-9Zn2 in P21/c #14       New: P21/c
CELL  1.54184   16.2368   21.9026   14.2576    90.000    90.123    90.000
ZERR  4           0.0006    0.0009    0.0006     0.000     0.004     0.000
LATT 1
SYMM             - X ,    0.50000 + Y ,    0.50000 - Z
SFAC C  H  N  O  Zn
UNIT 208  152  16  84  8
L.S. 16
ACTA
BOND $H
FMAP 2
PLAN 2
HTAB O21 O1_$6
HTAB O21 O12_$8
EQIV $8 x-1, y, z
HTAB C20 O12_$7
EQIV $7 x-1, -y+1/2, z+1/2
HTAB C17 O10
HTAB O10 O7
HTAB O6 O3_$6
EQIV $6 -x+1, y-1/2, -z+1/2
HTAB O2 O11_$5
EQIV $5 x, -y+1/2, z+1/2
HTAB C52 O20
HTAB C51 O6_$3
HTAB C49 O9_$4
HTAB C46 O9_$4
EQIV $4 x+1, -y+1/2, z-1/2
HTAB O20 O17_$2
HTAB O20 O13_$3
EQIV $3 -x+2, -y, -z
HTAB O20 O1_$2
HTAB O20 O13
HTAB O19 O8_$2
EQIV $2 x, -y+1/2, z-1/2
HTAB O14 O17_$1
EQIV $1 -x+2, y-1/2, -z+1/2
CONF
HTAB
SIZE 0.20 0.18 0.16
WGHT    0.048500    1.669600
FVAR       2.25573
ZN2   5    1.039898    0.155084   -0.079716    11.00000    0.03971    0.04002 =
         0.04378    0.00034    0.00332    0.00008
O11   4    0.954320    0.174722    0.017689    11.00000    0.04664    0.04312 =
         0.03704   -0.00346    0.00254    0.00163
O12   4    1.056801    0.168969    0.118129    11.00000    0.03908    0.06212 =
         0.06133    0.00155    0.00006    0.00994
O13   4    0.949479    0.054322    0.141614    11.00000    0.10519    0.04049 =
         0.05227    0.00053    0.02176    0.01374
O14   4    0.930811    0.038224    0.294093    11.00000    0.12117    0.03481 =
         0.06350    0.00540    0.02345    0.01999
AFIX   3
H14   2    0.944571    0.003304    0.280523    11.00000   -1.50000
AFIX   0
O15   4    0.920429    0.287170    0.140113    11.00000    0.04062    0.02622 =
         0.04291    0.00016    0.00749    0.00084
O16   4    0.967307    0.346899    0.308007    11.00000    0.05161    0.03469 =
         0.04870    0.00618   -0.01054   -0.00840
O17   4    1.021577    0.431786    0.253764    11.00000    0.05566    0.04257 =
         0.07350    0.00957   -0.01247   -0.01816
O18   4    0.646494    0.444683   -0.007720    11.00000    0.08083    0.05393 =
         0.12394    0.00660   -0.04602    0.01161
O19   4    0.662066    0.343463   -0.021202    11.00000    0.04013    0.05447 =
         0.06097   -0.00953   -0.00577    0.00572
AFIX   3
H19   2    0.615126    0.345173   -0.042382    11.00000   -1.50000
AFIX   0
O20   4    1.025253    0.062208   -0.040988    11.00000    0.06801    0.04073 =
         0.05855    0.00105    0.01674    0.00508
AFIX   3
H20A  2    0.982523    0.057848   -0.005408    11.00000   -1.50000
H20B  2    1.013253    0.040698   -0.090038    11.00000   -1.50000
AFIX   0
N3    3    1.079911    0.246024   -0.096847    11.00000    0.06256    0.05083 =
         0.05669    0.00478   -0.01100   -0.00979
N4    3    1.163820    0.142814   -0.106445    11.00000    0.03744    0.07207 =
         0.06004   -0.01227    0.00253   -0.00117
C27   1    0.983184    0.174621    0.100796    11.00000    0.03828    0.02477 =
         0.05047    0.00365    0.00492   -0.00121
C28   1    0.920974    0.182855    0.178468    11.00000    0.03299    0.03205 =
         0.03698   -0.00414    0.00103    0.00029
C29   1    0.895284    0.134824    0.235413    11.00000    0.04817    0.03542 =
         0.04184   -0.00225    0.00267   -0.00115
C30   1    0.838723    0.144550    0.306150    11.00000    0.05811    0.03963 =
         0.05428    0.00856    0.01473    0.00198
AFIX  43
H30   2    0.821846    0.112173    0.343679    11.00000   -1.20000
AFIX   0
C31   1    0.807373    0.202037    0.321107    11.00000    0.05114    0.04318 =
         0.05075   -0.00079    0.01681    0.00695
AFIX  43
H31   2    0.768577    0.208285    0.368029    11.00000   -1.20000
AFIX   0
C32   1    0.833263    0.250564    0.266722    11.00000    0.04131    0.03782 =
         0.04670   -0.00474    0.00873    0.00663
AFIX  43
H32   2    0.812839    0.289547    0.277957    11.00000   -1.20000
AFIX   0
C33   1    0.889570    0.241102    0.195575    11.00000    0.03780    0.02649 =
         0.04132   -0.00389    0.00158    0.00162
C34   1    0.873990    0.341497    0.133636    11.00000    0.03971    0.02841 =
         0.03781    0.00258    0.00330    0.00584
C35   1    0.900784    0.393473    0.179691    11.00000    0.04075    0.02965 =
         0.04308    0.00294   -0.00087   -0.00061
C36   1    0.858244    0.447820    0.165082    11.00000    0.06517    0.03130 =
         0.06082   -0.00462   -0.01497    0.00115
AFIX  43
H36   2    0.875680    0.483435    0.194570    11.00000   -1.20000
AFIX   0
C37   1    0.790536    0.448934    0.107170    11.00000    0.06402    0.02877 =
         0.06242    0.00115   -0.00621    0.00854
AFIX  43
H37   2    0.763242    0.485687    0.097054    11.00000   -1.20000
AFIX   0
C38   1    0.761935    0.396347    0.063370    11.00000    0.04772    0.04301 =
         0.04299    0.00776   -0.00216    0.00361
C39   1    0.806416    0.342305    0.076497    11.00000    0.04021    0.03264 =
         0.03944   -0.00132    0.00198   -0.00192
AFIX  43
H39   2    0.789877    0.306759    0.046156    11.00000   -1.20000
AFIX   0
C40   1    0.927521    0.071729    0.217211    11.00000    0.05734    0.03478 =
         0.05623    0.00067    0.01254   -0.00089
C41   1    0.968709    0.391301    0.251951    11.00000    0.04424    0.02741 =
         0.04411   -0.00214    0.00372    0.00327
C42   1    0.684461    0.398002    0.008105    11.00000    0.05165    0.04528 =
         0.05279    0.00311    0.00176    0.00561
C43   1    1.033916    0.295010   -0.090459    11.00000    0.08572    0.05606 =
         0.09609   -0.00257   -0.02875    0.00084
AFIX  43
H43   2    0.978971    0.290970   -0.073241    11.00000   -1.20000
AFIX   0
C44   1    1.065410    0.353228   -0.108893    11.00000    0.13905    0.05586 =
         0.13102    0.00735   -0.06719   -0.00437
AFIX  43
H44   2    1.032044    0.387646   -0.105066    11.00000   -1.20000
AFIX   0
C45   1    1.146046    0.358011   -0.132517    11.00000    0.15493    0.07086 =
         0.12286    0.03868   -0.05418   -0.04945
AFIX  43
H45   2    1.168362    0.396267   -0.144916    11.00000   -1.20000
AFIX   0
C46   1    1.194847    0.307427   -0.138329    11.00000    0.11148    0.10447 =
         0.06933    0.01384   -0.01340   -0.05510
AFIX  43
H46   2    1.250286    0.310991   -0.153642    11.00000   -1.20000
AFIX   0
C47   1    1.160369    0.250638   -0.121016    11.00000    0.07517    0.07204 =
         0.04338    0.00505   -0.00741   -0.03334
C48   1    1.206634    0.193144   -0.127362    11.00000    0.05482    0.09663 =
         0.04574   -0.01067    0.00526   -0.02620
C49   1    1.289849    0.190902   -0.152766    11.00000    0.06172    0.14507 =
         0.06383   -0.02233    0.00642   -0.03416
AFIX  43
H49   2    1.319210    0.226432   -0.165248    11.00000   -1.20000
AFIX   0
C50   1    1.326378    0.135204   -0.158617    11.00000    0.06148    0.18637 =
         0.10990   -0.06162    0.02773   -0.00987
AFIX  43
H50   2    1.380912    0.132393   -0.177955    11.00000   -1.20000
AFIX   0
C51   1    1.283686    0.082881   -0.136282    11.00000    0.06050    0.15633 =
         0.13811   -0.06191    0.01240    0.02693
AFIX  43
H51   2    1.308663    0.044695   -0.138324    11.00000   -1.20000
AFIX   0
C52   1    1.201344    0.089614   -0.110453    11.00000    0.05559    0.09319 =
         0.10298   -0.03406   -0.00043    0.01360
AFIX  43
H52   2    1.171478    0.054763   -0.095311    11.00000   -1.20000
AFIX   0
ZN1   5    0.424387    0.157644    0.528023    11.00000    0.04028    0.06399 =
         0.04682    0.00254    0.00426   -0.00220
O1    4    0.831100    0.439373    0.437311    11.00000    0.06969    0.05404 =
         0.10482    0.00267   -0.03223   -0.01048
O2    4    0.801960    0.341775    0.466023    11.00000    0.04103    0.05928 =
         0.05995    0.01238   -0.00609   -0.00496
AFIX   3
H2    2    0.849400    0.341385    0.485863    11.00000   -1.50000
AFIX   0
O3    4    0.443342    0.433107    0.191989    11.00000    0.05881    0.04812 =
         0.10375   -0.02006   -0.02236    0.01499
O4    4    0.503590    0.353377    0.130184    11.00000    0.04861    0.04820 =
         0.04570   -0.01537   -0.01329    0.01725
O5    4    0.543579    0.292690    0.298114    11.00000    0.04237    0.03396 =
         0.05124   -0.00194    0.01032   -0.00527
O6    4    0.590079    0.030032    0.215732    11.00000    0.09709    0.03374 =
         0.14786    0.00284    0.05972    0.00342
AFIX  83
H1    2    0.570290   -0.002405    0.233485    11.00000   -1.50000
AFIX   0
O7    4    0.493242    0.066501    0.304552    11.00000    0.08935    0.04640 =
         0.07865   -0.00564    0.02742   -0.01940
O8    4    0.509870    0.172236    0.429422    11.00000    0.04494    0.04815 =
         0.04108    0.00417    0.00429    0.00111
O9    4    0.408686    0.190070    0.328757    11.00000    0.03486    0.08084 =
         0.06800    0.00153    0.00052    0.00027
O10   4    0.406611    0.070468    0.470215    11.00000    0.12763    0.07158 =
         0.07906   -0.00657    0.03804   -0.04371
AFIX   3
H10A  2    0.436551    0.042238    0.499385    11.00000   -1.50000
H10B  2    0.426611    0.069058    0.412525    11.00000   -1.50000
AFIX   0
N1    3    0.401092    0.252338    0.546701    11.00000    0.06632    0.06864 =
         0.06125    0.00091   -0.00598    0.01792
N2    3    0.303806    0.158514    0.575820    11.00000    0.04681    0.10779 =
         0.06589    0.02212    0.01366    0.00657
C1    1    0.482290    0.182409    0.346885    11.00000    0.04040    0.03366 =
         0.05161    0.00077    0.00324   -0.00281
C2    1    0.546468    0.187310    0.270815    11.00000    0.03601    0.03111 =
         0.04621    0.00354   -0.00210    0.00190
C3    1    0.579488    0.136922    0.225162    11.00000    0.04864    0.03566 =
         0.04803   -0.00215    0.00382   -0.00061
C4    1    0.638160    0.144255    0.156238    11.00000    0.05751    0.04207 =
         0.05731   -0.01226    0.00821    0.00429
AFIX  43
H4    2    0.659828    0.110218    0.126093    11.00000   -1.20000
AFIX   0
C5    1    0.664919    0.202182    0.131772    11.00000    0.05082    0.04324 =
         0.05311   -0.00338    0.01673   -0.00320
AFIX  43
H5    2    0.703786    0.207132    0.084562    11.00000   -1.20000
AFIX   0
C6    1    0.633514    0.252623    0.177944    11.00000    0.04739    0.03338 =
         0.04860   -0.00007    0.00782   -0.00259
AFIX  43
H6    2    0.650889    0.291689    0.161810    11.00000   -1.20000
AFIX   0
C7    1    0.576248    0.244435    0.248063    11.00000    0.03636    0.03597 =
         0.03809   -0.00285    0.00206    0.00473
C8    1    0.592568    0.344426    0.306133    11.00000    0.03902    0.03188 =
         0.03989   -0.00406    0.01258   -0.00076
C9    1    0.568368    0.397358    0.259424    11.00000    0.04265    0.03225 =
         0.04900   -0.00618    0.00137    0.00133
C10   1    0.614327    0.450191    0.273445    11.00000    0.05173    0.03158 =
         0.06659    0.00449   -0.00835    0.00482
AFIX  43
H10   2    0.598175    0.486316    0.244480    11.00000   -1.20000
AFIX   0
C11   1    0.684014    0.449721    0.330118    11.00000    0.04889    0.02992 =
         0.07678   -0.00557   -0.01054   -0.00258
AFIX  43
H11   2    0.714791    0.485188    0.337787    11.00000   -1.20000
AFIX   0
C12   1    0.707695    0.396667    0.375116    11.00000    0.04350    0.04021 =
         0.04985   -0.00310   -0.00015    0.00168
C13   1    0.660755    0.344455    0.363777    11.00000    0.04272    0.03385 =
         0.04341    0.00015    0.00653    0.00437
AFIX  43
H13   2    0.675417    0.308952    0.395455    11.00000   -1.20000
AFIX   0
C14   1    0.549726    0.074617    0.252073    11.00000    0.05413    0.04018 =
         0.06627   -0.00470    0.00792   -0.00021
C15   1    0.500028    0.396163    0.188327    11.00000    0.03687    0.03996 =
         0.05494    0.00311   -0.00173    0.00083
C16   1    0.785753    0.395776    0.429757    11.00000    0.04771    0.04824 =
         0.05191   -0.00095    0.00052   -0.00451
C17   1    0.259015    0.108958    0.590712    11.00000    0.05463    0.14014 =
         0.10029    0.04194    0.00600   -0.00996
AFIX  43
H17   2    0.281565    0.070512    0.580420    11.00000   -1.20000
AFIX   0
C18   1    0.177095    0.114519    0.622191    11.00000    0.06355    0.23586 =
         0.11389    0.07249    0.00662   -0.02616
AFIX  43
H18   2    0.146459    0.079706    0.635438    11.00000   -1.20000
AFIX   0
C19   1    0.143552    0.169483    0.632973    11.00000    0.05703    0.29784 =
         0.10420    0.08038    0.01958    0.03646
AFIX  43
H19A  2    0.088108    0.172623    0.648480    11.00000   -1.20000
AFIX   0
C20   1    0.188946    0.221215    0.621708    11.00000    0.07195    0.21613 =
         0.06329    0.03446    0.01593    0.05677
AFIX  43
H20   2    0.166895    0.259747    0.632624    11.00000   -1.20000
AFIX   0
C21   1    0.270804    0.213277    0.592741    11.00000    0.05822    0.12730 =
         0.04648    0.02087   -0.00238    0.02635
C22   1    0.324931    0.265244    0.579975    11.00000    0.08876    0.10754 =
         0.04505   -0.00223   -0.00649    0.05182
C23   1    0.302791    0.324831    0.599939    11.00000    0.14494    0.12813 =
         0.08399   -0.00698    0.00150    0.07004
AFIX  43
H23   2    0.250307    0.333448    0.622329    11.00000   -1.20000
AFIX   0
C24   1    0.357345    0.370329    0.586905    11.00000    0.18100    0.11313 =
         0.11623   -0.04118   -0.03296    0.08714
AFIX  43
H24   2    0.342949    0.410101    0.602782    11.00000   -1.20000
AFIX   0
C25   1    0.435339    0.358519    0.549807    11.00000    0.17108    0.06726 =
         0.12233   -0.02299   -0.07576    0.01617
AFIX  43
H25   2    0.472923    0.389667    0.538363    11.00000   -1.20000
AFIX   0
C26   1    0.454120    0.296756    0.530587    11.00000    0.09432    0.06615 =
         0.08600   -0.00785   -0.02547    0.01475
AFIX  43
H26   2    0.505443    0.287128    0.505816    11.00000   -1.20000
AFIX   0
O21   4    0.161586    0.062653    0.156431    11.00000    0.09149    0.07308 =
         0.13392   -0.00877   -0.03677    0.02131
AFIX   3
H21A  2    0.121466    0.085663    0.141611    11.00000   -1.50000
H21B  2    0.158296    0.032823    0.118451    11.00000   -1.50000
AFIX   0
HKLF 4

REM  475-9Zn2 in P21/c #14       New: P21/c
REM R1 =  0.0575 for    4970 Fo > 4sig(Fo)  and  0.1231 for all    9460 data
REM    712 parameters refined using      0 restraints

END

WGHT      0.0563      0.0000

REM Instructions for potential hydrogen bonds
HTAB O14 O17_$1
HTAB O19 O8_$2
HTAB O20 O13
HTAB O20 O1_$2
HTAB O20 O13_$3
HTAB O20 O17_$2
HTAB C46 O9_$4
HTAB C49 O9_$4
HTAB C51 O6_$3
HTAB C52 O20
HTAB O2 O11_$5
HTAB O6 O3_$6
HTAB O10 O7
HTAB C17 O10
HTAB C18 O17_$7
HTAB C20 O12_$7
HTAB O21 O12_$8
HTAB O21 O1_$6

REM Highest difference peak  0.819,  deepest hole -0.269,  1-sigma level  0.072
Q1    1   1.2950  0.4221 -0.2075  11.00000  0.05    0.82
Q2    1   1.1121  0.1580  0.0266  11.00000  0.05    0.81
;
_shelx_res_checksum              47331
_shelx_hkl_file
;
   0   0  -2 1795.32 155.927  15
   0   0  -3 0.67265 92.0915  15
   0   0   3 15.6516 96.0217  14
   0   0  -4 130124. 1526.14  17
   0   0   4 149665. 1835.85  14
   0   0  -5-4.67777 208.248  18
   0   0   5-115.765 90.1362  14
   0   0  -5 86.3165 58.1372  17
   0   0   6 4013.97 919.186  12
   0   0   7 185.414 476.866  12
   0   0   8 159.644 516.859  12
   0   0   9-225.338 668.689  12
   0   0  10 392.167 635.790  12
   0   0  11 379.143 698.906  12
   0   0  12-720.026 610.135  11
   0   0  12-1837.24 1117.05  12
   0   0  12 903.085 476.314  24
   0   0  12-301.810 420.576  22
   0   0  13-416.922 425.535  22
   0   0  13-73.4292 335.190  24
   0   0  13 545.703 554.112  11
   0   0  14 616.373 437.115  24
   0   0  14 720.804 568.609  11
   0   0  14 903.064 467.815  22
   0   0  14 247.756 573.522  10
   0   0  15-878.457 655.156  10
   0   0  16-135.788 393.303  10
   0   0  17-1198.86 540.711  10
   0   1  -1 0.54896 48.4867  17
   0   1   1 18.3771 59.3426  15
   0   1  -2 535.606 89.9024  14
   0  -1  -2 872.414 158.365  17
   0   1   2 722.438 155.058  15
   0  -1  -3 39209.5 1001.86  17
   0   1   3 38316.7 1037.75  15
   0   1  -3 40541.4 1265.55  18
   0  -1  -4 23769.1 844.556  17
   0   1  -4 25501.7 1217.39  18
   0  -1  -5 58008.0 2236.58  18
   0   1   5 49349.4 1749.32  16
   0  -1  -5 49653.0 1264.19  17
   0   1  -5 58691.1 2077.21  18
   0  -1   5 55539.1 2989.57  12
   0   1   5 52934.1 1380.23  14
   0   1   6 810.402 374.351  12
   0  -1   6 876.994 552.388  12
   0  -1  -6 575.880 289.117   4
   0   1   7 11120.8 1688.63  12
   0  -1   7 14148.2 1847.92  12
   0  -1   8 40862.8 3442.26  12
   0   1   8 41521.9 3480.50  12
   0   1   9 4.38698 539.127  12
   0  -1   9-37.4033 662.421  12
   0   1  10 22334.3 3038.09  12
   0  -1  10 26749.7 3295.93  12
   0   1  11 2654.96 1328.36  12
   0   1  11 1149.74 1090.77   2
   0  -1  11 2041.94 1023.06  12
   0   1  12 2546.85 1262.50  12
   0   1  12 3806.55 773.521  24
   0  -1  12 3819.30 604.728  22
   0  -1  12 4318.92 1273.06  11
   0  -1  12 3045.89 735.679  24
   0   1  12 4019.74 1222.49  11
   0  -1  12 2087.93 1051.53  12
   0  -1  13 4418.09 701.863  22
   0  -1  13 5437.65 1463.66  11
   0   1  13 3845.00 763.039  24
   0  -1  13 3356.91 736.024  24
   0  -1  13 4618.25 1489.25  10
   0   1  13 2511.87 854.641  11
   0  -1  14 563.279 523.718  22
   0   1  14-58.8879 428.839  10
   0   1  14-238.848 449.921  11
   0   1  14 55.4130 293.659  24
   0  -1  14-582.553 581.100  10
   0   1  15 429.169 490.152  10
   0  -1  15-82.9169 386.139  10
   0   1  16 89.1391 340.703  10
   0  -1  16 196.503 336.788  10
   0  -1  17-479.267 350.802  10
   0   1  17-126.527 383.778  10
   0   2   0 634661. 4128.17  17
   0   2  -1 115621. 1795.69  17
   0   2   1 121333. 1901.03  17
   0   2  -2 61298.8 1100.75  18
   0   2  -2 63627.5 1285.62  17
   0   2   2 63712.5 1466.55  15
   0   2   3 256677. 3139.12  15
   0   2  -3 249055. 2025.80  14
   0   2  -3 234300. 2398.86  17
   0  -2  -3 255264. 3161.24  17
   0   2  -3 242196. 2896.64  18
   0  -2  -4 149584. 2561.13  17
   0   2   4 154301. 2615.27  15
   0   2  -4 145336. 2692.33  18
   0  -2   4 150426. 4303.49  12
   0  -2   5 27126.0 2092.29  12
   0  -2  -5 28835.1 1190.52  17
   0  -2  -5 31568.0 1728.37  18
   0   2  -5 26386.4 1335.56  18
   0   2   5 23087.7 1319.67  16
   0  -2  -6 1058.79 394.448   4
   0  -2   6 1542.89 680.592  12
   0   2  -6 1017.47 319.336  18
   0   2   6 570.604 230.880  16
   0   2   7 455.891 503.324  12
   0  -2   7 409.442 503.259  12
   0  -2  -7 148.655 269.206   4
   0  -2   8 350.331 639.644  12
   0   2   8-269.673 794.540  12
   0   2   9 382.736 751.778  12
   0  -2   9 234.955 549.464  12
   0  -2  10 165.514 593.103  12
   0   2  10 823.931 681.139  12
   0  -2  11-65.2286 325.381  24
   0   2  11-1004.31 857.500  12
   0  -2  11 189.409 612.112  12
   0   2  11 366.483 616.445   2
   0  -2  12 623.916 819.965  12
   0   2  12 356.524 667.947  12
   0  -2  12-39.0459 440.466  22
   0  -2  12 469.327 374.822  24
   0   2  12-614.131 404.385  24
   0   2  12-727.323 662.025  11
   0  -2  12-6.80039 626.697  10
   0   2  12 301.446 616.953   2
   0  -2  13 736.406 492.553  22
   0   2  13-375.573 520.103  11
   0  -2  13 167.527 486.077  10
   0   2  13 588.925 431.142  24
   0   2  14 962.000 665.942  11
   0   2  14 601.596 394.428  24
   0  -2  14 658.464 628.897  10
   0   2  15 284.902 502.915  10
   0  -2  15-169.892 525.551  10
   0   2  15 807.650 498.007  11
   0  -2  16 455.331 482.661  10
   0   2  16 601.321 397.449  10
   0  -2  17 2994.28 814.420  10
   0   2  17 4257.95 965.572  10
   0   3   0-54.0183 146.712  17
   0   3  -1 806.601 238.853  17
   0  -3   1 514.415 209.132  17
   0   3   1 744.406 242.060  17
   0  -3  -2 956.469 290.396  17
   0   3  -2 1280.64 287.790  17
   0   3   2 1391.65 300.630  15
   0  -3   3 8125.10 909.911  12
   0  -3   3 8735.04 487.959  19
   0   3   3 8417.94 679.157  15
   0  -3  -3 8041.17 684.861  17
   0   3  -3 8172.40 503.712  18
   0   3  -3 7708.40 576.295  17
   0   3   4 57431.7 1829.57  15
   0  -3  -4 59384.4 1895.57  17
   0   3  -4 53361.9 1080.21  14
   0  -3   4 55062.0 2626.24  12
   0   3  -4 53273.7 1542.90  18
   0   3  -4 49612.8 1324.64  17
   0   3  -5 4136.42 245.646  15
   0   3   5 6157.59 643.928  15
   0  -3   5 5847.12 1007.75  12
   0  -3  -5 6730.83 687.856  17
   0  -3  -5 5737.88 736.726   4
   0   3  -5 4707.58 351.013  17
   0   3  -5 5668.13 643.099  18
   0  -3  -6 9845.42 1040.39   4
   0  -3   6 10698.4 1515.30  12
   0   3   6 10132.5 992.337  16
   0   3  -6 10079.4 938.390  18
   0  -3   7 41458.8 3203.04  12
   0  -3  -7 39332.9 2204.06   4
   0   3   8 708.291 633.638  12
   0  -3   8 487.857 603.028  12
   0  -3   9 5893.21 1415.46  12
   0   3   9 3743.78 1272.79  12
   0  -3  10-529.007 725.854  12
   0   3  10 51.9998 586.971  12
   0  -3  11 14381.6 1123.97  22
   0   3  11 13432.5 2482.52   2
   0   3  11 17527.6 1564.98  24
   0  -3  11 17705.2 2888.84  12
   0  -3  11 17038.4 2592.72  10
   0  -3  11 13409.3 1402.25  24
   0   3  11 17007.7 2901.81  12
   0  -3  12 187.139 644.752  12
   0  -3  12 729.319 521.977  24
   0   3  12 871.718 772.991   2
   0  -3  12-688.568 592.088  22
   0   3  12 31.1805 398.108  24
   0  -3  12 111.387 474.871  10
   0   3  12-551.893 776.052  12
   0   3  13 193.340 317.876  24
   0  -3  13 48.1592 528.186  10
   0  -3  13 1751.66 600.752  22
   0   3  13 938.208 573.684  11
   0  -3  14-261.318 453.300  10
   0   3  14 65.5210 289.134  24
   0   3  15 267.032 387.021  11
   0   3  15 738.770 682.538  10
   0  -3  15 163.553 461.487  10
   0  -3  16-922.683 575.438  10
   0   3  16 520.732 505.090  10
   0   3  17 477.272 466.071  10
   0  -3  17-177.410 300.074  10
   0   4   1 24108.0 1195.21  17
   0  -4   1 22743.7 1154.75  17
   0   4  -1 22558.9 1159.85  17
   0  -4  -2 143764. 3013.44  17
   0   4  -2 140985. 2749.35  17
   0  -4   3 204.177 145.429  19
   0   4   3-27.6711 190.300  15
   0  -4   3 128.373 278.915  12
   0  -4  -3-137.179 203.328  17
   0   4  -3 12.0344 170.449  17
   0  -4  -4 6176.70 733.393  17
   0   4   4 4900.06 611.251  15
   0  -4   4 4173.47 801.509  12
   0  -4  -4 4877.57 668.411   4
   0   4  -4 4022.11 475.202  17
   0  -4  -5-203.237 316.607   4
   0  -4  -5 69.6717 233.923  17
   0   4   5 29.2917 197.969  15
   0   4  -5-59.1695 130.606  17
   0  -4   5-489.949 564.038  12
   0  -4  -6 6847.79 943.943   4
   0  -4   6 5491.15 1128.90  12
   0  -4   7 4914.67 1107.61  12
   0  -4  -7 4616.27 818.106   4
   0  -4   8-568.767 602.732  12
   0   4   8-1135.80 755.774  12
   0  -4  -8-549.562 379.854   4
   0  -4   9-957.459 754.270  12
   0   4   9-89.9946 494.528  12
   0   4  10-1833.39 1042.54  12
   0  -4  10 297.459 724.889  12
   0  -4  11 3647.11 1484.80  12
   0  -4  11 3863.97 695.700  22
   0   4  11 5179.54 1700.41   2
   0   4  11 8098.71 2125.21  12
   0  -4  11 5228.71 1364.23  10
   0  -4  11 4693.30 916.359  24
   0   4  11 5110.08 920.615  24
   0  -4  12 1484.39 522.200  22
   0  -4  12 1108.56 794.531  10
   0   4  12 567.856 385.929  24
   0  -4  12 529.727 889.744  12
   0   4  12 1716.45 1137.07  12
   0   4  12 433.716 888.779   2
   0   4  13 3323.05 1348.66   2
   0   4  13 5143.77 1399.68  11
   0  -4  13 1883.25 931.775  10
   0   4  13 2773.49 654.404  24
   0   4  14 255.076 279.376  24
   0   4  14 287.211 446.872  11
   0  -4  14-117.721 518.747  10
   0  -4  15 4145.20 1284.14  10
   0   4  15 5609.54 1300.24  11
   0  -4  16-186.883 534.586  10
   0   4  16 225.660 378.405  10
   0   4  16 751.229 530.702  11
   0  -4  17 976.760 541.238  10
   0   4  17 1086.58 496.340  10
   0   5   0-28.4591 220.666  17
   0   5   1-10.9293 268.013  17
   0   5  -1 53.9411 284.520  17
   0  -5   1 235.346 274.968  17
   0   5  -2 24798.5 1344.12  17
   0  -5   2 23838.0 1520.96  12
   0  -5  -2 26748.2 1477.08  17
   0  -5  -3 6156.97 703.771   4
   0   5  -3 5837.06 655.289  17
   0  -5   3 6658.83 912.048  12
   0  -5  -3 7214.75 809.545  17
   0  -5   3 6097.24 475.042  19
   0   5   3 7076.96 764.183  15
   0   5   4 43634.0 1953.97  15
   0  -5   4 39509.3 1244.30  19
   0  -5   4 38554.6 2353.92  12
   0   5  -4 38815.6 1636.21  17
   0  -5  -4 38419.3 1888.52   4
   0  -5  -5 19023.7 1429.42  17
   0  -5   5 19661.5 1879.30  12
   0   5   5 18209.9 1353.67  15
   0  -5  -5 21314.6 1542.36   4
   0  -5  -6 12095.7 1274.61   4
   0  -5   6 10714.1 1596.37  12
   0   5   7 1102.64 420.506  16
   0  -5  -7 1249.76 515.385   4
   0  -5   7 988.228 696.120  12
   0  -5  -8 11437.6 1403.45   4
   0  -5   8 10564.7 1881.60  12
   0  -5   9 2742.83 1184.94  12
   0   5   9-342.283 825.435  12
   0   5  10 66080.1 5449.61  12
   0  -5  10 59351.6 5041.86  12
   0   5  11 9013.93 2117.75  12
   0  -5  11 6510.91 1827.13  12
   0  -5  11 6422.08 1557.70  10
   0  -5  11 7877.41 962.457  22
   0   5  11 7681.39 1856.46   2
   0   5  11 7363.88 1057.56  24
   0   5  12 3004.86 1228.32   2
   0  -5  12 2454.04 676.262  22
   0  -5  12 3798.98 1499.99  12
   0   5  12 2770.91 693.094  24
   0  -5  12 963.908 698.997  10
   0   5  12 3578.48 1517.79  12
   0   5  13 3696.91 727.888  24
   0  -5  13 3597.90 1382.00  10
   0   5  13 3022.67 1348.15   2
   0  -5  14 602.654 639.638  10
   0   5  14 1047.24 860.581  11
   0   5  14-76.7574 281.430  24
   0   5  15 1417.60 719.881  11
   0  -5  15 1402.19 756.667  10
   0   5  16 2134.88 811.647  10
   0   5  16 1730.93 649.322  11
   0  -5  16 1183.14 639.562  10
   0   6   0 128675. 3304.32   1
   0  -6   0 130398. 2770.30   4
   0   6   0 127000. 3279.57  17
   0   6   1 81991.3 2684.89  17
   0  -6  -1 81986.6 2323.19   4
   0  -6   1 84942.1 2694.04  17
   0   6  -1 84562.4 2761.21   1
   0   6  -1 82859.5 2644.97  17
   0  -6  -2 204227. 3903.68   4
   0  -6   2 205127. 4813.52  12
   0   6  -2 199906. 4130.20  17
   0  -6  -3 24362.4 1590.81  17
   0  -6   3 20481.1 1685.13  12
   0  -6   3 21322.5 925.697  19
   0   6  -3 19371.9 1315.93  17
   0  -6  -3 21226.2 1379.55   4
   0   6   3 21853.1 1401.86  15
   0  -6  -4 38510.5 2106.25  17
   0   6  -4 34177.9 1677.35  17
   0  -6  -4 36084.4 1933.25   4
   0   6   4 37737.4 1993.16  15
   0  -6   4 32920.0 2282.62  12
   0  -6   4 35112.9 1243.68  19
   0  -6   5 529.163 444.393  12
   0  -6  -5 777.317 417.426   4
   0  -6  -5 589.207 334.274  17
   0   6   5 1010.83 367.897  15
   0  -6   6 2067.58 758.974  12
   0  -6  -6 2106.03 609.286   4
   0  -6   7 2938.54 988.832  12
   0  -6  -7 3897.84 813.075   4
   0  -6   8 1046.93 622.523  12
   0  -6  -8 2243.11 696.623   4
   0  -6  -9-29.0657 429.806   4
   0   6   9 1316.12 805.474  12
   0  -6   9 1528.82 941.736  12
   0   6  10 3907.60 1341.16  12
   0  -6  10 993.327 818.931  12
   0  -6  11 253.049 848.154  12
   0   6  11 28.0883 301.027  24
   0  -6  11 418.917 595.404  10
   0  -6  11 738.313 604.346  22
   0   6  11 64.4283 468.175   2
   0   6  11 96.8778 1071.92  12
   0   6  12-172.055 1061.82  12
   0   6  12-22.4084 455.403   2
   0   6  12 188.846 318.563  24
   0  -6  12-707.393 841.735  12
   0  -6  12 292.824 439.130  10
   0   6  13 558.396 720.739   2
   0   6  13 468.195 327.286  24
   0  -6  13 1194.49 837.880  10
   0  -6  14 1083.35 762.269  10
   0   6  14 1283.08 830.361  11
   0  -6  15 595.481 487.207  10
   0   6  15-562.332 485.348  11
   0   6  16 2538.13 763.611  11
   0  -6  16 1746.22 727.346  10
   0   6  16 1864.69 743.176  10
   0   7   0-97.7935 243.753  17
   0  -7   0 103.014 261.025   4
   0   7   0-512.599 326.855   1
   0   7   1 173.850 245.728   1
   0  -7  -1 133.021 215.922   4
   0  -7   1-49.9913 210.392   4
   0  -7  -1 105.582 264.372  17
   0  -7   1 66.8644 47.5322  18
   0   7  -1 159.213 275.742   1
   0  -7   1 360.349 315.311  17
   0   7   1 98.5019 273.513  17
   0   7  -1 138.188 260.114  17
   0  -7  -2 9810.55 1090.20  17
   0   7  -2 9407.01 1004.33  17
   0  -7  -2 9344.21 927.600   4
   0   7  -2 9005.34 1066.25   1
   0  -7   2 9146.02 1148.63  12
   0   7   2 10301.0 1122.63   1
   0  -7  -3 34175.2 2044.89  17
   0  -7   3 31953.9 1214.98  19
   0   7  -3 31086.9 1797.93  17
   0  -7  -3 30066.5 1744.48   4
   0   7   3 30918.9 1794.09  15
   0  -7   3 29353.9 2075.97  12
   0  -7  -4 11192.2 1146.11   4
   0   7   4 11689.9 1172.51  15
   0   7  -4 9671.64 1013.38  17
   0  -7   4 10622.2 746.054  19
   0  -7   4 9824.17 1347.07  12
   0  -7   5 1329.38 608.171  12
   0  -7  -5 1750.07 546.815   4
   0  -7  -6 68916.2 3186.07   4
   0  -7   6 61744.3 3818.54  12
   0  -7  -7 18526.9 1787.91   4
   0  -7   7 19022.8 2325.67  12
   0  -7  -8 3463.27 894.746   4
   0  -7   8 2786.27 997.604  12
   0  -7  -9-138.984 322.530   4
   0   7   9 22.9120 593.099  12
   0  -7   9 600.697 687.212  12
   0  -7  10 27742.7 3582.55  12
   0  -7  10 27778.1 1698.93  22
   0   7  10 29209.2 3811.04  12
   0  -7  10 27598.7 3227.28  10
   0   7  10 33498.9 3831.13   2
   0  -7  11 13026.8 2367.42  10
   0   7  11 13073.5 2602.54   2
   0  -7  11 13694.2 2641.77  12
   0   7  11 14937.6 1531.41  24
   0   7  11 13463.8 2757.53  12
   0   7  11 13057.5 1981.45   7
   0   7  12 1222.44 1004.21   2
   0   7  12 2214.66 620.499  24
   0  -7  12 1365.43 971.599  10
   0   7  13 3126.36 1368.79   2
   0   7  13 3878.44 750.428  24
   0  -7  13 6662.04 1765.80  10
   0  -7  14 982.852 809.579  10
   0   7  14 802.282 726.990  11
   0   7  14 358.417 612.745   2
   0  -7  15-114.741 469.058  10
   0   7  15-734.152 532.325  11
   0   7  16 544.884 326.868  11
   0   7  16 681.991 489.299  10
   0  -7  16-61.9379 324.800  10
   0   8   0 266416. 5672.26   1
   0  -8   0 282312. 5813.21  17
   0   8   0 278474. 5752.06  17
   0  -8   0 272481. 4724.05   4
   0  -8  -1 5493.76 736.922   4
   0  -8   1 5175.63 673.411   4
   0   8   1 5368.42 812.752   1
   0   8  -1 5947.09 850.403  17
   0   8  -1 6174.06 904.104   1
   0  -8   1 6385.12 907.237  17
   0   8   2 1768.84 468.952  15
   0   8  -2 676.953 397.102  17
   0   8   2 669.053 410.922   1
   0  -8   2 2355.95 703.573  12
   0   8  -2 1179.74 467.894   1
   0  -8  -2 915.016 361.898   4
   0  -8   3 79469.3 2009.82  19
   0  -8   3 76122.1 3486.38  12
   0   8  -3 79553.6 3109.71  17
   0  -8  -3 81964.8 2982.46   4
   0  -8   4 656.275 277.052  19
   0   8  -4 353.355 261.751  17
   0  -8   4 459.496 374.403  12
   0  -8  -4 443.308 347.668   4
   0  -8   5 22315.3 2188.86  12
   0  -8  -5 25051.7 1940.34   4
   0  -8   5 22118.6 1165.68  19
   0  -8   6 35685.2 3003.94  12
   0  -8  -6 41887.3 2610.10   4
   0  -8  -7 12213.3 1549.05   4
   0  -8   7 12091.8 1940.61  12
   0  -8  -8-210.007 365.716   4
   0   8   8 222.547 345.986  16
   0  -8   8 761.996 593.371  12
   0  -8   9 845.412 851.576  12
   0   8   9-286.370 649.095  12
   0  -8  -9 249.116 391.652   4
   0  -8  10-220.562 715.725  12
   0   8  10 90.8611 380.506  24
   0   8  10 460.181 577.516  12
   0  -8  10 1419.01 788.786  10
   0   8  10-1181.61 727.197   7
   0  -8  11 322.507 558.778  10
   0  -8  11-182.937 652.117  12
   0   8  11 66.6065 335.770  24
   0   8  11-187.314 595.088   2
   0   8  11 112.393 670.334  12
   0   8  11-1112.46 698.698   7
   0   8  12 253.542 286.737  24
   0  -8  12 190.124 541.078  10
   0   8  12 1238.96 832.139   2
   0   8  12 254.905 427.181   7
   0   8  13 711.098 867.182   2
   0  -8  13 365.266 714.875  10
   0  -8  14-694.711 655.841  10
   0   8  14-54.6164 632.906   2
   0   8  15 2774.10 971.050  11
   0  -8  15 1917.83 894.107  10
   0   8  16 264.887 327.056  10
   0  -8  16-117.579 451.324  10
   0   8  16 219.891 329.085  11
   0   9   0-43.3801 296.331   1
   0  -9   0-37.3507 283.346   4
   0  -9  -1 4200.51 681.657   4
   0  -9   1 2662.66 542.132   4
   0   9  -1 3175.97 747.232   1
   0   9   1 3956.64 800.613   1
   0   9   2 1441.65 546.233   1
   0   9  -2 1035.27 480.202   1
   0  -9  -2 739.282 385.989   4
   0  -9   3 31411.5 2384.42  12
   0   9  -3 34056.3 2228.92  17
   0  -9   3 34642.0 1441.47  19
   0   9  -3 35796.2 2483.72   1
   0  -9  -3 35848.3 2121.54   4
   0  -9   4 1750.63 703.634  12
   0  -9  -4 2788.12 707.121   4
   0  -9   4 2136.83 406.850  19
   0  -9   5 28119.2 1382.07  19
   0  -9   5 27087.2 2495.18  12
   0  -9   6 4629.32 1180.28  12
   0  -9  -6 5593.25 1071.47   4
   0  -9   7 1683.89 661.068  12
   0  -9  -7 3011.20 835.703   4
   0   9   8 13428.5 1787.47  16
   0  -9  -8 11495.8 1634.24   4
   0  -9   8 11372.5 2010.49  12
   0  -9   9 205.984 584.761  12
   0  -9  -9-782.211 526.357   4
   0  -9  10 4888.89 1376.86  10
   0  -9 -10 4358.78 1072.26   4
   0   9  10 5524.00 1672.00   2
   0   9  10 3451.90 1087.27   7
   0   9  10 2224.14 1155.90  12
   0   9  10 3872.00 859.009  24
   0  -9  10 4530.86 1489.91  12
   0  -9  11 5156.17 1601.58  12
   0   9  11 3818.70 1036.83   7
   0   9  11 3828.02 781.681  24
   0  -9  11 3013.75 1151.81  10
   0   9  11 2616.18 1299.41  12
   0   9  11 4909.50 1612.45   2
   0   9  12 206.639 523.763   7
   0   9  12 758.337 343.269  24
   0  -9  12 1310.53 928.386  10
   0   9  12-1072.96 893.502   2
   0  -9  13-183.056 593.729  10
   0   9  13 934.613 779.464   2
   0   9  14 794.396 840.262   2
   0  -9  14 134.869 530.507  10
   0   9  15 619.119 516.526  11
   0  -9  15 174.941 396.110  10
   0  -9  16 1042.19 514.748  10
   0   9  16 665.456 327.354  10
   0   9  16 1001.22 499.345  11
   0  10   0 642204. 9840.23   1
   0 -10   0 637069. 8310.18   4
   0 -10  -1 1098.15 533.952   4
   0  10  -1 569.811 452.591   1
   0  10   1 620.132 445.566   1
   0 -10   1 529.891 293.183   4
   0  10  -2 48578.6 2858.80   1
   0 -10  -2 43626.8 2366.19   4
   0  10   2 43531.1 2734.09   1
   0 -10   3 97.7735 225.526  19
   0 -10  -3 623.561 471.626   4
   0  10  -3-176.265 358.557   1
   0 -10   4 3249.80 519.577  19
   0  10  -4 3726.74 990.510   1
   0 -10   4 3066.88 907.386  12
   0 -10  -4 3158.53 759.940   4
   0 -10  -5 31737.7 2382.48   4
   0 -10   5 26445.6 2551.44  12
   0 -10   5 28369.8 1468.36  19
   0 -10   6 3109.46 989.744  12
   0 -10  -6 3236.62 814.632   4
   0 -10  -7-95.7351 486.977   4
   0 -10   7 1735.65 822.924  12
   0  10   8 3566.79 945.717  16
   0 -10   8 3984.13 1287.76  12
   0 -10  -8 3569.64 1018.25   4
   0  10   9 1105.68 692.809   7
   0 -10  -9 185.132 467.792   4
   0  10   9 61.3963 431.843   3
   0 -10   9 327.067 442.701  10
   0 -10   9-81.2783 728.974  12
   0 -10  10-187.043 695.350  10
   0  10  10 614.416 709.136   2
   0  10  10 335.834 435.956  24
   0 -10 -10 576.907 514.290   4
   0 -10  10-699.944 778.686  12
   0  10  10 537.825 599.251   7
   0  10  11-106.022 545.864   2
   0  10  11 465.279 369.361  24
   0  10  11 433.837 419.069   7
   0  10  12 779.286 807.691   2
   0  10  12-636.430 546.386   7
   0 -10  12 344.819 714.960  10
   0 -10  13-1145.86 773.519  10
   0  10  13 1533.70 1052.58   2
   0 -10  14-238.433 709.881  10
   0  10  14 205.534 468.883   2
   0  10  15 89.0185 328.897  11
   0 -10  15-224.235 430.155  10
   0  10  16 942.773 500.384  10
   0  11   0 514.720 458.794   1
   0 -11   0-184.731 359.910   4
   0  11  -1 1079.73 829.237   1
   0 -11  -1 337.718 346.716   4
   0 -11   1 1329.04 448.393   4
   0  11   1 191.124 339.558   1
   0 -11  -2 4418.61 833.448   4
   0  11   2 5365.84 1061.38   1
   0  11  -2 4683.58 993.129   1
   0 -11  -3 636.007 495.772   4
   0  11  -3 933.655 528.018   1
   0 -11   3 1379.56 376.076  19
   0 -11   4 21016.8 1302.27  19
   0  11  -4 21472.2 2214.30   1
   0 -11  -4 25285.1 2066.10   4
   0  11  -5 4904.37 1226.11   1
   0 -11  -5 5035.05 1029.61   4
   0 -11   5 4049.14 612.931  19
   0 -11   5 3772.50 1056.35  12
   0 -11  -6 310.618 394.119   4
   0 -11   6 669.125 533.371  12
   0  11  -6 368.601 429.359   1
   0 -11   7 15574.7 2333.62  12
   0 -11  -7 21276.6 2281.42   4
   0  11   8 15179.4 2011.15  16
   0 -11  -8 14414.5 1947.64   4
   0 -11   8 12174.3 2143.73  12
   0 -11   9 6228.87 1650.55  10
   0 -11   9 5589.58 1642.94  12
   0 -11  -9 5723.19 921.437  21
   0 -11  -9 5424.54 1255.52   4
   0  11   9 6385.56 1466.48   7
   0  11   9 5261.88 1470.45   3
   0  11  10 8444.54 2031.91  12
   0 -11 -10 8501.16 1537.23   4
   0  11  10 10488.1 1277.95  24
   0  11  10 9387.60 1767.44   7
   0  11  10 10751.2 2334.81   2
   0 -11  10 7696.22 1834.18  10
   0  11  11 434.679 502.081   7
   0  11  11-972.395 809.777   2
   0 -11  11 244.796 565.664  10
   0  11  11 71.5629 291.463  24
   0  11  12 492.573 536.315   7
   0 -11  12-488.084 562.487  10
   0  11  12-1154.36 891.692   2
   0  11  13 4245.56 1484.77   2
   0 -11  13 5485.07 1504.54  10
   0  11  14 633.144 673.844   2
   0 -11  14 440.580 511.113  10
   0  11  15 989.667 610.657  11
   0 -11  15 928.373 517.832  10
   0 -12   0 85426.4 3423.36   4
   0  12   0 90121.5 4177.13   1
   0 -12  -1 10747.6 1334.60   4
   0  12  -1 10912.8 1464.63   1
   0  12   1 13311.8 1653.02   1
   0 -12  -2 53042.7 2872.36   4
   0  12  -2 55476.5 3425.46   1
   0  12   2 57220.6 3487.09   1
   0  12  -3 45336.2 3160.20   1
   0 -12  -3 42726.8 2681.84   4
   0 -12   3 41176.0 1858.32  19
   0 -12   4 6019.92 744.481  19
   0  12  -4 5454.59 1198.76   1
   0 -12  -4 6753.37 1142.86   4
   0 -12   5 1575.06 420.843  19
   0  12  -5 1449.30 715.814   1
   0 -12  -5 1857.43 570.224   4
   0 -12  -6 11102.2 1638.98   4
   0  12  -6 10850.9 1805.05   1
   0  12  -7 1666.42 853.741   1
   0 -12  -7 1686.66 818.672   4
   0  12   8 139.267 438.899   3
   0  12  -8 1341.79 821.173   1
   0  12   8 1499.83 773.220   7
   0 -12   8 772.484 682.619  10
   0 -12  -8 932.731 431.010  21
   0 -12  -8 297.406 421.893   4
   0  12   8 380.087 395.952  16
   0  12   9 434.861 547.660   7
   0  12   9-312.925 735.501   3
   0 -12  -9 561.665 374.875  21
   0 -12  -9 1124.73 573.794   4
   0  12  -9 609.778 829.391   1
   0 -12   9 534.846 573.690  10
   0 -12  10-256.282 736.565  10
   0  12  10 5.32197 596.965   7
   0  12  10-752.365 791.440   2
   0  12  10 63.7131 330.289  24
   0  12  11-330.117 631.980   7
   0  12  11-740.705 807.075   2
   0 -12  11-754.533 739.545  10
   0 -12  12 1051.56 781.044  10
   0  12  12 189.018 751.572   2
   0 -12  13 1321.66 838.576  10
   0  12  13-58.9210 482.915   2
   0  12  14 1748.61 888.227   2
   0 -12  14 1268.06 770.261  10
   0  12  15 1649.64 652.850  11
   0 -12  15 1843.12 758.998  10
   0 -13   0-17.8660 254.323   4
   0  13   0-31.5256 373.409   1
   0 -13  -1 296.913 323.703   4
   0  13   1 319.009 419.347   1
   0  13  -1 906.806 556.913   1
   0  13  -2 33.3427 372.966   1
   0 -13  -2 414.771 452.141   4
   0  13   2-117.747 439.477   1
   0  13  -3 19868.0 2230.42   1
   0 -13   3 18194.8 1307.87  19
   0 -13  -3 17844.0 1819.25   4
   0 -13  -4 706.154 479.654   4
   0 -13   4 385.482 264.508  19
   0  13  -4 198.492 478.715   1
   0 -13   5 6132.21 803.589  19
   0 -13  -5 8218.47 1377.84   4
   0  13  -5 5587.81 1291.74   1
   0 -13  -6 30271.1 2689.30   4
   0  13  -6 24667.2 2741.15   1
   0 -13   7 18072.1 2630.76  10
   0  13  -7 18825.6 2476.93   1
   0  13   7 17685.0 2532.28   3
   0  13   7 19615.3 2389.30   7
   0 -13  -7 22318.8 2397.77   4
   0  13  -8-380.344 498.883   1
   0 -13  -8 348.589 577.123   4
   0 -13   8-817.927 722.149  10
   0 -13  -8 587.629 387.720  21
   0  13   8-58.6768 481.434   3
   0  13   8 315.985 485.006   7
   0 -13  -9 1303.52 731.139   4
   0  13   9 744.127 596.123   3
   0 -13  -9 1163.03 399.851  21
   0 -13   9 139.036 481.166  10
   0  13   9 670.046 550.377   7
   0  13  10 435.775 545.283   3
   0 -13  10 694.753 544.819  10
   0  13  10 153.585 357.610  24
   0  13  10 1063.14 713.768   7
   0 -13 -10 1212.36 536.514  21
   0  13  10 296.161 598.640   2
   0  13  11 6273.27 1465.79   7
   0 -13  11 7149.74 1776.55  10
   0  13  11 6978.79 1975.52   2
   0 -13  12 7172.30 1749.91  10
   0  13  12 8488.66 2071.02   2
   0  13  13 1964.49 1043.37   2
   0 -13  13 2307.20 982.724  10
   0 -13  14-77.2772 376.381  10
   0  13  14-27.3067 386.420   2
   0  13  15 890.763 439.052  11
   0 -13  15 832.062 428.461  10
   0 -14   0 11381.0 1386.64   4
   0  14   0 12487.0 1753.91   1
   0  14  -1 19829.6 2222.73   1
   0 -14  -1 17630.5 1803.58   4
   0  14   1 22828.5 2354.03   1
   0  14  -2 2881.63 898.517   1
   0 -14  -2 1641.14 629.964   4
   0 -14   3 27163.9 1640.96  19
   0 -14  -3 24639.1 2243.16   4
   0  14  -3 30512.8 2872.94   1
   0 -14  -4 517.487 531.211   4
   0  14  -4 840.713 614.470   1
   0 -14   4-17.8079 270.150  19
   0  14  -5 1666.19 796.064   1
   0 -14  -5 2446.32 876.499   4
   0 -14   5 2106.72 477.269  19
   0 -14   6-60.2424 539.419  10
   0  14  -6 203.015 486.326   1
   0 -14  -6-169.657 554.461   4
   0 -14  -7 2149.17 637.905  21
   0 -14   7 1610.42 883.857  10
   0  14   7 2396.65 948.053   3
   0 -14  -7 1719.14 826.131   4
   0  14   7 1748.96 896.917   7
   0  14  -7 984.545 870.000   1
   0  14  -8-1492.92 826.412   1
   0 -14  -8 107.060 283.409  21
   0 -14   8-585.853 653.975  10
   0 -14  -8 825.877 600.047   4
   0  14   8-1314.89 827.946   3
   0  14   8 756.825 648.819  16
   0  14   8-1883.67 838.196   7
   0  14   9 52.8709 410.234   3
   0 -14  -9 71.5705 262.559  21
   0  14   9-631.258 629.578   7
   0  14  10 158.299 737.762   2
   0 -14 -10 610.449 487.177  21
   0 -14  10 655.445 687.062  10
   0  14  10-690.800 406.878  24
   0  14  10 514.695 589.516   7
   0  14  10-274.672 535.049   3
   0  14  11 444.516 503.341   2
   0 -14  11-233.113 724.209  10
   0  14  12 1094.84 920.009   2
   0 -14  12 1207.00 681.832  10
   0 -14  13 387.695 621.440  10
   0  14  13-622.055 590.852   2
   0  14  14 1206.28 774.402   2
   0 -14  14-179.010 447.509  10
   0  15   0 78.7751 428.472   1
   0  15  -1 796.991 550.848   1
   0  15   1 706.244 655.431   1
   0 -15  -1-290.097 454.597   4
   0  15  -2 6171.39 1328.55   1
   0 -15  -2 5182.41 1094.56   4
   0  15  -3 4897.85 1214.42   1
   0 -15   3 6596.65 885.000  19
   0 -15  -3 5842.26 1177.68   4
   0 -15  -4-201.290 384.998   4
   0 -15   4-466.103 315.172  19
   0  15  -4-129.848 500.924   1
   0  15   5 4569.22 1263.00   3
   0 -15  -5 6014.30 1260.48   4
   0  15  -5 5494.20 1367.22   1
   0 -15   5 4736.09 1495.65  10
   0  15   6-1923.07 820.595   7
   0  15  -6-1548.42 828.802   1
   0  15   6 368.956 661.006   3
   0 -15   6 957.139 844.907  10
   0 -15  -6 27.0022 496.566   4
   0  15  -7 2164.71 962.761   1
   0 -15   7 1056.46 795.435  10
   0 -15  -7 760.990 700.431   4
   0  15   7 92.8428 796.582   7
   0  15   7 269.189 508.919   3
   0 -15  -7 258.361 301.851  21
   0  15   8 3653.57 1175.49  16
   0 -15   8 3798.00 1397.11  10
   0  15   8 2401.78 955.004   3
   0 -15  -8 3370.79 1028.99   4
   0 -15  -8 2695.55 749.903  21
   0  15   8 3281.08 1056.20   7
   0 -15   9 1055.67 785.523  10
   0 -15  -9-306.257 351.347  21
   0  15   9 1338.98 799.883   3
   0  15   9 511.634 613.778   7
   0 -15  10 14155.2 2483.20  10
   0  15  10 14312.7 2135.64   7
   0  15  10 11903.5 2171.97   3
   0  15  10 12691.0 2631.79   2
   0 -15 -10 13031.1 1411.58  21
   0 -15  11 541.671 535.878  10
   0  15  11 1910.73 1011.92   2
   0  15  12 3461.57 1294.08   2
   0 -15  12 4126.74 1259.90  10
   0  15  13 579.677 614.422   2
   0 -15  13 140.643 333.025  10
   0  15  14 831.661 576.979   2
   0 -15  14 632.881 436.530  10
   0  16   0 11503.4 1842.53   1
   0  16   1 5455.17 1349.27   1
   0  16  -1 5619.83 1333.78   1
   0 -16  -2 29360.7 2569.63   4
   0  16  -2 31921.2 3078.61   1
   0  16  -3 1406.68 724.683   1
   0 -16   3 2240.99 548.506  19
   0 -16  -3 1758.87 720.119   4
   0 -16   4 1044.61 370.787  19
   0  16  -4 1417.61 717.874   1
   0 -16   4 875.494 683.966  10
   0 -16  -4 1427.58 650.997   4
   0  16   4 867.986 755.652   3
   0  16  -5 1583.98 660.744   1
   0 -16  -5 1546.07 784.008   4
   0 -16   5 1408.48 826.465  10
   0  16   5-328.720 531.112   7
   0  16   5 1243.82 719.728   3
   0  16  -6 1562.15 854.940   1
   0 -16  -6 1627.68 840.113   4
   0 -16   6 2053.25 1039.35  10
   0  16   6 1479.77 902.138   3
   0  16   6 2174.73 911.541   7
   0 -16  -7-108.923 406.256  21
   0  16   7 243.314 517.330   3
   0  16   7 1075.97 638.058   7
   0 -16  -7-35.5072 662.065   4
   0 -16   7-375.875 568.080  10
   0  16   8 702.191 639.187   3
   0 -16  -8 729.766 434.399  21
   0  16   8 1290.85 856.285   7
   0 -16   8 1808.81 1058.27  10
   0  16   9 837.782 717.434   7
   0 -16   9 2616.09 1208.41  10
   0 -16  -9 795.460 426.033  21
   0  16   9 1290.70 1041.57   3
   0 -16  10 1763.94 988.624  10
   0  16  10 2653.57 1242.67   2
   0 -16 -10 1786.97 599.600  21
   0 -16  11 305.406 405.799  10
   0  16  11 1467.35 973.746   2
   0 -16  12-319.617 484.117  10
   0  16  12-174.535 467.915   2
   0  16  13 432.110 536.291   2
   0 -16  13-691.061 512.678  10
   0  17   0 144.664 628.279   1
   0  17   0 226.757 464.313   3
   0  17  -1 982.486 700.502   1
   0 -17   1 1172.06 777.938  10
   0  17   1-9.32493 530.923   3
   0  17   2 5.48522 610.689   3
   0 -17   2 694.075 759.319  10
   0 -17   2 802.061 449.048  19
   0 -17   3 304.618 397.656  10
   0  17   3 530.180 745.078   3
   0 -17  -3 590.229 614.135   4
   0  17  -3 896.848 557.253   1
   0 -17   3 1157.79 451.009  19
   0 -17  -4 875.170 602.043   4
   0  17   4 382.303 570.971   3
   0  17  -4 721.104 635.368   1
   0 -17   4 1077.44 839.704  10
   0  17  -5-1491.07 833.132   1
   0 -17  -5-304.021 650.927   4
   0 -17   5 1428.10 1113.58  10
   0  17   5-194.250 416.100   7
   0  17   5 414.950 443.967   3
   0 -17  -6 4586.10 908.444  21
   0  17   6 4529.96 1400.84   3
   0  17   6 3540.26 1070.26   7
   0 -17   6 4225.46 1414.91  10
   0 -17  -6 3709.72 1105.20   4
   0  17   7 4144.75 1167.20   7
   0  17   7 6231.93 1600.79   3
   0 -17   7 3590.57 1346.98  10
   0 -17  -7 4849.56 913.910  21
   0  17   8 6442.19 1469.30   7
   0 -17  -8 5902.14 1012.97  21
   0 -17   8 7507.08 1780.13  10
   0  17   8 6989.99 1670.99   3
   0 -17   9 870.435 816.490  10
   0 -17  -9 399.695 275.821  21
   0  17   9 1003.44 708.488   3
   0 -17 -10 3382.42 707.184  21
   0  17  10 4030.10 1430.27   2
   0 -17  10 2228.88 1006.07  10
   0 -17  11-27.7440 389.174  10
   0  17  11 675.402 556.567   2
   0  17  12 109.843 393.631   2
   0 -17  12 375.911 494.455  10
   0  17  13 158.860 400.426   2
   0 -17  13 618.211 444.480  10
   0  18   0 7612.54 1670.89   1
   0  18   0 6342.76 1448.25   3
   0 -18   1 48046.6 4447.48  10
   0  18   1 46353.2 3938.16   3
   0  18  -1 44727.3 3852.72   3
   0  18  -1 56705.9 4363.33   1
   0  18  -2 18118.1 2500.39   1
   0  18   2 20499.6 2642.78   3
   0 -18   2 22367.3 3058.21  10
   0 -18   2 19887.9 1631.88  19
   0  18   3 9657.81 1895.71   3
   0  18  -3 14121.0 2282.61   1
   0 -18   3 12941.1 2365.97  10
   0  18  -4-657.046 639.496   1
   0  18   4-215.637 476.563   3
   0 -18   4 22.4832 603.106  10
   0 -18   5 3207.58 1184.92  10
   0  18   5 4141.57 1366.02   3
   0 -18  -6 619.387 372.383  21
   0 -18   6 953.783 835.044  10
   0  18   6 536.364 406.201   3
   0 -18   7 585.053 672.692  10
   0  18   7 165.220 518.771   3
   0 -18  -7 724.515 464.136  21
   0 -18  -8 496.244 396.466  21
   0  18   8-63.7649 531.986   3
   0 -18   8 699.383 677.450  10
   0 -18  -9 536.875 330.896  21
   0  18   9-99.0760 409.535   3
   0 -18   9-229.990 555.893  10
   0 -18  10 520.893 616.207  10
   0  18  10 540.253 525.990   2
   0 -18 -10-91.0929 336.644  21
   0 -18  11-111.643 420.214  10
   0  18  11 148.174 596.382   2
   0  18  12 84.9397 312.875   2
   0 -18  12 106.272 423.710  10
   0  19   0 135.775 447.205   3
   0  19  -1 950.048 686.943   1
   0  19  -1 494.629 459.683   3
   0  19   1 89.2071 652.517   3
   0 -19   2 5761.20 1565.84  10
   0  19   2 6576.20 1628.95   3
   0  19  -2 6259.25 1612.49   3
   0  19  -2 7224.50 1691.08   1
   0  19   3 1703.47 985.725   3
   0 -19   3 1548.80 817.782  10
   0 -19   4 1268.81 814.934  10
   0  19   4 1961.58 1030.55   3
   0 -19   5 4546.41 1446.69  10
   0  19   5 3006.72 1140.08   3
   0 -19  -6 657.857 448.490  21
   0 -19   6 175.898 595.220  10
   0  19   7 3772.75 1208.21   3
   0 -19   7 5514.28 1480.03  10
   0 -19  -7 4607.28 887.590  21
   0 -19  -8 3150.68 761.528  21
   0 -19   8 1440.04 848.182  10
   0  19   8 2780.28 1046.58   3
   0  19   9 1424.07 820.721   3
   0 -19  -9-47.4083 286.797  21
   0  19   9 824.503 751.380   2
   0 -19   9 946.534 657.176  10
   0  19  10-215.188 490.336   2
   0 -19  10-51.8547 358.021  10
   0  19  11 1118.88 645.677   2
   0 -19  11 73.6342 353.199  10
   0  19  12 1301.36 614.904   2
   0 -19  12 1110.20 469.873  10
   0  20   0 79206.1 5272.50   3
   0  20  -1 33282.7 3406.76   3
   0  20   1 36900.6 3601.09   3
   0  20  -2 748.175 830.840   3
   0  20   2 362.437 518.616   3
   0  20  -3 815.779 605.644   3
   0  20   3 793.216 603.277   3
   0 -20   3-754.034 673.711  10
   0 -20   4 2470.51 1148.19  10
   0  20   4 2806.86 1158.28   3
   0 -20  -5 6297.84 1059.03  21
   0  20   5 5364.17 1461.69   3
   0 -20   5 6474.39 1639.65  10
   0 -20   6 663.160 505.344  10
   0  20   6 567.399 640.905   3
   0 -20  -6 45.9308 304.047  21
   0 -20   7 792.593 438.921  10
   0 -20  -7 1411.24 520.995  21
   0  20   7 1791.45 961.041   3
   0 -20  -8 776.542 400.222  21
   0 -20   8-413.465 621.088  10
   0  20   8 177.818 409.754   3
   0 -20  -9 121.402 267.965  21
   0  20   9-380.388 469.256   3
   0 -20   9-686.827 583.788  10
   0  20   9-35.3277 416.177   2
   0 -20  10-869.952 561.053  10
   0  20  10 178.209 396.184   2
   0  20  11-529.346 419.758   2
   0 -20  11-577.761 425.966  10
   0  21   0 698.645 487.468   3
   0  21  -1 871.382 708.825   3
   0  21   1 640.973 556.523   3
   0  21   2 2043.81 925.547   3
   0  21  -2 2236.24 982.102   3
   0  21   3-531.048 569.664   3
   0  21  -3 208.538 445.781   3
   0 -21  -4 854.625 478.408  21
   0 -21   4 2646.20 1064.84  10
   0  21   4 774.347 629.526   3
   0  21  -4 1544.94 712.921   3
   0  21   5 373.171 634.446   3
   0  21  -5 399.635 535.596   3
   0 -21   5-591.067 599.000  10
   0 -21  -5-78.6925 275.195  21
   0 -21  -6 1026.07 429.743  21
   0  21   6 1151.62 760.440   3
   0 -21   6 1508.62 832.275  10
   0 -21  -7 96.2394 276.655  21
   0 -21   7-1108.22 685.702  10
   0  21   7-369.701 452.828   3
   0  21   8 7168.15 1432.56   3
   0 -21   8 7986.61 1505.58   8
   0 -21  -8 6858.29 941.702  21
   0 -21   8 6382.46 1397.20  10
   0 -21  -9 282.010 266.716  21
   0  21   9 840.701 494.273   2
   0 -21   9-163.498 394.033  10
   0 -21  10 803.779 499.448  10
   0  21  10-820.256 499.479   2
   0  22   0 41701.0 3713.14   3
   0  22   1 4194.08 1233.15   3
   0  22  -1 6490.73 1438.15   3
   0  22  -2 1713.35 855.426   3
   0  22   2 2228.75 915.155   3
   0 -22  -3 1466.77 535.026  21
   0  22  -3 2353.11 828.018   3
   0  22   3 1625.89 796.950   3
   0 -22  -4 794.913 440.925  21
   0  22  -4 1240.23 757.842   3
   0  22   4 484.188 521.269   3
   0  22   5 3487.47 1060.81   3
   0 -22   5 4934.78 1321.16  10
   0  22  -5 4105.14 1021.43   3
   0 -22  -5 4241.91 825.730  21
   0  22  -6 510.252 420.971   3
   0 -22   6 1521.89 850.898  10
   0 -22  -6 613.055 331.293  21
   0  22   6 1123.47 707.402   3
   0  22  -7 214.004 329.833   3
   0 -22   7 23.2290 372.472  10
   0  22   7 397.242 444.808   3
   0 -22  -7 321.025 334.891  21
   0 -22   8 1387.97 635.392   8
   0 -22   8 745.067 645.186  10
   0  22   8 1164.76 626.282   2
   0 -22  -8 853.946 361.095  21
   0  22   8 497.343 444.667   3
   0  22   9 1787.51 792.170   2
   0 -22   9 1000.28 491.752  10
   0  23   0-224.562 432.646   3
   0  23  -1 201.058 388.513   3
   0 -23  -1-117.620 302.388  21
   0 -23  -2-144.623 339.742  21
   0  23   2-237.803 463.340   3
   0  23  -2 500.760 653.653   3
   0 -23  -3 321.537 334.391  21
   0  23   3 939.646 538.373   3
   0  23  -3-432.794 455.253   3
   0  23  -4 372.758 422.297   3
   0  23   4-840.578 593.524   3
   0 -23  -4-92.6724 279.974  21
   0 -23  -5 3209.49 642.533  21
   0  23  -5 3564.45 922.087   3
   0  23   5 3486.65 1043.52   3
   0 -23  -6-396.425 309.194  21
   0  23   6 476.536 320.695   3
   0  23  -6 233.270 396.131   3
   0 -23  -7 928.222 362.355  21
   0 -23   7 1913.40 764.375   8
   0  23   7 1557.76 631.690   3
   0  23   8 549.684 446.614   2
   0 -23  -8 39.1756 183.699  21
   0  24   0 3566.46 1027.59   3
   0 -24  -1 704.439 391.732  21
   0  24  -1 588.541 497.818   3
   0  24   1 1595.30 737.182   3
   0  24  -2 850.465 609.982   3
   0 -24  -2 224.875 243.153  21
   0  24  -3 3884.23 968.193   3
   0 -24  -3 5219.16 802.242  21
   0  24   3 5916.94 1267.88   3
   0  24  -4-256.712 345.842   3
   0  24   4 32.9413 448.878   3
   0 -24  -4 45.6039 246.186  21
   0  24   5 643.731 475.959   3
   0 -24  -5 795.734 377.231  21
   0  24  -5 674.944 411.108   3
   0  24   6 584.454 454.782   3
   0 -24  -6 356.785 244.544  21
   0 -24   6 773.726 529.860   8
   0  24   7 79.8717 241.478   3
   0  24   7-154.133 304.890   2
   0 -24  -7 68.9661 167.482  21
   0  25   0 1029.76 530.716   3
   0 -25  -1-50.6883 217.311  21
   0 -25  -1-339.811 398.684   8
   0  25  -1 159.511 316.570   3
   0  25   1-377.354 400.926   3
   0  25   2 2850.54 853.523   3
   0  25  -2 1592.78 670.491   3
   0 -25  -2 1670.89 443.235  21
   0 -25  -3 1065.66 355.551  21
   0  25  -3 924.957 421.011   3
   0  25   3 233.363 269.469   3
   0 -25   4 511.059 404.970   8
   0 -25  -4 90.0654 190.657  21
   0  25   5 272.021 327.438   3
   0 -25   5 317.077 521.818   8
   0 -25  -5-161.587 201.751  21
   0 -25  -6 520.597 252.715  21
   0  26   0 591.173 380.805   3
   0 -26   0-150.421 259.949   8
   0  26  -1-143.896 266.643   3
   0 -26   1 111.032 296.519   8
   0  26   2 24.4578 255.199   3
   0 -26   2-5.21380 273.506   8
   0 -26   3-269.399 361.515   8
  -1   0  17 380.994 413.884  10
  -1   0  16-527.683 494.452  10
  -1   0  15-589.343 663.998  10
  -1   0  15 627.176 618.761  11
  -1   0  14 4983.56 1450.58  11
  -1   0  14 3354.03 1258.47  10
  -1   0  13-977.790 435.030  24
  -1   0  13-131.849 474.034  11
  -1   0  12 19825.1 2758.07  11
  -1   0  12 16571.0 2890.56  12
  -1   0  12 18747.7 1595.86  24
  -1   0  11 896.432 793.990  12
  -1   0  11 143.455 524.497  11
  -1   0  10 14897.6 2532.24  12
  -1   0   9-925.273 693.509  12
  -1   0   8-519.341 570.148  12
  -1   0   7-256.088 469.013  12
  -1   0   6 587.895 440.267  12
   1   0  -5 91.7623 215.877  18
  -1   0   5-156.293 214.935  16
   1   0  -4 117112. 2710.24  18
  -1   0   3 51.5136 41.8014  15
  -1   0   2 9132.33 542.380  18
  -1   0   1 28.3396 72.9489  18
   1   0   1-27.9502 69.6382  14
   1   0   2 2343.88 261.633  14
   1   0   3-103.514 145.955  14
  -1   0  -3-66.6458 138.756  15
  -1   0  -4 747127. 5265.25  15
   1   0   4 751239. 5301.32  14
  -1   0  -5 92.6235 129.439  15
   1   0   5-80.3480 278.426  12
   1   0   5 277.206 182.376  14
   1   0   6 376321. 8411.23  12
   1   0   7 381.380 449.106  12
   1   0   8-867.917 659.513  12
   1   0   9 406.094 733.822  12
   1   0  10-137.849 863.657  12
   1   0  11-1913.66 594.439  24
   1   0  11 189.379 579.121  12
   1   0  12-301.969 381.215  22
   1   0  12-23.2191 343.673  24
   1   0  13-587.877 448.906  22
   1   0  13 346.080 280.772  24
   1   0  14 1365.60 549.482  24
   1   0  14 1640.35 449.825  22
   1   0  14 858.234 619.614  10
   1   0  15-693.695 589.535  10
   1   0  16-179.602 400.726  10
   1   0  17 317.053 335.169  10
  -1  -1  17 331.986 321.142  10
  -1   1  17 445.695 356.122  10
  -1  -1  16-119.982 404.100  10
  -1   1  16 599.130 485.882  10
  -1   1  16 547.480 430.208  11
  -1   1  15 2043.70 872.429  10
  -1  -1  15-99.1565 422.274  10
  -1  -1  15 1316.71 575.488  11
  -1   1  15 1471.54 797.683  11
  -1  -1  14 539.267 526.655  11
  -1  -1  14-180.737 545.071  10
  -1   1  14-601.829 571.268  11
  -1   1  14 820.640 766.065  10
  -1  -1  13 1030.95 795.143  10
  -1  -1  13-111.965 288.863  24
  -1  -1  13-1072.03 719.981  11
  -1   1  13-3.20055 492.332  11
  -1   1  12 1130.12 721.218  11
  -1  -1  12 1290.07 478.609  22
  -1  -1  12 1226.18 396.093  24
  -1  -1  12 334.567 991.320  12
  -1  -1  12 973.510 707.316  11
  -1   1  12 2860.84 1379.15  12
  -1   1  11-25.9251 503.178   2
  -1   1  11 26.9692 555.849  12
  -1  -1  11-92.7382 797.381  12
  -1  -1  11-1881.64 919.407  11
  -1  -1  10 66.6783 473.235  12
  -1   1  10-2193.76 1048.49  12
  -1   1   9 1614.01 946.766  12
  -1  -1   9 189.395 585.327  12
  -1  -1   8 524.670 600.905  12
  -1   1   8-317.147 479.180  12
  -1  -1   7 247.389 544.876  12
  -1   1   7 427.359 494.206  12
   1  -1  -6-125.367 187.208   4
  -1  -1   6 319.988 374.659  12
  -1   1   6 146.989 174.940  16
   1  -1  -5 1812.87 451.250  18
  -1   1   5 1403.53 341.111  16
   1  -1  -5 1012.54 340.602   4
   1   1  -5 1325.62 364.408  18
  -1  -1   5 1250.62 291.575  16
  -1  -1   5 1120.05 578.331  12
  -1   1   4 3640.56 526.984  16
   1  -1  -4 4783.75 624.743  18
  -1   1   4 4708.86 349.841  15
   1   1  -4 4051.69 525.036  18
   1   1  -3 139228. 2393.08  18
  -1   1   3 136731. 1798.66  15
  -1   1   2 267765. 2388.25  17
  -1  -1   2 263761. 2721.76  18
  -1   1   1 255547. 2316.05  18
  -1  -1   1 252776. 1688.69  15
   1   1   0 8446.79 390.916  15
   1   1   1 260651. 2523.31  15
  -1  -1  -2 33260.4 1015.58  15
  -1   1  -2 31460.4 878.694  14
  -1  -1  -3 21374.2 903.669  15
  -1   1  -4 925219. 5660.85  15
   1   1   4 947599. 6420.95  14
  -1  -1  -4 935789. 6431.95  15
   1   1   4 923404. 10222.1  12
  -1  -1  -5 7335.20 619.699  15
   1  -1   5 7481.93 1131.67  12
   1   1   5 8043.84 1141.53  12
  -1   1  -5 7300.93 520.148  15
   1   1   5 7451.32 624.416  14
   1   1   6 87171.6 4124.36  12
   1  -1   6 80850.5 4095.53  12
   1   1   7 2346.74 736.451  12
   1  -1   7 3409.34 987.863  12
   1   1   8 8821.35 1622.22  12
   1  -1   8 7752.05 1639.19  12
   1  -1   9 200.885 497.768  12
   1   1   9 1050.48 657.712  12
   1   1  10 2846.67 1183.80  12
   1  -1  10 2502.04 1130.18  12
   1  -1  11 4983.55 656.774  22
   1  -1  11 4783.49 870.181  24
   1   1  11 6395.07 1025.89  24
   1   1  11 5345.70 1622.05  12
   1  -1  11 5785.24 1701.02  12
   1   1  11 5208.92 1598.49   2
   1  -1  12 2522.32 513.782  22
   1  -1  12 4136.26 1522.94  12
   1  -1  12 3730.31 840.359  24
   1   1  12 1399.42 377.878  22
   1   1  12 1219.80 1047.99  12
   1   1  12 2564.03 695.914  24
   1   1  13-98.7344 292.930  24
   1  -1  13 65.4349 352.203  22
   1  -1  13 297.721 325.031  24
   1   1  13 77.4476 380.338  22
   1  -1  13-64.5174 613.767  10
   1   1  14 2590.89 630.339  24
   1   1  14 2647.39 537.431  22
   1  -1  14 1737.49 579.604  24
   1   1  14 2641.81 1050.29  10
   1  -1  14 2590.36 993.892  10
   1  -1  14 2509.79 613.443  22
   1   1  15 27.1841 370.710  10
   1  -1  15-421.360 471.446  10
   1  -1  16 2599.71 927.814  10
   1   1  16 3466.66 948.079  10
   1  -1  17 425.200 376.366  10
   1   1  17 990.999 489.213  10
  -1  -2  17 339.633 390.306  10
  -1   2  17-17.1706 299.767  10
  -1   2  16-123.707 373.200  11
  -1  -2  16 967.965 545.985  10
  -1   2  16 137.876 404.020  10
  -1   2  15 2122.77 798.535  11
  -1  -2  15 1601.77 734.056  11
  -1  -2  15 1623.00 907.640  10
  -1   2  15 1959.72 946.979  10
  -1  -2  14 932.941 670.937  10
  -1   2  14 955.741 631.837  11
  -1  -2  14 1845.48 1017.32  11
  -1   2  13-180.444 468.489  11
  -1  -2  13-43.7702 470.505  10
  -1  -2  13-535.966 595.325  11
  -1   2  12 6168.69 1722.40  11
  -1   2  12 4745.29 1636.79  12
  -1  -2  12 2720.27 1081.01  11
  -1  -2  12 3340.17 656.995  22
  -1  -2  12 4384.79 869.422  24
  -1   2  12 2509.11 1306.24   2
  -1  -2  12 3519.80 1315.93  10
  -1  -2  12 2917.99 1289.12  12
  -1   2  11 11969.4 2369.93   2
  -1  -2  11 12653.0 2399.17  12
  -1   2  11 13759.7 2593.84  12
  -1  -2  11 14602.5 2336.93  11
  -1  -2  10 28422.0 3402.26  12
  -1   2  10 26687.5 3351.91  12
  -1  -2   9 26011.6 2984.51  12
  -1   2   9 27045.3 3110.28  12
  -1   2   8-570.699 614.247  12
  -1  -2   8 56.9350 448.233  12
  -1  -2   7 5839.69 1254.98  12
  -1  -2   6 580.165 457.686  12
   1  -2  -6 1626.94 396.514   4
  -1   2   6 1948.50 498.063  16
  -1   2   5 21880.5 1358.42  16
   1  -2  -5 24118.6 1378.78   4
   1   2  -5 23293.4 1293.95  18
  -1   2   5 23647.6 999.333  15
  -1  -2   5 22526.5 1877.06  12
  -1   2   4 607.556 196.661  15
  -1   2   4 390.541 283.946  16
   1   2  -4 347.480 182.690  18
   1  -2  -4 686.614 263.184   4
  -1  -2   4 412.786 353.208  12
  -1  -2   3 32665.1 1757.73  12
  -1  -2   2 7955.33 486.450  18
  -1  -2   2 7171.29 426.738  17
   1   2  -2 7678.24 324.283  15
  -1   2   2 8191.52 560.669  17
   1   2  -1 5163.83 332.949  15
  -1   2   1 6042.67 465.809  17
  -1   2   1 5906.71 383.614  18
  -1   2   0 464.432 92.0727  18
   1   2   0 316.109 108.972  15
   1   2   1 11603.8 639.350  15
  -1  -2  -2 2462.75 336.407  15
   1   2   2 2307.83 354.556  15
  -1   2  -3 35098.1 1057.77  14
  -1  -2  -3 35508.5 1302.31  15
   1   2   3 36499.9 1334.11  15
  -1   2  -4 116606. 1973.82  14
  -1  -2  -4 117162. 2512.31  15
   1   2   5 113440. 4122.54  12
  -1  -2  -5 110724. 2574.35  17
   1  -2   5 114024. 4228.27  12
  -1   2  -5 106349. 1963.87  15
   1   2   6 28912.7 2399.87  12
   1  -2   6 29292.0 2437.33  12
  -1   2  -6 28641.5 1585.54  18
   1  -2   7 11122.1 1623.89  12
   1   2   7 10291.1 1638.73  12
   1  -2   8 5247.73 1416.51  12
   1   2   8 3567.46 1024.07  12
   1  -2   9 20726.4 2773.16  12
   1   2   9 22269.6 2853.35  12
   1   2  10 3045.14 1292.78  12
   1  -2  10 2984.34 1245.09  12
   1   2  11 81791.5 3397.47  24
   1  -2  11 71808.1 5738.60  12
   1  -2  11 73173.1 3226.82  24
   1   2  11 64236.2 5403.28   2
   1  -2  11 68821.5 2479.09  22
   1   2  11 80201.2 6259.79  12
   1   2  12 140.346 293.070  24
   1  -2  12-698.953 458.126  22
   1   2  12 1059.29 793.183  11
   1  -2  12 626.606 903.580  10
   1  -2  12 286.349 578.607  12
   1  -2  12 178.297 309.878  24
   1   2  12-457.064 465.932  22
   1   2  12 131.170 664.680  12
   1  -2  13 407.479 569.797  10
   1  -2  13 875.595 379.558  22
   1  -2  13 1282.64 552.620  24
   1   2  13 582.602 367.737  24
   1   2  13 708.179 351.543  22
   1  -2  14 458.904 435.699  22
   1   2  14 256.501 304.753  24
   1  -2  14 645.787 567.409  10
   1   2  15-194.803 425.332  10
   1   2  15 501.467 362.221  24
   1  -2  15-119.732 400.803  10
   1   2  16 372.463 519.597  10
   1  -2  16-85.4991 374.577  10
   1  -2  17 469.459 425.790  10
   1   2  17 213.145 333.869  10
  -1  -3  17 600.038 411.651  10
  -1   3  17 552.895 357.148  10
  -1   3  16 1204.95 597.985  11
  -1   3  16 374.149 481.581  10
  -1  -3  16 467.158 390.775  10
  -1   3  15 2794.26 972.285  10
  -1   3  15 2032.80 852.252  11
  -1  -3  15 2909.95 1012.76  10
  -1  -3  14 480.395 546.119  11
  -1  -3  14 1091.47 812.165  10
  -1   3  14 1368.27 709.055  11
  -1  -3  13 265.830 526.334  10
  -1  -3  13 977.730 713.084  11
  -1   3  13 1343.33 827.433  11
  -1   3  12 221.766 667.713  12
  -1  -3  12-1162.40 764.004  11
  -1  -3  12-63.1046 717.846  10
  -1  -3  12-170.492 718.552  12
  -1   3  12 331.381 495.887   2
  -1  -3  12 755.527 502.256  22
  -1  -3  11 1822.32 757.682  11
  -1  -3  11 4799.03 1310.69  10
  -1   3  11 4620.02 1604.44  12
  -1  -3  11 4777.17 1488.30  12
  -1   3  11 2105.75 1136.16   2
  -1  -3  11 3771.86 685.960  22
  -1  -3  11 3068.42 661.138  24
  -1   3  10-274.741 623.796  12
  -1  -3  10-334.054 1117.92  12
  -1   3   9-659.886 566.012  12
  -1  -3   9 583.512 636.734  12
  -1  -3   8 704.858 644.439  12
  -1  -3   7 39856.5 3152.60  12
   1  -3  -7 32020.8 1963.41   4
  -1   3   7 36746.0 2090.59  16
  -1   3   6 16496.0 1343.93  16
  -1  -3   6 18700.0 1945.61  12
   1  -3  -6 17109.8 1361.85   4
  -1   3   5 170.295 203.001  16
  -1   3   5 530.940 230.165  15
  -1  -3   5 539.568 340.478  12
   1  -3  -5 508.860 291.375   4
   1  -3  -4 634.361 285.456   4
   1  -3  -4 708.358 258.013  18
  -1  -3   4 248.593 303.301  12
  -1   3   4 879.744 260.605  15
   1  -3  -4 1172.62 279.519  17
  -1  -3   3 17855.0 1285.56  12
   1   3  -3 14183.1 502.553  15
  -1   3   3 15770.0 963.638  17
   1  -3  -3 18421.4 1004.18  17
   1  -3  -3 16471.3 1009.60   4
   1   3  -2 11966.3 555.444  15
  -1  -3   2 11092.7 563.662  18
  -1  -3   2 11590.9 705.538  17
   1   3  -1 51709.1 1240.51  15
   1  -3  -1 53957.8 1233.07  18
  -1  -3   1 51360.5 1442.77  17
  -1   3   1 54460.0 1590.48  17
   1   3   0 68412.6 1563.45  15
  -1   3   0 72024.6 1779.37  17
  -1   3  -1 277194. 3522.76  17
   1   3   1 270387. 3311.55  15
   1   3   2 19020.0 954.902  15
   1   3   3 80936.7 2112.88  15
   1  -3   3 77839.1 1504.58  20
   1  -3   4 573.522 366.789  12
   1   3   4 1024.60 304.076  15
  -1   3  -4 1007.57 223.368  14
  -1  -3  -4 740.880 258.648  17
  -1  -3  -5 3969.71 571.500  17
  -1   3  -5 3190.58 405.443  17
   1  -3   5 2851.56 740.323  12
  -1   3  -5 3322.97 466.158  18
   1  -3   6 2811.49 839.511  12
   1   3   6 1973.27 750.658  12
  -1   3  -6 2039.70 401.552  18
   1  -3   7 7733.88 1450.91  12
   1   3   7 7903.69 1465.58  12
  -1  -3  -7 9070.03 1100.89   4
   1   3   8-400.630 787.215  12
   1  -3   8-834.532 652.371  12
  -1  -3  -8 274.986 318.865   4
   1   3   9 913.607 564.752  12
   1  -3   9 1124.42 712.390  12
   1   3  10 671.681 644.818  12
   1  -3  10 646.646 726.007  12
   1   3  11 8401.61 1162.58  24
   1  -3  11 7180.29 875.996  22
   1  -3  11 7269.15 1088.68  24
   1   3  11 9511.45 2221.33  12
   1   3  11 7152.78 1821.09   2
   1  -3  11 6892.16 1660.66  10
   1  -3  11 7501.03 2003.84  12
   1  -3  12 420.120 496.948  22
   1  -3  12 1326.92 795.955  10
   1   3  12 1961.03 1231.36  12
   1   3  12-16.2164 361.183  24
   1  -3  12-1211.36 955.150  12
   1   3  12 1394.34 937.009   2
   1  -3  12 260.007 338.900  24
   1  -3  13 6041.67 1599.06  10
   1   3  13 7473.27 1070.65  24
   1   3  13 7226.29 1660.61  11
   1  -3  13 8614.40 980.695  22
   1  -3  14-289.601 468.833  10
   1   3  14 502.352 411.953  24
   1  -3  14 1115.90 631.039  22
   1   3  15 67.1656 450.396  10
   1  -3  15 1112.20 689.395  10
   1   3  15 558.391 391.756  24
   1  -3  16 1402.80 677.465  10
   1   3  16 1052.38 641.181  10
   1  -3  17 658.687 400.562  10
   1   3  17 925.524 471.138  10
  -1  -4  17 412.626 388.741  10
  -1   4  17 637.374 412.207  10
  -1  -4  16 1283.80 660.164  10
  -1   4  16 918.357 755.137  11
  -1   4  16 773.878 554.158  10
  -1  -4  15 3887.08 1259.80  10
  -1   4  15 5364.72 1352.74  11
  -1   4  14-211.176 650.915  11
  -1  -4  14 34.6560 463.244  10
  -1  -4  13 3273.90 1216.87  10
  -1   4  13 1416.03 1005.08   2
  -1   4  13 1116.99 898.540  11
  -1  -4  13 2221.44 969.959  11
  -1  -4  12 23937.4 3053.26  11
  -1   4  12 21049.2 3210.68   2
  -1  -4  12 21192.4 3306.86  12
  -1   4  12 26528.1 3790.30  12
  -1  -4  12 24780.7 3244.98  10
  -1   4  11 18205.8 3043.62  12
  -1  -4  11 20098.1 3072.10  12
  -1   4  11 20368.9 3046.16   2
  -1  -4  11 19263.2 1351.72  22
  -1  -4  11 20960.7 2773.42  11
  -1  -4  11 18846.8 2728.54  10
  -1   4  10 7797.87 1926.92  12
  -1  -4  10 7111.93 1770.06  12
  -1  -4   9 16755.7 2469.99  12
  -1   4   9 18419.1 2683.71  12
   1  -4  -8 685.590 404.430   4
  -1  -4   8 427.324 543.954  12
  -1   4   7 45276.5 2410.89  16
   1  -4  -7 46792.8 2453.29   4
  -1  -4   7 47242.9 3385.68  12
  -1   4   6 24638.6 1677.85  16
  -1  -4   6 26049.2 2303.31  12
   1  -4  -6 27795.6 1770.92   4
   1  -4  -5 63031.5 2455.30   4
  -1  -4   5 60808.5 3153.26  12
   1  -4  -4-138.230 224.978  18
  -1  -4   4 18.7820 180.354  16
  -1   4   4 89.0673 216.206  15
   1   4  -4 90.6408 78.2513  15
  -1  -4   4 261.041 312.897  12
   1  -4  -4-105.019 217.127   4
   1  -4  -4 164.537 176.892  17
  -1  -4   3 661.409 243.019  17
   1  -4  -3 509.535 305.953   4
  -1  -4   3 762.780 192.840  18
  -1   4   3 717.398 290.028  17
   1  -4  -3 906.640 327.320  17
   1  -4  -3 722.439 285.712  18
  -1  -4   3 960.235 375.260  12
  -1  -4   3 787.140 169.114  19
   1   4  -3 641.422 179.015  15
   1  -4  -2 568.073 231.034  18
   1   4  -2 660.972 218.639  15
  -1   4   2 693.020 283.134  17
  -1  -4   2 411.984 260.119  17
   1  -4  -2 753.059 295.022  17
  -1  -4   1 484.307 247.737  17
  -1   4   1 780.970 303.113  17
   1  -4  -1 935.387 221.189  18
   1   4  -1 788.287 239.781  15
   1   4   0 61.7058 167.815  15
  -1   4   0 149.257 212.227  17
  -1   4  -1 31472.2 1415.41  17
   1   4   1 32472.6 1307.92  15
   1   4   2 22101.2 1173.57  15
  -1  -4  -2 22272.4 1250.35  17
  -1   4  -2 21868.1 1166.57  17
  -1   4  -3 1693.93 213.555  18
  -1   4  -3 1537.07 334.427  17
  -1  -4  -3 1858.26 426.745  17
   1  -4   3 1705.90 272.300  20
   1  -4   3 2257.06 559.370  12
   1   4   3 1948.37 406.354  15
   1  -4   3 1820.58 268.768  19
  -1  -4  -4 6119.75 723.354  17
   1  -4   4 6114.68 983.360  12
  -1   4  -4 6456.00 571.369  14
  -1   4  -4 5657.08 478.276  18
   1   4   4 6268.51 714.045  15
  -1   4  -4 4862.89 570.317  17
   1   4   5 9748.52 963.133  15
  -1   4  -5 8112.51 671.878  18
   1  -4   5 9481.76 1350.54  12
  -1  -4  -5 9444.22 908.261  17
  -1   4  -5 9225.00 753.286  17
  -1   4  -5 8797.24 627.563  14
   1  -4   6 38945.9 2935.18  12
  -1  -4  -7 719.864 326.232   4
   1  -4   7 241.645 621.735  12
   1   4   7 391.023 507.994  12
  -1  -4  -8 20590.8 1791.64   4
   1  -4   8 23542.9 2695.49  12
   1   4   8 20596.7 2526.04  12
   1   4   9 11419.6 2086.44  12
   1  -4   9 12804.3 2217.75  12
   1   4  10-7.30468 555.480  12
   1  -4  10 962.661 791.817  12
   1   4  11 19496.4 3132.68  12
   1   4  11 17404.7 2846.59   2
   1  -4  11 18946.9 2716.13  10
   1  -4  11 13954.4 2623.50  12
   1  -4  11 16071.4 1236.02  22
   1  -4  11 15252.8 1540.62  24
   1   4  11 16045.3 1570.57  24
   1   4  12 1691.76 1032.89   2
   1  -4  12 833.992 707.911  12
   1   4  12 1870.56 880.430  12
   1   4  12 982.897 395.068  24
   1  -4  12 371.173 363.534  22
   1  -4  12 146.800 494.700  10
   1   4  13 8300.66 1122.81  24
   1  -4  13 9423.66 2030.76  10
   1  -4  13 9966.83 1093.51  22
   1   4  13 11596.4 2102.20  11
   1   4  14 800.909 529.924  11
   1   4  14 1615.15 513.553  24
   1  -4  14 661.527 627.312  10
   1   4  15 1114.08 428.556  24
   1  -4  15 1779.73 888.733  10
   1   4  15 184.849 432.975  10
   1  -4  16-100.230 416.091  10
   1   4  16 100.024 399.977  10
  -1  -5  17-232.833 322.872  10
  -1   5  17 334.971 387.719  10
  -1  -5  16 1558.54 746.753  10
  -1   5  16 916.510 571.982  10
  -1   5  16 1358.88 645.912  11
  -1   5  15 160.334 380.518  11
  -1  -5  15 893.751 685.892  10
  -1   5  14 915.335 712.548  11
  -1  -5  14 1394.14 901.554  10
  -1   5  13-577.510 665.880   2
  -1  -5  13 1432.70 860.586  10
  -1  -5  12 2449.03 1023.58  11
  -1   5  12 3058.76 1422.35  12
  -1   5  12 1972.51 1202.82   2
  -1  -5  12 3366.68 1245.79  10
  -1  -5  12 3926.37 1504.36  12
  -1  -5  11 2017.27 1173.35  12
  -1   5  11 705.221 795.103   2
  -1  -5  11 1205.49 842.588  10
  -1  -5  11 645.406 797.852  11
  -1   5  11 1358.67 1068.24  12
  -1  -5  11 2408.22 704.874  22
  -1   5  10-129.488 676.255  12
  -1  -5  10 127.877 615.890  12
  -1  -5   9 945.398 703.901  12
  -1   5   9 385.048 637.073  12
   1  -5  -8 1821.69 621.676   4
  -1  -5   8 1020.26 715.523  12
  -1   5   7 618.080 400.945  16
  -1  -5   7-188.178 539.889  12
   1  -5  -7 541.611 350.576   4
   1  -5  -6 95.3730 365.759   4
  -1  -5   6 458.373 409.293  12
  -1   5   6 339.367 354.056  16
  -1   5   5 25531.1 1579.22  15
   1  -5  -5 22544.7 1578.04   4
  -1  -5   5 20293.2 1903.10  12
  -1  -5   4 6139.02 642.012  16
   1  -5  -4 6605.56 806.996   4
  -1  -5   4 4567.14 796.691  12
   1  -5  -4 6860.55 794.370  18
  -1   5   4 5235.07 705.988  15
   1  -5  -4 5971.37 752.609  17
   1   5  -4 5759.56 479.573  15
   1  -5  -3 686.974 283.723   4
   1  -5  -3 170.228 182.339  18
  -1   5   3 288.438 190.673  17
  -1  -5   3 602.479 363.339  12
   1   5  -3 312.452 166.224  15
  -1  -5   3 124.589 106.250  19
   1  -5  -3 571.644 298.323  17
  -1  -5   3 436.364 248.064  16
  -1  -5   3 206.657 213.704  17
   1  -5  -2 26331.9 1179.59  18
   1  -5  -2 28149.9 1526.04  17
  -1  -5   2 25169.7 1283.62  16
  -1  -5   2 25104.4 1382.11  17
  -1   5   2 27794.5 1476.25  17
   1   5  -1 2976.92 454.158  15
   1  -5  -1 2988.41 342.003  18
  -1   5   1 3157.28 525.640  17
  -1   5   1 3360.68 520.794   1
  -1  -5   1 3844.61 578.709  17
  -1  -5   1 3617.37 525.584  16
   1  -5   0 42057.7 1504.81   4
   1   5   0 45639.5 1627.69  15
   1  -5   0 44353.0 967.209  18
  -1   5   0 47056.4 1896.34  17
  -1   5  -1 4221.40 637.013  17
   1  -5   1 6155.39 913.253  12
   1   5   1 5010.47 592.919  15
   1   5   2 80047.4 2389.79  15
   1  -5   2 77784.0 1400.66  20
  -1   5  -2 82328.0 2527.77  17
   1  -5   2 84748.6 3072.10  12
  -1  -5  -2 81711.9 2560.59  17
   1  -5   3 18244.4 832.271  19
   1   5   3 18442.3 1213.67  15
  -1   5  -3 15740.3 1136.24  17
  -1  -5  -3 17795.0 1264.06  17
   1  -5   3 18610.0 1588.73  12
   1  -5   3 16527.8 760.169  20
   1   5   4 15278.9 1199.57  15
   1  -5   4 14145.1 791.099  19
  -1  -5  -4 14252.6 1200.29  17
   1  -5   4 14814.8 1565.28  12
  -1   5  -4 12914.5 1026.53  17
   1   5   5 16.3874 234.899  15
   1  -5   5 742.218 543.210  12
  -1  -5  -5 303.626 236.020  17
  -1   5  -5 10.7634 182.700  17
   1  -5   6 9365.39 1470.87  12
  -1  -5  -6 11752.6 1268.40   4
   1  -5   7 3253.52 971.831  12
  -1  -5  -7 4695.18 876.366   4
   1   5   8 435.970 651.084  12
   1  -5   8 1481.06 847.335  12
  -1  -5  -8 1170.69 501.582   4
  -1  -5  -9 612.265 486.643   4
   1  -5   9 1353.96 863.512  12
   1   5   9 1022.46 718.453  12
   1   5  10 590.860 665.089  12
   1  -5  10-106.618 762.775  12
   1   5  11 209.907 311.975  24
   1  -5  11 209.372 823.600  10
   1  -5  11 108.964 392.415  22
   1   5  11-259.475 801.128   2
   1   5  11-335.962 734.601  12
   1  -5  11 658.201 667.911  12
   1   5  12 616.461 388.342  24
   1  -5  12-867.851 725.225  10
   1   5  12-63.4426 604.422   2
   1  -5  12-324.189 472.643  22
   1  -5  12-535.652 696.618  12
   1   5  12 398.394 572.915  12
   1   5  13-46.8781 642.292   2
   1   5  13 740.056 369.587  24
   1  -5  13 1394.97 622.333  22
   1  -5  13-221.379 543.460  10
   1   5  14 2510.43 1007.12  11
   1  -5  14 3562.35 1296.77  10
   1   5  14 2651.70 615.153  24
   1   5  15 1606.63 714.706  11
   1  -5  15 83.1914 520.148  10
   1   5  15 1728.46 481.628  24
   1  -5  16 4032.08 1034.26  10
   1   5  16 4230.06 1069.42  10
  -1  -6  16 2220.17 790.363  10
  -1   6  16 1628.16 674.386  11
  -1   6  16 774.957 477.153  10
  -1  -6  15 2182.84 953.012  10
  -1   6  15 1496.16 661.882  11
  -1  -6  14 823.930 682.725  10
  -1   6  14 474.374 656.686  11
  -1   6  13 204.276 477.296   2
  -1  -6  13-362.683 566.800  10
  -1   6  12 37732.9 4573.03  12
  -1  -6  12 29320.3 3849.59  12
  -1  -6  12 30206.2 3640.55  10
  -1   6  12 28937.1 3799.69   2
  -1  -6  11 758.021 1243.34  12
  -1   6  11-148.275 573.537   2
  -1  -6  11-971.043 742.746  10
  -1  -6  11-1994.37 931.641  11
  -1   6  11 775.445 731.398  12
  -1  -6  10 32468.5 3693.61  12
  -1   6  10 33223.1 3971.04  12
  -1  -6   9 38599.8 3782.33  12
  -1  -6   8 273.926 538.359  12
   1  -6  -8 543.995 447.906   4
  -1   6   8 255.857 281.747  16
  -1  -6   7 8793.91 1514.43  12
  -1   6   7 8325.46 1144.08  16
   1  -6  -7 8760.03 1218.70   4
  -1  -6   6 114.565 413.774  12
   1  -6  -6 100.076 260.881   4
  -1   6   5 133.815 272.726  15
   1  -6  -5 372.309 359.195   4
  -1  -6   5 6.56179 497.877  12
  -1  -6   4 5149.38 474.322  19
   1  -6  -4 5151.93 755.254   4
  -1  -6   4 4305.49 594.051  16
  -1   6   4 5487.81 769.654  15
   1  -6  -4 6910.06 899.135  17
   1   6  -4 6012.90 575.267  15
  -1  -6   4 5433.40 917.709  12
  -1   6   3-113.263 225.200  17
  -1  -6   3-218.946 264.993  17
   1   6  -3 116.716 163.466  15
  -1  -6   3-20.6928 268.044  12
  -1  -6   3 0.42869 121.485  19
   1  -6  -3-100.451 229.529   4
   1  -6  -3-86.2725 229.654  18
  -1  -6   3 339.220 208.412  16
   1  -6  -3 195.172 264.373  17
   1  -6  -2 630.223 325.128  17
   1  -6  -2 759.055 235.271  18
   1  -6  -2 891.560 320.657   4
  -1  -6   2 847.435 396.572  17
  -1  -6   2 321.058 244.359  12
  -1   6   2 321.702 233.433  17
   1   6  -2 546.042 220.490  15
  -1  -6   2 669.118 256.022  16
   1  -6  -1-45.1848 145.624  18
  -1   6   1-15.6882 226.356   1
  -1  -6   1 2.28013 246.533  17
   1   6  -1 114.371 254.186  15
  -1   6   1-52.9899 283.154  17
   1  -6  -1-53.5183 237.916   4
   1   6   0 916.863 300.605  15
   1  -6   0 1177.67 326.918   4
   1  -6   0 734.690 161.909  18
  -1   6   0 668.213 298.723  17
  -1   6   0 1135.75 389.069   1
  -1  -6   0 681.489 255.157   4
  -1   6  -1 940.873 311.168   1
  -1   6  -1 1583.30 444.800  17
   1   6   1 598.536 267.524  15
   1  -6   2 353.995 162.274  20
   1   6   2 503.808 306.707   1
  -1   6  -2 762.431 354.631   1
  -1   6  -2 271.732 252.615  17
  -1  -6  -2 287.759 274.720  17
   1  -6   2 479.827 388.506  12
   1   6   2-32.6758 235.209  15
   1   6   3 402.386 239.885  15
  -1  -6  -3 541.347 331.235  17
   1  -6   3 576.426 197.420  19
  -1   6  -3 839.259 331.964  17
   1  -6   3 512.919 411.536  12
   1  -6   3 644.226 199.601  20
  -1  -6  -4 17222.8 1405.41  17
   1  -6   4 14636.6 1601.66  12
  -1   6  -4 14781.9 1187.09  17
   1  -6   4 15421.5 870.524  19
   1   6   4 15438.2 1283.59  15
   1   6   5 818.502 395.812  15
   1  -6   5 1674.11 695.137  12
  -1  -6  -5 1231.25 455.562   4
   1  -6   6 55965.0 3642.48  12
  -1  -6  -6 61791.1 2946.34   4
   1  -6   7 2844.10 939.497  12
  -1  -6  -7 2440.22 684.595   4
   1  -6   8 26016.1 2956.06  12
  -1  -6  -8 26788.0 2216.84   4
   1   6   8 26373.2 3000.08  12
  -1  -6  -9 22937.5 2131.89   4
   1   6   9 24032.7 3105.04  12
   1  -6   9 24074.3 3132.27  12
   1  -6  10 1361.48 1011.46  12
   1   6  10 42.3375 566.119  12
   1   6  11 2239.55 1105.83   2
   1   6  11 3600.04 1461.22  12
   1  -6  11 3499.82 1367.09  10
   1   6  11 2635.32 723.880  24
   1  -6  11 1780.72 1180.30  12
   1  -6  11 3278.34 660.561  22
   1   6  12-10.3905 534.292   2
   1  -6  12-434.170 559.350  10
   1  -6  12 335.930 466.293  22
   1   6  12 625.839 351.772  24
   1   6  13-508.598 367.925  24
   1   6  13-34.8959 541.619   2
   1  -6  13 69.4416 427.358  10
   1   6  14 993.307 436.607  24
   1  -6  14 825.145 697.429  10
   1   6  14 896.832 607.343  11
   1   6  15 70.7252 242.025  24
   1  -6  15 407.043 430.861  10
   1  -6  16 3082.36 923.517  10
   1   6  16 1297.83 630.614  10
  -1   7  16 1633.59 634.222  11
  -1  -7  16 1428.80 627.534  10
  -1   7  16 1583.67 675.131  10
  -1   7  15 1496.04 756.167  11
  -1  -7  15 1360.45 741.854  10
  -1   7  14-224.828 535.268  11
  -1   7  14 240.634 439.160   2
  -1  -7  14-22.5436 486.604  10
  -1   7  13 506.613 660.277   2
  -1  -7  13 1054.59 842.471  10
  -1   7  12 3112.82 1299.51   2
  -1  -7  12 2235.14 1074.81  10
  -1   7  11 3157.43 1448.70  12
  -1  -7  11 2754.55 1362.72  12
  -1  -7  11 3014.21 1204.24  10
  -1   7  11 2910.32 1058.25   7
  -1   7  11 2675.79 1301.92   2
  -1  -7  10 1177.64 1014.43  12
  -1   7  10 840.505 483.605   2
  -1  -7  10 161.421 593.588  10
  -1   7  10 501.154 627.877  12
   1  -7  -9 79.5552 371.831   4
  -1  -7   9-1422.10 809.145  12
  -1   7   8 757.433 441.424  16
   1  -7  -8-83.9631 310.871   4
  -1  -7   8-340.899 578.058  12
  -1   7   7 14606.9 1642.65  16
  -1  -7   7 14977.5 2017.96  12
   1  -7  -7 14711.5 1647.46   4
  -1  -7   6 11562.1 1615.44  12
   1  -7  -6 11347.2 1362.97   4
   1  -7  -5 73057.9 3037.60   4
  -1  -7   5 63284.9 3436.96  12
  -1  -7   4 18656.7 911.736  19
  -1  -7   4 18572.8 1708.53  12
   1  -7  -4 21925.7 1600.44   4
  -1  -7   4 18094.8 1263.15  16
  -1   7   4 20255.0 1545.32  15
   1  -7  -3 25838.4 1428.12  18
  -1  -7   3 23444.8 1764.55  12
   1   7  -3 22711.1 1313.60  15
  -1  -7   3 22426.4 1435.29  16
  -1  -7   3 22993.8 1611.09  17
   1  -7  -3 23101.2 1536.44   4
  -1  -7   3 25702.8 1009.93  19
   1  -7  -3 26568.8 1767.73  17
  -1  -7   2 47736.7 2338.96  12
   1  -7  -2 49569.1 2105.38   4
   1  -7  -2 55053.3 2465.81  17
  -1  -7   2 51622.2 2376.31  17
  -1   7   2 47446.8 2269.20  17
   1   7  -2 52105.2 2615.36   1
   1   7  -2 48685.8 2000.91  15
   1  -7  -2 50130.9 1750.59  18
  -1  -7   1 16491.8 1017.87   4
   1  -7  -1 16017.3 1165.64   4
  -1   7   1 15168.9 1281.31  17
   1  -7  -1 18277.5 1396.46  17
  -1  -7   1 18503.3 1436.20  17
   1   7  -1 17184.0 1438.61   1
   1  -7  -1 15910.9 837.457  18
   1   7  -1 16582.6 1187.94  15
  -1   7   1 16956.0 1336.10   1
  -1   7   0 4129.37 674.141   1
  -1  -7   0 4800.21 758.135  17
   1  -7   0 4793.17 379.686  18
   1   7   0 4740.02 657.665  15
  -1   7   0 4344.85 731.718  17
  -1  -7   0 4526.74 588.434   4
   1  -7   0 4655.80 617.140   4
   1   7   0 4603.22 767.138   1
   1   7   1 54699.3 2234.10  15
  -1   7  -1 58441.0 2475.11  17
  -1  -7  -1 56312.0 2072.70   4
  -1  -7  -1 60853.5 2583.35  17
   1   7   1 55993.7 2494.31   1
  -1   7  -1 57788.6 2386.22   1
  -1  -7  -2 22645.1 1423.98   4
   1   7   2 22675.7 1516.81  15
   1  -7   2 22571.0 795.601  20
   1   7   2 25094.4 1729.86   1
  -1   7  -2 22800.0 1622.71   1
   1  -7   2 24417.4 1927.98  12
  -1  -7  -2 24348.5 1678.03  17
  -1   7  -2 22703.4 1580.45  17
   1  -7   3 38803.4 2498.40  12
   1   7   3 37580.1 2002.24  15
   1  -7   3 35787.6 1128.62  20
  -1  -7  -3 38154.5 1958.31   4
   1  -7   3 36501.1 1358.27  19
  -1   7  -3 38838.0 2083.65  17
   1  -7   4 2425.30 390.003  19
   1  -7   4 2741.63 773.965  12
  -1   7  -4 2154.92 517.948  17
  -1  -7  -4 1822.13 514.114   4
   1  -7   5 3029.58 927.336  12
  -1  -7  -5 4001.62 786.590   4
  -1  -7  -6 18460.7 1739.83   4
   1  -7   6 16315.9 2070.94  12
  -1  -7  -7 2590.46 704.773   4
   1  -7   7 3756.39 1101.81  12
  -1  -7  -8 684.778 478.770   4
   1  -7   8 533.921 538.488  12
   1   7   8 572.809 641.936  12
  -1  -7  -9 1527.55 733.364   4
   1   7   9 370.742 687.063  12
   1  -7   9 621.768 557.772  12
   1  -7  10 1134.55 1016.80  12
   1  -7  10 2373.88 625.965  22
   1   7  10 1402.85 620.265   2
   1   7  10 1137.36 760.954  12
   1  -7  10 2081.63 951.156  10
   1  -7  11 868.672 644.454  10
   1  -7  11-217.853 622.364  12
   1   7  11 458.599 393.405  24
   1   7  11 420.519 531.678   7
   1  -7  11 1742.62 694.444  22
   1   7  11 433.733 708.592  12
   1   7  11-877.440 779.545   2
   1  -7  12 372.319 701.266  10
   1   7  12-1479.19 531.498  24
   1   7  12-484.040 719.483   2
   1   7  13 2032.24 596.305  24
   1   7  13 1468.73 968.490   2
   1  -7  13 1370.91 874.311  10
   1  -7  14 266.702 668.070  10
   1   7  14-1016.63 642.138  11
   1   7  14-0.51854 243.741  24
   1  -7  15 862.562 474.061  10
   1   7  15 415.866 289.930  24
   1   7  16-108.133 392.452  10
   1  -7  16-1119.14 549.343  10
  -1  -8  16 27.0751 396.168  10
  -1   8  16-143.436 306.545  11
  -1   8  16 180.796 358.583  10
  -1   8  15 3360.99 1041.77  11
  -1  -8  15 2973.34 1072.32  10
  -1  -8  14-902.657 726.737  10
  -1   8  14-93.6288 516.679  11
  -1   8  14-320.408 551.159   2
  -1   8  13-313.647 616.823   2
  -1  -8  13 552.380 438.216  10
  -1   8  12 352.323 853.016   2
  -1  -8  12-107.643 479.224  10
  -1   8  11 3754.93 1114.00   7
  -1   8  11 5416.32 1977.49  12
  -1  -8  11 5372.42 1526.90  10
  -1   8  11 3088.83 1275.45   2
  -1  -8  11 4288.06 1338.44  12
  -1   8  10 7402.55 1996.60  12
  -1  -8  10 6714.59 1662.68  10
  -1   8  10 4207.81 1406.84   2
  -1   8  10 8045.23 1530.60   7
  -1  -8  10 8955.19 2007.79  12
   1  -8  -9 44537.3 3155.82   4
  -1  -8   9 44963.1 4114.67  12
  -1  -8   8 756.493 613.615  12
  -1   8   8 98.1086 383.132  16
   1  -8  -8 496.516 436.558   4
  -1  -8   7 19452.4 2317.58  12
   1  -8  -7 26474.2 2192.74   4
  -1   8   7 21565.9 2036.35  16
   1  -8  -6 4051.39 864.156   4
  -1  -8   6 4810.76 1126.53  12
   1  -8  -5 12866.4 1361.77   4
  -1  -8   5 9366.39 1366.57  12
   1  -8  -4 11590.5 1248.15   4
  -1  -8   4 11557.9 787.744  19
  -1  -8   4 10983.3 1382.63  12
   1  -8  -3 215.099 220.400  18
   1  -8  -3-179.332 342.827   4
  -1  -8   3 172.629 178.030  19
   1   8  -3-141.991 267.431  15
  -1  -8   3-44.7484 394.518  12
  -1   8   2 8028.39 1017.35  17
   1   8  -2 6614.11 841.113  15
   1   8  -2 6740.67 1051.88   1
  -1  -8   2 7852.01 1037.56  17
   1  -8  -2 8555.69 958.967   4
   1  -8  -2 7629.23 721.777  18
  -1   8   2 7018.38 954.286   1
   1  -8  -1 434.678 276.368   4
  -1  -8   1 336.519 234.764   4
   1   8  -1 191.421 346.025   1
  -1  -8   1 548.258 418.743  17
  -1   8   1 165.734 330.919   1
   1   8  -1 415.852 271.174  15
   1  -8  -1 153.349 161.329  18
  -1   8   1 317.300 344.375  17
  -1   8   0 464.334 297.154  17
  -1  -8   0 19.7279 206.278   4
  -1   8   0 274.007 249.742   1
   1   8   0 124.696 244.568   1
   1   8   0 219.706 255.216  15
   1  -8   0 105.689 265.725   4
  -1   8  -1 651.165 310.993  17
   1   8   1 1078.65 441.453   1
  -1  -8  -1 1382.78 429.061   4
  -1   8  -1 1146.96 414.521   1
   1   8   1 1388.41 464.441  15
  -1   8  -2 9211.66 1115.38   1
   1   8   2 9385.61 1069.13  15
  -1  -8  -2 9600.43 1003.11   4
  -1   8  -2 10078.3 1141.22  17
   1  -8   2 8909.30 515.009  20
   1   8   2 9323.88 1147.08   1
   1  -8   3 7184.48 683.988  19
  -1   8  -3 7377.64 1045.67   1
   1  -8   3 7242.92 1202.13  12
  -1  -8  -3 8082.57 990.189   4
  -1   8  -3 7411.65 998.515  17
  -1   8  -4 30.7827 273.490  17
  -1  -8  -4-116.173 404.733   4
   1  -8   4-299.490 451.413  12
   1  -8   4 344.509 218.037  19
   1  -8   5 44647.3 1712.91  19
  -1  -8  -5 50610.8 2718.28   4
   1  -8   5 42964.3 3180.81  12
  -1  -8  -6 4995.41 973.954   4
   1  -8   6 3693.04 1020.69  12
   1  -8   7-203.727 581.663  12
  -1  -8  -7 328.801 387.654   4
   1  -8   8 4382.04 1257.29  12
  -1  -8  -8 6369.33 1227.72   4
   1   8   9 104843. 6555.75  12
  -1  -8  -9 101140. 4782.01   4
   1  -8   9 99844.9 6361.52  12
   1  -8  10 166.039 412.703  10
   1   8  10 926.169 589.720   2
   1  -8  10 1954.74 724.784  22
   1   8  10-680.798 766.879  12
   1  -8  10-280.802 1014.21  12
   1   8  10-1038.08 471.759  24
   1   8  10-1544.96 763.839   7
  -1  -8 -10 54.1036 369.486   4
   1  -8  11 20559.8 3269.70  12
   1   8  11 23883.1 3534.56   2
   1   8  11 20007.5 3233.50  12
   1  -8  11 19558.9 2853.98  10
   1   8  11 22916.1 1886.26  24
   1   8  11 20182.6 2472.14   7
   1   8  12 663.564 367.796  24
   1   8  12-105.163 496.186   2
   1  -8  12 375.191 599.913  10
   1  -8  13-127.901 612.485  10
   1   8  13 1418.80 809.739   2
   1   8  13 1472.86 563.238  24
   1   8  14 231.130 540.031   2
   1   8  14-22.8776 239.080  24
   1  -8  14-502.740 574.078  10
   1  -8  15 3.60676 525.889  10
   1   8  15 777.242 461.017  11
   1  -8  16-411.902 377.360  10
   1   8  16 68.5697 355.533  10
  -1   9  16 790.609 436.856  11
  -1   9  16 221.571 310.375  10
  -1  -9  16 925.546 540.021  10
  -1  -9  15 492.539 498.235  10
  -1   9  15 1667.36 809.968  11
  -1   9  14 2227.22 1096.79   2
  -1  -9  14 1266.95 889.872  10
  -1   9  13 406.033 632.534   2
  -1  -9  13-1110.36 809.532  10
  -1  -9  12 133.546 484.902  10
  -1   9  12 903.384 1016.65   2
  -1   9  11-706.390 836.318  12
  -1   9  11-1112.41 679.693   7
  -1   9  11-827.410 811.623   2
  -1  -9  11 586.525 751.258  10
  -1   9  10 154.454 751.001   2
  -1   9  10 1025.67 761.303   7
   1  -9 -10 238.614 433.377   4
  -1   9  10 1239.43 941.079  12
  -1  -9  10 1823.55 994.127  10
   1  -9  -9 1272.87 686.336   4
  -1  -9   9-213.297 584.705  12
  -1   9   8 3463.80 989.860  16
   1  -9  -8 3396.54 887.864   4
  -1  -9   8 1827.84 887.185  12
   1  -9  -7 10607.5 1500.65   4
  -1  -9   7 7518.15 1501.24  12
   1  -9  -6 2580.48 776.357   4
  -1  -9   6 1327.03 608.743  12
   1  -9  -5 14435.5 1545.23   4
  -1  -9   5 11276.2 1567.38  12
  -1  -9   5 12129.6 879.218  19
  -1  -9   4 2368.57 397.146  19
   1  -9  -4 1997.32 618.114   4
  -1  -9   4 2008.67 677.073  12
   1   9  -3 7849.90 1224.44   1
  -1  -9   3 9654.33 741.365  19
  -1  -9   3 7640.02 1123.78  12
   1   9  -3 7344.03 965.002  15
   1  -9  -3 8923.59 1112.67   4
   1   9  -2 409065. 6734.56  15
   1   9  -2 405164. 8044.72   1
   1  -9  -2 378932. 5117.41  18
   1  -9  -2 389398. 6626.71   4
  -1   9   2 393154. 7660.24   1
   1  -9  -1 485424. 7147.13   4
   1   9  -1 478568. 7401.65  15
   1   9  -1 505285. 8609.88   1
  -1  -9   1 481784. 6434.64   4
  -1   9   1 489572. 8042.81   1
   1  -9   0 10714.9 1079.60   4
   1   9   0 12845.0 1416.25   1
  -1   9   0 13053.1 1308.07   1
  -1  -9   0 11837.1 1086.73   4
  -1  -9  -1 341799. 5881.53   4
  -1   9  -1 348030. 6829.02   1
   1   9   1 357116. 7101.88   1
   1   9   2 33322.2 2311.34   1
  -1   9  -2 33881.9 2233.24   1
  -1  -9  -2 33916.0 1978.40   4
  -1  -9  -3 6735.62 970.762   4
  -1   9  -3 5248.42 941.040   1
   1  -9   3 5693.52 661.725  19
   1  -9   3 6158.29 1187.61  12
  -1  -9  -4 3610.32 747.730   4
   1  -9   4 3127.27 494.370  19
  -1   9  -4 3182.20 838.059   1
   1  -9   4 3054.16 859.415  12
   1  -9   5 26230.9 2560.94  12
   1  -9   5 26934.1 1411.12  19
   1  -9   6 31432.9 2987.46  12
  -1  -9  -6 34687.8 2575.79   4
   1  -9   7 94.9880 529.275  12
  -1  -9  -7-253.410 359.203   4
  -1  -9  -8 853.990 539.098   4
   1  -9   8 353.041 539.208  12
   1   9   9 235.758 500.495  12
  -1  -9  -9 198.740 430.396   4
   1  -9  10-607.330 640.268  10
   1  -9  10-691.529 812.830  12
   1   9  10 55.4563 372.676  24
   1   9  10 823.409 842.428   2
  -1  -9 -10-513.609 487.120   4
   1   9  10-1844.06 834.178   7
   1   9  10-1342.83 940.155  12
   1  -9  11-1145.17 996.792  12
   1   9  11-755.788 777.854   2
   1  -9  11-439.292 630.220  10
   1   9  11 413.355 688.191  12
   1   9  11-267.301 463.003   7
   1   9  11 461.088 391.331  24
   1   9  12 509.969 626.093   2
   1   9  12-301.337 294.059  24
   1   9  12 52.9356 388.832   7
   1  -9  12 182.968 546.498  10
   1   9  13-574.336 678.794   2
   1   9  13 332.405 526.822   7
   1   9  13 113.747 293.381  24
   1  -9  13 139.601 544.586  10
   1  -9  14 140.142 475.365  10
   1   9  14 2283.28 1244.48   2
   1   9  14 1232.32 446.361  24
   1   9  15 753.696 594.534  11
   1  -9  15-723.688 527.259  10
   1   9  16 403.068 341.201  10
   1  -9  16 756.738 494.721  10
  -1  10  16 299.183 300.626  10
  -1 -10  16 818.915 479.173  10
  -1 -10  15-167.876 423.180  10
  -1  10  15 619.577 517.835  11
  -1 -10  14 3278.76 1132.17  10
  -1  10  14 2237.86 1081.63   2
  -1 -10  13 54.6026 452.033  10
  -1  10  13 504.502 623.461   2
  -1 -10  12 2691.76 1045.85  10
  -1  10  12 2551.98 1299.37   2
  -1  10  11 2120.12 1138.44   2
  -1  10  11 3780.26 1047.93   7
  -1 -10  11 2251.52 856.436  10
  -1  10  10 13410.4 2632.88   2
  -1 -10  10 17459.9 2681.47  10
  -1  10  10 16129.9 2911.63  12
   1 -10 -10 13111.3 1891.88   4
  -1  10  10 16988.1 2307.83   7
  -1  10   9 963.768 799.341   3
   1 -10  -9 293.142 569.003   4
  -1 -10   9 561.903 692.185  10
  -1  10   9-1186.38 694.737   7
  -1  10   8 4043.44 1017.04  16
  -1 -10   8 3804.12 1199.88  12
   1 -10  -8 3338.64 947.846   4
  -1 -10   7 168.515 451.576  12
   1 -10  -7-288.115 462.010   4
  -1 -10   6 654.977 595.562  12
   1 -10  -6 674.010 477.144   4
  -1 -10   5 406.178 470.841  12
   1 -10  -5-139.719 401.477   4
  -1 -10   5-84.2162 190.848  19
   1 -10  -4 25872.0 2012.72   4
   1  10  -4 24980.5 2343.52   1
  -1 -10   4 21534.2 1181.21  19
   1  10  -3 8459.82 1379.83   1
   1 -10  -3 7332.02 1043.78   4
  -1 -10   3 7747.34 725.564  19
   1 -10  -2 4672.29 841.532   4
   1  10  -2 5563.45 1060.27   1
  -1  10   2 4517.03 935.520   1
  -1 -10   1 205.716 247.411   4
   1 -10  -1 289.755 328.030   4
  -1  10   1 265.341 413.909   1
   1  10  -1-160.291 468.492   1
   1 -10   0 22194.3 1643.59   4
   1  10   0 23952.3 1996.22   1
  -1  10   0 24390.2 1944.63   1
  -1 -10   0 25435.6 1658.21   4
  -1 -10  -1 8769.18 1063.80   4
   1  10   1 9201.61 1319.51   1
  -1  10  -1 10456.2 1295.44   1
  -1 -10  -2 9966.74 1166.43   4
   1  10   2 10750.1 1391.51   1
  -1  10  -2 9286.98 1258.72   1
  -1  10  -3-187.885 467.260   1
  -1 -10  -3 838.410 467.278   4
   1 -10   3 1146.25 346.802  19
  -1 -10  -4 29637.6 2167.54   4
   1 -10   4 25810.3 1391.39  19
   1 -10   4 24720.4 2459.91  12
  -1  10  -4 26951.8 2278.26   1
   1 -10   5 22653.0 1362.09  19
   1 -10   5 24306.0 2595.10  12
  -1  10  -5 20922.7 2113.23   1
  -1 -10  -5 25986.8 2189.24   4
   1 -10   6 84466.0 5019.09  12
  -1 -10  -6 96249.2 4309.01   4
   1 -10   7 486.285 571.715  12
  -1 -10  -7 2135.69 785.588   4
   1 -10   8 39238.6 3874.02  12
  -1 -10  -8 41050.7 3147.56   4
   1  10   9 14047.4 2088.51   7
   1  10   9 10733.3 2133.74  12
   1  10   9 12369.1 2101.11   3
  -1 -10  -9 10972.3 1687.55   4
   1 -10   9 10918.5 2016.76  10
   1  10   9 15041.5 2739.26   2
   1 -10   9 13646.0 2535.49  12
   1 -10  10-3368.29 1242.60  10
   1  10  10-2346.51 1183.89   2
   1  10  10-835.016 809.257   7
   1  10  10 275.183 278.343  24
  -1 -10 -10-95.0365 407.716   4
   1 -10  10-226.515 649.587  12
   1  10  11 4066.66 1233.94   7
   1 -10  11 2530.01 1034.92  10
   1  10  11 2676.55 1236.73   2
   1  10  11 3060.55 754.461  24
   1  10  12 563.721 606.647   2
   1  10  12 883.600 414.804  24
   1  10  12 1612.31 852.901   7
   1 -10  12 1733.01 961.986  10
   1  10  13 787.783 413.300  24
   1 -10  13 1395.69 761.229  10
   1  10  13-124.983 689.103   2
   1  10  14 3301.95 612.845  24
   1 -10  14 1991.50 819.551  10
   1  10  14 4287.36 1475.28   2
   1  10  15-19.1961 310.175  11
   1 -10  15-684.138 485.862  10
  -1 -11  15 695.141 538.706  10
  -1  11  15 5052.79 1070.36  11
  -1  11  14 1718.13 978.560   2
  -1 -11  14 1354.33 765.721  10
  -1  11  13-335.600 474.408   2
  -1 -11  13 19.8056 564.193  10
  -1  11  12 124.635 490.836   2
  -1 -11  12 693.515 757.683  10
  -1  11  11 445.628 616.651   7
  -1  11  11-1243.11 942.268   2
  -1 -11  11 581.994 594.093  10
  -1  11  10 724.540 629.440   2
   1 -11 -10-46.5262 278.570  21
  -1  11  10 426.225 520.932   7
   1 -11 -10 1223.00 520.565   4
  -1 -11  10 354.170 754.318  10
  -1  11   9-1107.94 701.308   7
  -1 -11   9 255.731 533.317  10
   1 -11  -9-135.494 431.516   4
  -1  11   9-45.2327 338.423  16
  -1  11   9 457.032 561.443   3
   1 -11  -9-398.337 338.309  21
   1 -11  -8 84.3281 471.930   4
  -1  11   8-200.181 380.573  16
   1 -11  -7 443.439 448.719   4
   1 -11  -6 2869.76 815.262   4
   1  11  -6 3239.25 1048.18   1
  -1 -11   5 12708.5 987.808  19
   1 -11  -5 13662.4 1607.43   4
   1  11  -5 11623.3 1817.09   1
   1  11  -4 16567.8 1986.76   1
   1 -11  -4 18916.8 1779.97   4
  -1 -11   4 15191.7 1042.90  19
   1  11  -3 16721.4 1929.18   1
  -1 -11   3 16592.5 1083.83  19
   1 -11  -3 18734.8 1674.96   4
  -1  11   2 44020.5 2840.72   1
   1 -11  -2 41526.6 2408.21   4
   1  11  -2 42061.0 2893.53   1
   1 -11  -1 9687.90 1209.32   4
   1  11  -1 11415.0 1484.78   1
  -1  11   1 10072.1 1389.08   1
  -1 -11   0 8951.08 1095.78   4
   1  11   0 10652.8 1461.12   1
  -1  11   0 9437.14 1292.79   1
   1 -11   0 8484.28 1112.10   4
  -1  11  -1 2294.47 658.369   1
  -1 -11  -1 1873.06 565.517   4
   1  11   1 3158.46 821.971   1
  -1 -11  -2 8613.98 1138.39   4
   1  11   2 8140.92 1279.80   1
  -1  11  -2 7670.79 1181.26   1
  -1  11  -3 4632.23 980.057   1
   1 -11   3 6155.47 717.435  19
  -1 -11  -3 5731.16 1029.45   4
   1 -11   4 33966.2 1706.45  19
  -1  11  -4 35768.7 2743.82   1
   1 -11   5 643.671 324.478  19
   1 -11   5 773.422 499.897  12
  -1  11  -5 415.858 376.265   1
  -1 -11  -5 1083.66 623.515   4
   1 -11   6 16426.3 2297.87  12
  -1 -11  -6 17442.0 1955.57   4
  -1  11  -6 16874.7 2098.53   1
   1 -11   7 343.252 490.652  12
  -1  11  -7 1624.69 764.931   1
  -1 -11  -7 721.125 647.561   4
   1 -11   8-380.086 896.494  12
  -1  11  -8 816.311 709.786   1
  -1 -11  -8 230.484 428.722   4
  -1 -11  -9 677.713 612.181   4
   1  11   9 83.8061 535.346   7
   1 -11   9 70.7777 716.463  12
   1 -11   9 475.726 557.840  10
   1  11   9 321.180 446.566   3
   1  11  10 169.772 506.793   7
   1 -11  10 311.160 670.366  10
  -1 -11 -10 1007.71 647.249   4
   1  11  10 1969.86 1101.00   2
   1  11  10 1217.17 502.031  24
   1 -11  11-1389.00 897.152  10
   1  11  11 425.688 519.769   7
   1  11  11 210.241 724.082   2
   1  11  11-657.815 409.683  24
   1  11  12 28.8150 456.035   7
   1 -11  12-457.099 640.515  10
   1  11  12-45.2703 746.710   2
   1  11  12 1329.13 505.049  24
   1  11  13 278.937 511.930   2
   1 -11  13-246.211 759.917  10
   1  11  13 96.1961 301.366  24
   1 -11  14 2709.32 988.194  10
   1  11  14 1743.28 989.749   2
   1 -11  15 282.832 417.835  10
   1  11  15-444.166 416.857  11
  -1  12  15-5.13072 279.380  11
  -1 -12  15 579.798 466.030  10
  -1 -12  14 2320.70 952.927  10
  -1  12  14 1555.47 856.825   2
  -1  12  13 647.348 600.598   2
  -1 -12  13 1305.75 854.588  10
  -1 -12  12-7.03121 609.965  10
  -1  12  12-118.097 815.597   2
  -1 -12  11-811.119 708.867  10
  -1  12  11-754.693 769.779   2
  -1  12  10 23046.3 2768.90   7
   1 -12 -10 20177.0 1775.35  21
  -1 -12  10 22508.2 3126.46  10
  -1  12  10 20266.5 3319.67   2
  -1 -12   9 7853.70 1796.39  10
  -1  12   9 7125.95 1572.83   7
   1  12  -9 7485.32 1689.90   1
  -1  12   9 5597.38 1282.37  16
   1 -12  -9 6462.38 1048.06  21
  -1  12   9 5237.71 1588.21   3
   1 -12  -9 5582.58 1264.01   4
   1  12  -8 2630.95 1136.58   1
  -1  12   8 1220.06 620.331   7
  -1 -12   8 2134.48 938.486  10
   1 -12  -8 2017.36 584.351  21
   1 -12  -8 2326.47 918.474   4
  -1  12   8 677.525 565.526   3
  -1  12   8 2681.53 919.695  16
   1 -12  -7 1213.37 703.707   4
   1  12  -7 3513.42 1150.60   1
   1 -12  -6 7423.19 1358.70   4
   1  12  -6 9887.97 1877.06   1
   1 -12  -5 986.616 562.384   4
   1  12  -5 1051.03 548.947   1
   1  12  -4 912.542 559.128   1
  -1 -12   4 955.841 323.047  19
   1 -12  -4 617.091 480.111   4
   1  12  -3 4565.24 1044.51   1
  -1 -12   3 5096.20 670.737  19
   1 -12  -3 5405.23 1010.25   4
   1  12  -2 26.1616 409.955   1
   1 -12  -2-34.0594 368.720   4
   1  12  -1 821.037 548.276   1
   1 -12  -1 542.540 299.027   4
  -1  12   1 928.899 483.207   1
  -1 -12   0 339.614 271.643   4
  -1  12   0 518.926 387.634   1
   1  12   0 505.443 486.030   1
  -1  12  -1-159.553 402.588   1
   1  12   1 159.196 379.721   1
  -1 -12  -1-140.471 298.659   4
   1  12   2 25.1043 446.192   1
  -1 -12  -2 510.330 420.243   4
  -1  12  -2 946.335 534.173   1
  -1  12  -3 19323.0 2046.33   1
   1 -12   3 17575.1 1269.85  19
  -1 -12  -3 19861.4 1885.12   4
  -1 -12  -4 11397.6 1503.06   4
  -1  12  -4 10088.2 1529.84   1
   1 -12   4 10387.8 1004.76  19
  -1 -12  -5 51852.3 3310.84   4
  -1  12  -5 45662.0 3365.45   1
   1 -12   5 43693.0 2059.42  19
   1 -12   6 8319.82 1699.44  12
  -1 -12  -6 7321.76 1399.22   4
  -1  12  -6 6074.04 1274.72   1
  -1 -12  -7 815.899 498.947   4
   1 -12   7 2022.63 1057.29  12
  -1  12  -7 1060.96 610.412   1
  -1 -12  -8 8425.50 1592.46   4
  -1 -12  -8 5158.58 887.988  21
   1  12   8 8292.98 1873.93   3
   1  12   8 7018.16 1500.51   7
   1 -12   8 5862.01 1579.71  10
   1 -12   8 7654.09 1843.44  12
   1 -12   9 6118.13 1717.60  12
   1  12   9 7020.23 1657.43   3
   1 -12   9 5297.44 1461.03  10
  -1 -12  -9 7365.99 1465.46   4
   1  12   9 6425.30 1486.14   7
   1  12  10-151.365 541.119   3
   1  12  10 295.504 405.350  24
   1  12  10-999.227 703.846   7
   1 -12  10 185.651 498.746  10
   1  12  10 1113.32 881.497   2
   1 -12  11 4375.04 1405.59  10
   1  12  11 5635.83 1376.24   7
   1  12  11 5438.19 920.801  24
   1  12  11 8248.25 2090.99   2
   1  12  12 447.387 425.983   2
   1 -12  12 350.897 697.696  10
   1  12  12 1259.94 700.754   7
   1  12  12 1509.97 505.340  24
   1  12  13-515.114 446.082   2
   1 -12  13 254.796 662.029  10
   1  12  13-187.101 263.459  24
   1 -12  14 114.935 471.530  10
   1  12  14 799.018 706.646   2
   1  12  15 215.650 307.593  11
   1 -12  15-308.340 363.566  10
  -1  13  15 68.3175 269.915  11
  -1 -13  15 866.464 498.639  10
  -1  13  14 355.290 412.548   2
  -1 -13  14 391.183 507.052  10
  -1  13  13 1159.75 784.431   2
  -1 -13  13 1614.61 900.192  10
  -1  13  12 870.555 823.485   2
  -1 -13  12 1394.09 917.666  10
  -1 -13  11 733.692 611.395  10
  -1  13  11 212.762 571.147   2
   1 -13 -10 437.661 453.720  21
  -1  13  10 359.460 638.734   2
  -1  13  10 335.169 471.309   7
  -1 -13  10-329.801 565.388  10
   1  13  -9-1280.20 788.734   1
  -1  13   9 1232.25 704.902  16
   1 -13  -9 257.921 342.141  21
  -1  13   9 213.250 648.934   7
   1 -13  -9 365.141 436.311   4
  -1  13   9-480.786 566.214   3
  -1 -13   9 662.353 688.835  10
   1 -13  -8 734.993 693.995   4
   1 -13  -8 293.752 376.881  21
  -1  13   8-1063.44 748.301   3
  -1  13   8 416.139 493.480   7
   1  13  -8-92.5286 877.131   1
  -1  13   8 1578.49 860.315  16
  -1 -13   8 221.959 551.414  10
  -1  13   7 15574.4 2133.03   7
  -1  13   7 18086.5 2608.33   3
  -1 -13   7 16254.4 2518.71  10
   1 -13  -7 19387.5 1715.58  21
   1 -13  -7 18140.4 2189.49   4
   1  13  -7 16849.2 2418.72   1
   1 -13  -6 1741.00 770.302   4
   1  13  -6 1001.00 593.167   1
   1  13  -5 166.450 471.880   1
   1 -13  -5 1582.72 678.438   4
  -1 -13   4 15211.1 1150.88  19
   1  13  -4 17332.4 2205.24   1
   1 -13  -4 16568.6 1849.53   4
   1  13  -3 1452.63 738.615   1
   1 -13  -3 190.317 374.997   4
  -1 -13   3 828.543 318.956  19
   1 -13  -2 1257.19 566.738   4
   1  13  -2 1033.39 613.965   1
  -1  13   1 71761.4 3929.34   1
   1  13  -1 65518.8 3874.97   1
   1 -13  -1 59731.4 3118.33   4
  -1 -13   0 896.377 371.756   4
  -1  13   0 965.478 522.028   1
   1  13   0 857.893 498.115   1
   1  13   1 99292.6 4711.63   1
  -1  13  -1 103456. 4668.45   1
  -1 -13  -1 88125.0 3792.30   4
  -1 -13  -2 796.638 422.557   4
   1  13   2 1152.98 737.841   1
  -1  13  -2 764.089 385.247   1
  -1 -13  -3 7485.05 1214.52   4
  -1  13  -3 6833.81 1323.03   1
   1 -13   3 7553.15 879.492  19
  -1 -13  -4 234.707 443.938   4
  -1  13  -4 779.984 578.609   1
   1 -13   4 343.126 254.222  19
   1 -13   5 9739.09 1036.66  19
  -1  13  -5 10500.3 1698.75   1
  -1 -13  -5 12990.4 1736.28   4
  -1  13  -6-27.9153 511.450   1
  -1 -13  -6-1083.04 620.240   4
   1  13   7 9335.80 1691.32   7
   1  13   7 11098.9 2024.89   3
   1 -13   7 9076.05 1895.30  10
  -1 -13  -7 10402.6 1681.19   4
   1  13   8 321.351 529.348   3
   1  13   8-116.250 444.509   7
   1 -13   8-1406.86 858.174  10
  -1 -13  -8-875.694 625.860   4
  -1 -13  -8-1388.28 508.322  21
   1  13   9 176.984 533.712   3
   1  13   9-1206.37 733.383   7
   1 -13   9-67.9256 624.493  10
  -1 -13  -9-249.124 359.698  21
  -1 -13  -9-316.651 623.478   4
   1  13  10-438.287 366.268  24
   1  13  10 710.194 646.143   7
   1  13  10-363.769 628.169   3
   1  13  10 1147.78 904.756   2
   1 -13  10 195.560 539.294  10
   1 -13  11 1111.57 745.486  10
   1  13  11 974.072 435.160  24
   1  13  11-659.110 742.788   2
   1  13  11 611.503 789.008   7
   1  13  12 28.0741 297.462  24
   1  13  12-43.2664 547.321   7
   1 -13  12 554.890 630.646  10
   1  13  12-515.337 658.267   2
   1  13  13 1097.80 913.814   2
   1  13  13 901.351 377.105  24
   1 -13  13 1484.92 805.653  10
   1 -13  14 40.9228 346.550  10
   1  13  14 754.435 579.094   2
  -1  14  14 282.881 473.876   2
  -1 -14  14 81.4131 373.055  10
  -1 -14  13 191.846 458.531  10
  -1  14  13 614.714 509.031   2
  -1  14  12 8714.13 1994.47   2
  -1 -14  12 9628.33 1966.95  10
  -1  14  11 3913.48 1409.61   2
  -1 -14  11 4252.81 1384.04  10
  -1 -14  10 7110.22 1750.51  10
   1 -14 -10 4825.12 890.160  21
  -1  14  10 4613.46 1611.50   2
   1 -14  -9 14619.2 1563.21  21
  -1  14   9 12459.3 2304.16   3
  -1 -14   9 16315.3 2666.93  10
  -1  14   9 15579.2 2302.28   7
  -1  14   8 710.304 635.262   7
   1 -14  -8-84.8961 682.500   4
  -1  14   8-1291.82 711.350  16
   1  14  -8 83.1743 550.243   1
  -1  14   8 795.037 682.951   3
   1 -14  -8 543.152 432.959  21
  -1 -14   8 554.112 797.002  10
  -1  14   7 16034.5 2484.87   3
  -1 -14   7 14353.7 2382.74  10
   1 -14  -7 16499.7 2108.43   4
   1  14  -7 12046.0 2101.23   1
   1 -14  -7 16969.3 1649.23  21
  -1  14   7 17799.4 2310.44   7
   1 -14  -6 1940.98 557.465  21
   1  14  -6 755.585 578.751   1
   1 -14  -6 2083.48 814.790   4
  -1 -14   6 1635.44 986.188  10
   1 -14  -5 5635.00 1222.47   4
   1  14  -5 4985.81 1329.33   1
   1 -14  -4 5887.80 1161.28   4
   1  14  -4 5328.52 1261.57   1
  -1 -14   3-116.768 215.408  19
   1  14  -3-64.5539 502.129   1
   1 -14  -3 261.940 396.295   4
   1 -14  -2-519.321 439.385   4
   1  14  -2 308.683 460.972   1
  -1  14   1 1037.93 642.959   1
   1  14  -1-54.4636 403.501   1
  -1  14   0-21.5200 400.272   1
   1  14   0 183.887 513.098   1
   1  14   1 4105.72 1078.68   1
  -1  14  -1 4520.67 1114.17   1
  -1 -14  -1 4047.88 898.441   4
  -1  14  -2 395.617 502.690   1
   1  14   2 362.790 564.115   1
   1 -14   3 5201.13 792.182  19
  -1  14  -3 3849.02 1081.49   1
  -1 -14  -3 5489.47 1094.89   4
  -1  14  -4-10.0911 377.695   1
  -1 -14  -4 324.719 559.999   4
   1 -14   4-290.055 307.425  19
  -1 -14  -5 3205.15 978.045   4
   1 -14   5 3175.07 618.103  19
  -1  14  -5 3572.96 1044.51   1
  -1  14  -6 20001.3 2454.65   1
   1  14   6 15578.7 2334.44   3
  -1 -14  -6 23384.3 2451.82   4
   1 -14   6 17448.7 2596.24  10
   1 -14   7 3330.37 1190.98  10
   1  14   7 2605.82 1045.98   3
   1  14   7 2947.45 902.541   7
  -1 -14  -7 1627.02 727.917   4
   1 -14   8 4282.46 1355.49  10
   1  14   8 4610.59 1462.27   3
  -1 -14  -8 3976.31 835.476  21
  -1 -14  -8 4466.06 1178.83   4
   1  14   8 4221.54 1173.45   7
   1  14   9 15791.8 2500.01   3
  -1 -14  -9 16935.6 1670.69  21
   1  14   9 15417.6 2295.24   7
   1 -14   9 14893.2 2500.68  10
   1  14  10 284.369 580.019   7
   1  14  10 518.725 355.577  24
   1 -14  10 387.441 617.514  10
   1  14  10 812.125 596.418   2
   1  14  10 433.542 603.194   3
   1  14  11 8640.28 1107.34  24
   1 -14  11 6103.60 1623.02  10
   1  14  11 8957.63 1659.45   7
   1  14  11 5211.76 1750.53   2
   1 -14  12-162.865 521.332  10
   1  14  12 239.300 511.002   2
   1  14  12 293.368 282.729  24
   1  14  13 1706.10 962.619   2
   1 -14  13 3728.76 1044.75  10
   1  14  14 2155.69 897.904   2
   1 -14  14 2662.33 844.023  10
  -1  15  14 1458.19 620.466  11
  -1 -15  14 552.612 476.078  10
  -1  15  14 1288.32 703.764   2
  -1 -15  13 198.297 461.328  10
  -1  15  13 5.52424 373.217   2
  -1  15  12 515.530 658.566   2
  -1 -15  12 3112.70 1156.90  10
  -1 -15  11 466.586 736.298  10
  -1  15  11 325.227 652.983   2
  -1 -15  10 1369.62 1065.19  10
   1 -15 -10 149.676 257.961  21
  -1  15  10 511.605 653.102   2
  -1  15   9-153.747 464.868   3
   1 -15  -9 118.077 263.224  21
  -1 -15   9 602.978 717.253  10
  -1 -15   8-8.88790 658.409  10
  -1  15   8-416.769 498.576  16
   1 -15  -8 246.348 362.380  21
   1  15  -8 200.962 528.005   1
  -1  15   8-873.857 654.899   7
  -1  15   8 6.48839 457.148   3
  -1  15   7 360.808 605.045  16
   1 -15  -7 444.018 508.656   4
  -1  15   7 1342.17 775.775   7
   1 -15  -7 570.595 389.851  21
  -1  15   7 623.515 621.049   3
  -1 -15   7 1389.01 976.277  10
   1 -15  -6-210.386 354.344  21
  -1 -15   6 1149.73 818.008  10
  -1  15   6 181.646 493.902   3
   1  15  -6 251.978 688.463   1
   1 -15  -6-1772.41 775.195   4
  -1  15   6-1253.20 698.020   7
  -1 -15   5 4840.39 1507.59  10
   1 -15  -5 4453.77 1028.11   4
  -1  15   5 7900.27 1645.54   3
   1  15  -5 6929.36 1584.41   1
   1 -15  -4 9802.47 1486.10   4
   1  15  -4 10608.2 1871.50   1
   1  15  -3 6573.79 1420.56   1
   1 -15  -3 6202.60 1174.37   4
  -1 -15   3 5975.18 800.243  19
   1 -15  -2 39866.2 2844.78   4
   1  15  -2 43640.3 3563.19   1
   1  15  -1 28333.3 2779.64   1
  -1  15   1 31142.9 2856.32   1
   1  15   0 7319.93 1469.73   1
  -1  15   0 6808.21 1381.67   1
   1  15   1 4693.40 1182.77   1
  -1 -15  -1 4363.56 952.373   4
  -1  15  -1 6318.24 1308.79   1
  -1 -15  -2 21815.0 2152.28   4
  -1  15  -2 24532.7 2568.13   1
  -1  15  -3 8637.12 1549.79   1
  -1 -15  -3 7342.43 1386.82   4
   1 -15   3 7592.37 957.747  19
  -1  15  -4 436.444 540.753   1
  -1 -15  -4 849.542 655.535   4
   1 -15   4 311.543 299.351  19
   1 -15   5 1424.23 482.419  19
   1 -15   5 480.839 614.665  10
  -1  15  -5 839.937 463.373   1
   1  15   5 1435.54 826.025   3
  -1 -15  -5 1653.56 739.601   4
   1  15   6 5443.53 1395.01   7
   1  15   6 5493.34 1471.53   3
   1 -15   6 4504.41 1407.25  10
  -1 -15  -6 4715.04 1165.04   4
  -1 -15  -7-359.160 550.394   4
   1  15   7 152.314 434.852   7
   1 -15   7-268.951 534.261  10
   1  15   7 394.513 561.182   3
  -1 -15  -8 257.796 360.685  21
   1  15   8-659.467 617.254   7
   1  15   8 534.328 736.645   3
   1  15   9-339.135 605.319   7
  -1 -15  -9 98.4843 306.232  21
   1 -15   9 254.497 591.001  10
   1  15   9 83.9328 407.138   3
   1  15  10 1247.34 697.542   7
   1  15  10 1332.70 668.599   3
   1  15  10 1442.95 543.999  24
   1  15  10 1653.61 1020.19   2
   1 -15  10 978.398 731.903  10
  -1 -15 -10 1724.35 546.171  21
   1  15  11 3324.08 711.441  24
   1 -15  11 2430.15 1029.46  10
   1  15  11 3267.96 1313.03   2
   1  15  11 3338.44 1047.56   7
   1 -15  12-411.890 541.868  10
   1  15  12 52.6285 420.623   2
   1  15  12 103.384 233.082  24
   1 -15  13-701.338 660.669  10
   1  15  13 1159.81 774.645   2
   1 -15  14 3485.93 907.567  10
  -1 -16  13 463.463 506.690  10
  -1  16  13-895.945 601.968   2
  -1  16  12 7309.60 1719.68   2
  -1 -16  12 8671.77 1708.77  10
  -1 -16  11 678.407 646.797  10
  -1  16  11 327.061 557.379   2
   1 -16 -10 3191.32 689.920  21
  -1 -16  10 4428.41 1408.82  10
  -1  16  10 4446.67 1601.52   2
  -1 -16   9-504.049 557.187  10
   1 -16  -9 529.522 406.681  21
   1 -16  -8-81.1712 400.995  21
  -1  16   8-40.2139 419.233   3
  -1  16   7 827.181 774.046   7
   1 -16  -7 304.129 400.114   4
   1 -16  -7 735.140 434.124  21
  -1  16   7 161.475 631.308   3
  -1 -16   7-82.7907 577.533  10
   1  16  -7-230.901 509.482   1
  -1  16   7 470.859 760.885  16
   1 -16  -6 2589.25 945.104   4
   1 -16  -6 2876.38 750.395  21
   1  16  -6 2853.63 1123.08   1
  -1  16   6 2198.77 760.533   7
  -1  16   6 1440.59 811.170   3
  -1  16   5 182.679 418.565   7
  -1  16   5 838.799 665.549   3
   1  16  -5-234.536 450.058   1
  -1 -16   5 874.505 850.164  10
   1 -16  -5-8.77672 420.150   4
   1 -16  -4 13005.0 1843.14   4
  -1  16   4 12485.0 2174.06   3
  -1 -16   4 13730.1 2352.31  10
   1  16  -4 12791.0 2091.29   1
   1  16  -3-1046.50 709.835   1
   1  16  -2-215.248 435.539   1
   1  16  -1 1743.73 820.309   1
   1  16   0 771.008 544.151   1
  -1  16   0 750.970 586.808   1
  -1  16  -1 2336.57 891.436   1
   1  16   1 1430.46 825.806   1
  -1 -16  -2 3988.69 1033.01   4
  -1  16  -2 4999.54 1302.73   1
   1 -16   3-78.0210 307.674  19
  -1  16  -3-136.597 447.419   1
  -1 -16  -3 398.659 415.103   4
   1 -16   4 4464.04 786.584  19
   1 -16   4 5273.70 1496.25  10
  -1 -16  -4 5818.11 1273.61   4
   1  16   4 1064.49 625.589   3
  -1  16  -4 5851.01 1387.63   1
   1  16   5 688.942 696.715   3
   1 -16   5-587.557 630.345  10
  -1 -16  -5 818.873 687.867   4
   1  16   5 877.833 561.975   7
   1 -16   5 276.233 320.849  19
   1 -16   6 10291.4 2100.89  10
  -1 -16  -6 10519.6 1772.79   4
   1  16   6 7561.64 1780.33   3
   1  16   6 10698.6 1799.07   7
  -1 -16  -7 963.257 691.402   4
  -1 -16  -7 1126.58 529.523  21
   1  16   7-586.250 577.381   7
   1  16   7-1495.20 866.285   3
   1 -16   7-1380.29 866.838  10
   1  16   8 11639.6 2205.70   3
   1 -16   8 10703.5 2111.60  10
   1  16   8 14881.9 2172.18   7
  -1 -16  -8 13540.8 1506.73  21
   1  16   9 1777.97 831.381   7
   1  16   9 986.171 612.529   3
  -1 -16  -9 2016.16 625.747  21
   1 -16   9 2033.64 1055.54  10
   1  16  10 266.310 236.361  24
   1  16  10 373.593 500.337   7
  -1 -16 -10 617.319 359.309  21
   1 -16  10 913.059 714.403  10
   1  16  10-78.1580 457.012   3
   1  16  11 609.253 827.530   2
   1  16  11 747.965 387.778  24
   1 -16  11 1169.60 723.930  10
   1 -16  12 308.054 529.925  10
   1  16  12-710.081 615.169   2
   1  16  13 1483.85 758.348   2
   1 -16  13 605.461 439.015  10
  -1  17  13-387.586 418.828   2
  -1 -17  13 395.676 464.112  10
  -1 -17  12 1313.44 708.625  10
  -1  17  12 1846.52 925.895   2
  -1  17  11 292.246 489.417   2
  -1 -17  11 368.074 497.595  10
  -1 -17  10 310.180 620.604  10
   1 -17 -10-23.7493 270.422  21
  -1  17  10 1137.87 854.385   2
  -1 -17   9 430.830 544.269  10
  -1  17   9-751.466 660.609   3
   1 -17  -9-472.427 311.457  21
  -1 -17   8 137.490 510.287  10
  -1  17   8 395.919 397.858   3
   1 -17  -8-11.0404 304.477  21
   1 -17  -7-342.169 414.767  21
  -1 -17   7 406.359 779.344  10
  -1  17   7 176.236 425.146   3
  -1  17   6 2460.17 1056.66   3
  -1 -17   6 4720.48 1441.56  10
   1 -17  -6 2815.57 745.645  21
   1  17  -6 4265.27 1203.28   1
   1  17  -5 5776.59 1412.46   1
  -1 -17   5 8265.89 1894.77  10
  -1  17   5 6653.36 1735.41   3
  -1  17   4 11985.4 2119.26   3
  -1 -17   4 10746.8 1983.78  11
  -1 -17   4 10067.6 2088.48  10
   1  17  -4 7633.27 1711.25   1
  -1 -17   3 3281.03 1117.65  11
  -1 -17   3 3926.93 1416.24  10
   1  17  -3 2658.26 1005.77   1
  -1  17   3 3114.98 1022.17   3
   1  17  -2 776.574 718.283   1
  -1 -17   2 1878.27 900.687  11
  -1 -17   2 321.741 496.739  10
  -1  17   1 14146.5 2108.71   3
   1  17  -1 16379.7 2301.38   1
  -1 -17   1 16885.8 2596.97  10
   1  17   0 11689.1 1968.37   1
   1  17   0 12990.9 2093.28   3
  -1  17   0 12559.1 2029.08   1
  -1  17   0 11295.2 1863.47   3
   1  17   1-490.341 552.250   3
   1  17   1-86.6055 527.362   1
   1 -17   1-739.860 670.533  10
  -1  17  -1 987.304 657.675   3
  -1  17  -1 858.851 591.573   1
   1  17   2 2520.82 1009.92   3
   1 -17   2 1563.18 508.138  19
  -1  17  -2 1308.01 703.593   1
  -1 -17  -2 1710.36 714.570   4
   1 -17   2 2179.72 944.813  10
   1  17   3 16075.3 2383.62   3
  -1 -17  -3 12616.5 1787.83   4
   1 -17   3 13372.2 2368.86  10
   1 -17   3 14114.4 1350.71  19
  -1  17  -3 18316.7 2484.76   1
   1 -17   4 210.351 250.954  19
   1 -17   4 548.837 691.568  10
   1  17   4-3.00688 578.439   3
  -1 -17  -4 273.385 411.522   4
  -1 -17  -5 4444.02 1207.29   4
   1  17   5 2405.37 1082.89   3
   1 -17   5 1734.23 937.751  10
   1  17   5 4072.08 1235.28   7
   1  17   6 16535.6 2256.31   7
   1  17   6 14837.0 2439.12   3
  -1 -17  -6 17037.3 2237.47   4
   1 -17   6 14365.0 2455.05  10
   1 -17   7-122.557 605.134  10
   1  17   7 31.8282 432.974   7
  -1 -17  -7-19.3493 287.206  21
   1  17   7-345.423 526.320   3
  -1 -17  -8 105.105 291.598  21
   1  17   8-149.207 415.646   3
   1  17   8 7.68795 499.813   7
   1 -17   8 362.901 553.913  10
   1  17   9 241.480 439.662   3
   1  17   9 1632.51 847.477   2
   1  17   9 559.615 586.889   7
  -1 -17  -9 1304.59 491.570  21
   1 -17   9 368.984 679.594  10
  -1 -17 -10 1106.95 455.132  21
   1  17  10 598.686 705.628   2
   1  17  10 900.955 434.707  24
   1 -17  10-546.500 575.396  10
   1  17  11-1003.63 715.778   2
   1  17  11-543.669 336.079  24
   1 -17  12-284.002 517.938  10
   1  17  12 81.9128 364.062   2
   1  17  13 1645.78 710.271   2
   1 -17  13 711.343 442.257  10
  -1  18  12-417.858 493.170   2
  -1 -18  12 1001.27 559.888  10
  -1 -18  11 135.645 420.937  10
  -1  18  11 395.936 530.463   2
  -1 -18  10 456.829 579.483  10
  -1  18  10 574.300 531.197   2
   1 -18  -9 6454.56 1003.55  21
  -1  18   9 4504.56 1276.76   3
  -1 -18   9 4944.16 1401.57  10
  -1 -18   8 483.694 695.205  10
  -1  18   8 755.345 720.441   3
   1 -18  -8 833.912 413.157  21
   1 -18  -7 3437.29 812.712  21
  -1  18   7 3210.35 1159.46   3
  -1 -18   7 3651.55 1303.58  10
   1 -18  -6 481.190 276.440  21
  -1  18   6 426.244 675.904   3
  -1 -18   6-223.345 538.092  10
  -1  18   5 1612.32 769.947   3
  -1 -18   5 752.117 717.880  10
   1 -18  -5 515.023 431.124  21
   1  18  -4 474.177 498.987   1
  -1  18   4 1416.49 913.463   3
  -1 -18   4 1421.33 875.802  10
   1  18  -3 5016.13 1398.94   1
  -1  18   3 8119.21 1730.72   3
  -1 -18   3 9314.84 1856.04  11
  -1 -18   3 7016.95 1761.25  10
  -1 -18   2 1517.04 905.558  10
  -1  18   2 1962.10 894.343   3
   1  18  -2 1763.11 1017.24   1
   1  18  -1 486.571 499.086   1
  -1 -18   1 378.928 455.950  10
  -1  18   1 609.705 585.842   3
   1  18  -1 80.1034 525.405   3
   1  18   0 4786.37 1265.21   3
  -1  18   0 4798.14 1264.06   3
   1  18   0 6987.72 1633.27   1
  -1  18  -1 1845.88 983.285   1
   1  18   1 297.885 435.570   3
   1 -18   1 537.318 529.175  10
  -1  18  -1 372.500 433.611   3
   1 -18   2 7062.94 1843.82  10
  -1  18  -2 8232.11 1700.83   1
   1  18   2 7428.15 1686.85   3
   1 -18   2 8980.17 1111.44  19
  -1  18  -3 6077.06 1366.23   1
  -1 -18  -3 6148.71 1289.00   4
   1 -18   3 7541.65 1846.75  10
   1  18   3 6304.24 1596.81   3
   1 -18   3 7757.35 1028.85  19
   1 -18   4 607.453 288.194  19
  -1 -18  -4 1308.65 659.950   4
   1  18   4 1144.96 749.399   3
   1 -18   4 810.889 621.561  10
   1  18   5 2643.15 1036.87   3
   1 -18   5 213.169 777.155  10
   1 -18   6 209.144 569.536  10
   1  18   6-576.815 658.611   3
   1  18   6-161.330 519.598   7
   1  18   7-214.294 471.116   3
   1  18   7 385.263 475.338   7
  -1 -18  -7-50.5945 339.763  21
   1  18   8-408.094 505.346   7
  -1 -18  -8 432.351 390.812  21
   1 -18   8-526.773 581.250  10
   1  18   8-600.909 592.512   3
  -1 -18  -9 4784.54 857.983  21
   1  18   9 5603.34 1597.21   2
   1 -18   9 4965.56 1401.31  10
   1  18   9 4814.47 1317.30   3
  -1 -18 -10 3641.34 700.600  21
   1  18  10 4812.01 753.178  24
   1 -18  10 2356.31 1010.27  10
   1  18  10 4556.52 1402.64   2
   1 -18  11 2306.00 869.727  10
   1  18  11 2717.05 1028.59   2
   1 -18  12-145.608 412.210  10
   1  18  12 281.958 445.430   2
  -1 -19  12-755.693 454.681  10
  -1  19  12 508.954 410.476   2
  -1 -19  11-84.4399 412.857  10
  -1  19  11-417.630 445.257   2
  -1 -19  10 430.500 513.099  10
  -1  19  10-30.3571 413.960   2
  -1  19   9 610.927 447.247   3
   1 -19  -9 166.403 284.758  21
  -1 -19   9 495.464 492.289  10
  -1  19   8-257.392 475.854   3
  -1 -19   8-347.930 693.788  10
   1 -19  -8-48.2806 326.618  21
   1 -19  -7 1166.51 501.762  21
  -1 -19   7 2151.55 890.325  10
  -1  19   7 2032.84 966.388   3
   1 -19  -6 1165.10 525.253  21
  -1 -19   6 1427.83 895.494  10
  -1  19   6 781.438 625.607   3
   1 -19  -5 2052.52 658.327  21
  -1  19   5 1845.21 932.416   3
  -1 -19   5 2453.22 1032.88  10
  -1 -19   4 892.604 757.975  10
  -1  19   4 447.223 587.178   3
  -1  19   3 8797.02 1818.60   3
  -1 -19   3 6826.83 1762.79  10
  -1 -19   2 41893.6 4211.54  10
  -1  19   2 40279.2 3754.91   3
   1  19  -2 42437.7 3926.84   1
  -1  19   1 35025.6 3492.61   3
   1  19  -1 32056.5 3343.29   3
   1  19  -1 37359.1 3658.84   1
  -1  19   0 459.930 572.966   3
   1  19   0 1734.17 977.685   3
   1  19   0 758.290 614.077   1
  -1  19  -1-637.548 576.905   3
   1  19   1 613.922 643.139   3
   1 -19   1 420.900 370.363  19
  -1  19  -1-53.7885 420.331   1
   1 -19   2 4309.31 1424.14  10
   1  19   2 3376.50 1126.68   3
  -1  19  -2 2908.14 1006.41   3
   1 -19   2 3641.21 796.170  19
   1 -19   3 25836.2 3299.11  10
   1  19   3 23854.2 2989.38   3
   1 -19   4 1201.77 878.439  10
   1  19   4 1770.80 939.583   3
   1 -19   5 1.70409 568.698  10
   1  19   5-585.756 616.280   3
   1 -19   6 1377.98 763.515  10
  -1 -19  -6 300.788 334.143  21
   1  19   6 166.731 466.349   3
   1 -19   7-357.929 532.158  10
  -1 -19  -7 181.667 303.568  21
   1  19   7-592.148 567.820   3
  -1 -19  -8 704.448 355.938  21
   1 -19   8 608.069 580.192  10
   1  19   8-71.0765 406.570   3
  -1 -19  -9-138.864 240.446  21
   1  19   9 302.851 393.897   3
   1  19   9 1.56931 545.184   2
   1 -19   9-233.249 406.824  10
   1  19  10 468.590 525.465   2
   1  19  10-249.160 251.061  24
  -1 -19 -10-186.595 218.291  21
   1 -19  10-173.901 393.436  10
   1  19  11 567.097 458.151   2
   1 -19  11 203.928 385.124  10
  -1  20  11 35.6094 357.809   2
  -1 -20  11 318.508 316.797  10
  -1 -20  10 350.628 455.500  10
  -1  20  10 2130.18 891.876   2
  -1 -20   9 1499.95 789.363  10
   1 -20  -9 1726.88 501.924  21
  -1  20   9 2398.61 1061.74   2
  -1 -20   8 1736.07 776.350  10
   1 -20  -8 1368.73 469.077  21
  -1  20   8 924.293 578.625   3
  -1  20   7-175.616 384.070   3
  -1 -20   7-154.870 597.832  10
   1 -20  -7-97.6683 262.680  21
  -1 -20   6 216.510 554.616  10
   1 -20  -6 413.928 379.502  21
  -1  20   6-97.7097 485.844   3
   1 -20  -5 836.836 424.801  21
  -1 -20   5 1314.54 815.903  10
  -1  20   5 2062.98 904.313   3
  -1 -20   4 9632.61 1991.90  10
  -1  20   4 9114.45 1829.81   3
   1 -20  -4 7722.81 1189.53  21
  -1  20   3-135.850 421.089   3
  -1 -20   3 524.094 810.407  10
   1  20  -2-880.565 649.856   3
  -1  20   2 214.565 473.790   3
  -1  20   1 859.210 656.057   3
   1  20  -1-171.305 554.728   3
  -1  20   0 351.679 509.362   3
   1  20   0 501.704 632.278   3
  -1  20  -1 480.494 709.907   3
   1  20   1 1684.86 860.838   3
  -1  20  -2 295.494 446.306   3
   1  20   2 991.731 773.909   3
   1 -20   3 1757.94 825.537  10
  -1  20  -3 2179.89 813.957   3
   1  20   3 2290.79 959.545   3
   1  20   4 1894.57 926.833   3
  -1  20  -4 2748.55 990.284   3
   1 -20   4 1553.79 960.262  10
   1 -20   5-136.950 438.430  10
   1  20   5-563.798 429.699   3
  -1 -20  -6 16812.3 1641.76  21
   1  20   6 16157.2 2416.86   3
   1 -20   6 16114.6 2474.89  10
   1 -20   7 986.649 805.178  10
   1  20   7 729.649 716.825   3
  -1 -20  -7 825.593 428.766  21
   1 -20   8 4586.68 1291.53  10
   1  20   8 4355.21 1191.50   3
  -1 -20  -8 4747.16 844.839  21
   1 -20   8 5478.26 1412.68   8
  -1 -20  -9 897.771 427.085  21
   1 -20   9 1106.25 687.728  10
   1  20   9 1003.98 359.800  24
   1  20   9 926.744 621.722   2
   1  20   9 136.175 375.495   3
   1  20  10 610.303 508.600   2
   1 -20  10 409.189 467.659  10
   1 -20  11 193.394 342.591  10
   1  20  11 751.493 494.206   2
  -1  21  10 750.899 577.538   2
  -1 -21  10 342.592 403.132  10
  -1  21   9-334.760 421.635   2
  -1 -21   9-136.036 427.954  10
  -1  21   8 899.234 583.509   3
  -1 -21   8 6.31334 372.809  10
   1 -21  -8 166.377 309.605  21
   1 -21  -7 676.774 401.286  21
  -1 -21   7 1123.04 725.080  10
  -1  21   7-426.935 473.866   3
   1 -21  -6 455.124 354.392  21
  -1 -21   6 541.645 509.862  10
  -1  21   6 125.510 469.194   3
  -1  21   5-844.514 618.173   3
  -1 -21   5 252.862 425.223  10
   1 -21  -5-176.520 327.306  21
  -1  21   4 16956.6 2436.00   3
   1  21  -4 15949.4 2334.53   3
  -1 -21   4 17090.0 2627.41  10
   1 -21  -4 19001.9 1732.28  21
  -1  21   3 1557.25 874.829   3
   1 -21  -3 966.552 495.653  21
   1  21  -3 190.620 519.777   3
   1  21  -2 8657.70 1708.59   3
  -1  21   2 10318.5 1951.10   3
   1  21  -1 734.175 687.499   3
  -1  21   1 185.772 435.515   3
  -1  21   0 4689.10 1257.10   3
   1  21   0 5546.64 1471.51   3
   1  21   1 1076.75 576.165   3
  -1  21  -1 1034.27 884.364   3
   1  21   2 3557.83 1174.37   3
  -1  21  -2 6721.16 1503.73   3
  -1  21  -3 289.825 447.050   3
   1  21   3 1221.27 702.537   3
   1  21   4 8848.35 1791.74   3
  -1  21  -4 8385.59 1595.37   3
   1 -21   4 5805.26 1542.90  10
   1 -21   5 477.632 489.011  10
  -1 -21  -5 634.957 407.692  21
   1  21   5 1019.41 701.209   3
  -1  21  -5 1311.33 748.299   3
  -1 -21  -6 3418.21 735.893  21
   1 -21   6 2515.00 1050.18  10
   1  21   6 2658.30 916.583   3
   1  21   7 2004.55 861.783   3
   1 -21   7 1941.57 984.228  10
  -1 -21  -7 147.288 367.696  21
   1 -21   8 18.4070 402.829  10
   1 -21   8-111.783 349.627   8
  -1 -21  -8 284.561 319.558  21
   1  21   8 5.18878 504.015   2
   1  21   8 125.220 348.564   3
   1 -21   9-211.394 455.460  10
   1  21   9-658.305 278.988  24
   1  21   9 369.989 428.846   2
  -1 -21  -9 18.4387 225.076  21
   1  21  10 959.548 514.338   2
   1 -21  10 207.397 324.355  10
  -1 -22   9 246.169 352.887  10
  -1  22   9 847.092 509.242   2
  -1  22   8 678.592 632.544   2
   1 -22  -8 525.552 309.530  21
  -1 -22   8 26.2919 306.456   8
  -1 -22   8 530.812 432.554  10
   1  22  -8 341.514 340.721   3
  -1  22   7 690.440 455.714   3
   1 -22  -7 530.627 313.648  21
   1  22  -7-55.3763 273.486   3
  -1 -22   7 87.0736 342.128  10
   1 -22  -6 3658.35 724.659  21
  -1 -22   6 3815.14 1098.30  10
  -1  22   6 3634.29 1078.23   3
   1  22  -6 3456.26 923.644   3
   1  22  -5 2492.80 895.004   3
  -1  22   5 2338.41 900.695   3
  -1 -22   5 3257.65 1155.41  10
   1 -22  -5 2750.76 664.196  21
   1 -22  -4 1824.32 564.050  21
   1  22  -4 1895.31 799.958   3
  -1  22   4 1661.96 742.421   3
   1  22  -3 2695.74 958.769   3
  -1  22   3 2799.12 1002.22   3
   1 -22  -3 3205.01 716.326  21
   1 -22  -2 294.238 372.040  21
   1  22  -2 92.4138 403.039   3
  -1  22   2-98.7399 392.857   3
   1  22  -1 697.301 708.803   3
  -1  22   1 408.302 683.176   3
   1 -22  -1 576.630 421.533  21
  -1  22   0-31.1757 369.844   3
   1  22   0 111.625 497.504   3
   1  22   1-986.832 658.521   3
  -1  22  -1-1050.32 670.372   3
   1  22   2 29.7923 403.420   3
  -1  22  -2-1195.36 673.564   3
  -1  22  -3 1181.32 660.602   3
   1  22   3-848.969 650.521   3
  -1 -22  -4 1492.55 544.364  21
   1  22   4 3109.80 1067.91   3
  -1  22  -4 2329.99 860.705   3
  -1 -22  -5 663.967 379.168  21
   1  22   5 1713.27 878.215   3
   1 -22   6 7326.97 1544.91  10
  -1 -22  -6 7977.16 1039.86  21
   1  22   6 8579.15 1615.21   3
   1  22   7-222.818 373.656   3
  -1 -22  -7 26.4164 236.485  21
   1 -22   7 87.7872 518.298   8
   1  22   8 1104.47 566.217   3
  -1 -22  -8 826.142 358.810  21
   1  22   8 1643.81 729.565   2
   1 -22   8 1344.07 531.407   8
   1 -22   8 1061.78 599.767  10
   1  22   9 2226.09 707.198   2
  -1  23   8 51.7949 264.344   2
  -1  23   7 2115.94 705.328   3
   1 -23  -7 1281.37 401.979  21
   1  23  -7 1849.08 608.011   3
   1 -23  -6 846.032 352.976  21
   1  23  -6-172.725 326.693   3
  -1  23   6 40.9786 363.519   3
  -1  23   5 1063.40 567.872   3
   1  23  -5 1166.57 615.862   3
   1 -23  -5 210.925 280.258  21
   1  23  -4 232.772 409.713   3
  -1  23   4 170.972 540.228   3
   1 -23  -4 507.558 257.943  21
  -1  23   3-359.971 365.171   3
   1 -23  -3 248.979 309.211  21
   1 -23  -2 2784.17 668.462  21
  -1  23   2 3063.22 950.752   3
   1  23  -2 2920.10 965.892   3
  -1  23   1 4840.43 1203.61   3
   1 -23  -1 3700.67 697.243  21
   1  23  -1 4109.84 1144.25   3
   1  23   0 1193.24 727.399   3
  -1  23   0 641.655 368.458   3
   1  23   1 3556.24 1121.81   3
  -1  23  -1 3338.12 989.002   3
  -1  23  -2 206.287 338.907   3
   1  23   2-1648.16 780.534   3
  -1  23  -3 366.715 387.461   3
   1  23   3 104.276 455.317   3
  -1 -23  -3 34.5810 226.753  21
  -1 -23  -4 169.717 313.508  21
   1  23   4-661.218 541.920   3
   1  23   5 805.198 543.979   3
  -1 -23  -5 484.899 351.853  21
  -1 -23  -6 502.408 316.459  21
   1  23   6 716.254 580.701   3
   1 -23   6 282.804 499.167   8
   1  23   7 550.278 567.083   2
   1 -23   7 747.184 493.693   8
   1  23   7 2402.90 758.477   3
  -1 -23  -7 1803.99 456.733  21
   1  23   8 527.387 503.842   2
  -1 -23  -8 34.6270 165.607  21
   1 -23   8-518.106 390.716   8
  -1 -24   7 5013.17 1017.91   8
  -1  24   7 3986.97 954.310   2
  -1  24   6 663.004 421.566   3
   1  24  -6 12.7768 252.988   3
   1 -24  -6 803.290 313.102  21
   1 -24  -6 204.211 300.449   5
   1 -24  -5 710.906 345.031  21
  -1  24   5 209.434 301.128   3
   1  24  -5 979.205 544.253   3
  -1  24   4 1074.43 625.712   3
   1 -24  -4 662.943 335.230  21
   1  24  -4 71.2345 383.145   3
   1 -24  -3 81.5261 275.864  21
   1  24  -3 185.653 392.743   3
  -1  24   2 675.120 426.187   3
   1  24  -2 1153.89 590.101   3
   1 -24  -2 22.2265 223.980  21
   1 -24  -1 1497.99 458.184  21
   1 -24  -1 849.433 566.104   8
   1  24  -1 1315.26 639.236   3
  -1  24   1 1165.11 616.441   3
  -1  24   0-1005.73 584.690   3
   1  24   0-1663.13 740.212   3
  -1  24  -1 1069.81 569.340   3
   1  24   1 2862.43 898.250   3
  -1 -24  -1 2120.40 552.935  21
  -1 -24  -2 209.265 285.055  21
   1  24   2-52.5696 431.993   3
  -1  24  -2 661.164 475.226   3
  -1 -24  -3 291.103 283.413  21
   1  24   3 1106.29 632.683   3
  -1 -24  -4 366.641 306.607  21
   1  24   4-280.925 406.885   3
  -1 -24  -5 2052.45 478.115  21
   1  24   5 1607.37 650.943   3
   1 -24   5 2768.89 889.352   8
   1  24   6-32.3750 253.787   3
  -1 -24  -6-312.085 260.084  21
   1  24   7 707.796 495.403   3
  -1 -24  -7 734.481 294.825  21
   1 -24   7 1595.16 636.542   8
   1 -25  -5 366.399 227.697  21
  -1 -25   5-217.349 480.140   8
  -1  25   5-270.292 315.981   3
  -1  25   4-129.338 290.515   3
   1 -25  -4 304.862 204.826  21
   1  25  -4 59.8263 242.808   3
  -1  25   3 498.041 398.145   3
   1 -25  -3-44.0718 239.651  21
   1 -25  -2 2080.03 432.480  21
   1  25  -2 2700.98 806.555   3
  -1  25   2 3833.76 954.720   3
  -1  25   1-140.831 326.004   3
   1 -25  -1-541.098 445.135   8
   1  25  -1-167.332 316.553   3
   1  25   0 700.334 416.660   3
  -1  25   0 304.366 331.039   3
  -1 -25   0 737.204 340.349  21
   1 -25   0 1314.47 618.965   8
   1 -25   1 80.6543 415.560   8
  -1 -25  -1 628.195 311.579  21
   1  25   1 82.4492 394.668   3
  -1  25  -1 198.987 327.154   3
  -1 -25  -2 3363.23 605.545  21
   1 -25   2 4368.10 1112.26   8
   1  25   2 4081.07 1014.18   3
  -1 -25  -3 1771.93 438.689  21
   1 -25   3 2379.76 870.460   8
   1  25   3 2576.80 806.783   3
   1  25   4 1075.03 520.917   3
   1 -25   4 826.362 530.442   8
  -1 -25  -4 148.211 196.705  21
   1 -25   5 76.0367 285.268   8
   1  25   5-498.712 474.066   3
  -1 -25  -5 138.948 196.206  21
  -1 -25  -6-357.620 230.894  21
  -1 -26   3 501.109 473.488   8
  -1 -26   2 203.740 369.712   8
   1  26  -2 5.39725 226.453   3
   1  26  -1 540.365 431.108   3
  -1 -26   1 13.3705 444.526   8
   1 -26   0 483.511 368.681   8
  -1 -26   0 1214.50 512.634   8
   1 -26   1 849.725 454.773   8
   1  26   1 1264.93 517.502   3
  -1 -26  -2 160.142 206.149  21
   1 -26   2 682.019 466.501   8
   1  26   2 1105.59 562.747   3
   1 -26   3 742.980 468.956   8
  -1 -26  -3 916.880 295.581  21
   1  26   3 1050.83 462.123   3
  -2   0  17 536.047 394.583  10
  -2   0  16 2503.61 829.021  11
  -2   0  16 3581.05 1063.93  10
  -2   0  15-396.161 490.149  11
  -2   0  15-307.041 610.572  10
  -2   0  14 1976.90 1036.14  10
  -2   0  14 2285.83 884.875  11
  -2   0  13-815.559 703.432  11
  -2   0  12 1228.54 902.599  12
  -2   0  12 807.416 398.450  11
  -2   0  11 385.628 601.078  12
  -2   0  11-200.794 457.815  11
  -2   0  10 642.260 675.527  12
  -2   0   9 119.264 503.348  12
  -2   0   8 4939.95 1310.32  12
  -2   0   7-1088.76 629.820  12
  -2   0   6 29409.5 1670.21  16
  -2   0   5-109.677 249.810  16
  -2   0   4 12344.3 940.247  16
  -2   0   3 67.2161 96.4688  14
  -2   0   3 114.854 195.647  18
  -2   0   3-11.5293 193.651  16
  -2   0   2 711217. 3865.70  14
  -2   0   2 722319. 5222.87  18
  -2   0   1-29.7652 105.362  14
   2   0   0 447871. 3569.53  14
   2   0   1 31.1285 140.588  14
   2   0   2 44689.9 1361.02  14
  -2   0  -2 46910.0 1348.89  14
  -2   0  -3-209.295 197.440  15
   2   0   3-23.7673 199.067  14
   2   0   3 50.5940 293.486  12
   2   0   4 972599. 10987.1  12
   2   0   4 949355. 5772.60  20
   2   0   4 949628. 7208.07  14
  -2   0  -4 967968. 7202.04  15
   2   0   5 58.2936 164.941  14
  -2   0  -5 169.984 132.878  15
   2   0   5-170.683 356.692  12
   2   0   6 201.209 469.118  12
   2   0   7-29.5361 423.315  12
   2   0   8 20507.7 2455.32  12
   2   0   9 377.711 512.219  12
   2   0  10 6503.79 1751.50  12
   2   0  11 593.422 861.684  12
   2   0  11-14.7363 444.773  24
   2   0  12 7026.51 1029.78  24
   2   0  12 6022.86 799.293  22
   2   0  13-530.506 394.888  24
   2   0  13-437.839 504.085  22
   2   0  13-1672.76 881.019  10
   2   0  14 412.519 405.871  22
   2   0  14 518.378 396.123  10
   2   0  14 1091.22 495.388  24
   2   0  15 250.906 446.587  22
   2   0  15 850.187 704.694  10
   2   0  16 584.843 644.995  10
  -2   1  17 337.379 372.106  10
  -2  -1  17-138.108 296.298  10
  -2  -1  16 4324.50 1106.33  11
  -2   1  16 4007.60 1059.34  11
  -2  -1  16 3368.89 1052.94  10
  -2   1  16 4144.57 1143.93  10
  -2  -1  15 157.535 423.352  11
  -2   1  15 9.16986 359.540  11
  -2  -1  15-286.034 641.509  10
  -2   1  15-61.9385 401.000  10
  -2   1  14 2607.97 1110.56  10
  -2  -1  14 3563.05 1317.71  10
  -2   1  14 4798.70 1377.54  11
  -2  -1  14 4749.04 1287.94  11
  -2   1  13 4878.75 1438.47  11
  -2  -1  13 4893.94 1516.46  10
  -2  -1  13 5745.27 1624.08  11
  -2   1  12 1110.16 913.522  12
  -2   1  12 978.194 761.847  11
  -2  -1  12 349.301 595.165  12
  -2  -1  11 1226.46 659.155  12
  -2   1  11 380.846 631.407   2
  -2  -1  11 1410.46 860.075  11
  -2   1  11 1745.73 981.414  12
  -2   1  11 1056.84 737.205  11
  -2  -1  10 34719.7 3686.49  12
  -2   1  10 42920.1 4148.89  12
  -2  -1   9 12046.7 2035.85  12
  -2   1   9 12521.7 2191.06  12
  -2  -1   8 21313.9 2537.13  12
  -2   1   8 18873.3 2379.68  12
  -2   1   7-43.1171 241.733  16
  -2  -1   7 214.035 515.013  12
  -2  -1   6 19820.5 2005.58  12
  -2  -1   6 17143.6 1251.59  16
  -2   1   6 18939.2 1391.41  16
   2  -1  -5 12724.4 913.910   4
  -2   1   5 12785.7 1097.83  16
  -2   1   5 11651.2 503.234  15
  -2  -1   5 14275.4 1056.92  16
   2  -1  -4 8376.21 685.980   4
  -2   1   4 9577.21 839.372  16
   2  -1  -4 10745.3 906.190  18
  -2  -1   4 8802.23 773.547  16
  -2  -1   3 63327.8 1809.15  18
  -2   1   3 68740.6 1912.92  18
  -2   1   3 69009.5 1416.73  17
  -2   1   3 64229.5 2063.09  16
  -2  -1   3 64640.2 1888.47  16
  -2   1   2 8961.52 626.671  18
   2   1  -1 958.978 184.888  14
   2   1   0 9170.04 539.260  14
   2   1   1 2788.31 355.940  14
  -2  -1  -2 61142.4 1659.17  15
   2   1   2 58882.4 1618.12  14
  -2   1  -2 55753.1 1493.51  14
   2   1   3 10527.7 755.009  14
   2   1   3 11061.9 546.667  20
  -2  -1  -3 11038.4 763.171  15
   2   1   3 10932.8 1037.43  12
  -2   1  -3 11057.3 731.041  14
   2  -1   4 293307. 6183.00  12
   2   1   4 278215. 4011.43  14
  -2  -1  -4 286366. 4079.22  15
   2   1   4 276940. 5707.43  12
   2  -1   5 2346.72 746.786  12
   2   1   5 2735.81 718.356  12
  -2   1  -5 2433.86 384.813  15
  -2  -1  -5 1736.28 356.673  15
   2   1   5 2036.09 413.955  14
   2  -1   6 48548.0 3151.10  12
   2   1   6 46816.6 3024.65  12
   2  -1   7 62348.8 3872.87  12
   2   1   7 58273.9 3725.78  12
   2  -1   8 252585. 8623.02  12
   2   1   8 253420. 8406.35  12
   2   1   9 3339.78 1115.07  12
   2  -1   9 2627.53 1088.82  12
   2   1  10 87484.3 5912.74  12
   2  -1  10 94674.5 6187.17  12
   2  -1  11 589.389 752.752  12
   2   1  11 1053.50 983.916  12
   2  -1  11 354.771 359.975  24
   2   1  11 449.969 332.346  24
   2   1  12 4604.78 884.446  24
   2  -1  12 5123.51 957.942  24
   2  -1  12 7620.12 2052.10  12
   2  -1  12 4739.87 746.218  22
   2  -1  13 592.818 368.154  24
   2  -1  13 906.560 461.777  22
   2   1  13 520.535 431.153  24
   2  -1  13 561.133 675.934  10
   2   1  13 917.570 421.404  22
   2  -1  14 658.219 603.415  10
   2  -1  14 401.671 405.677  24
   2  -1  14-110.485 391.368  22
   2   1  14-108.299 410.216  10
   2   1  14-406.475 382.820  22
   2   1  14-94.1687 281.635  24
   2  -1  15-244.125 416.391  10
   2   1  15-14.5444 331.614  22
   2  -1  15 677.890 500.348  22
   2   1  15-237.659 254.624  24
   2   1  16-545.826 436.902  10
   2  -1  16 40.5308 336.765  10
  -2  -2  17 392.680 392.903  10
  -2   2  17 112.105 259.163  10
  -2  -2  16 2055.09 738.457  10
  -2   2  16 3114.21 959.415  10
  -2   2  16 4634.85 1143.18  11
  -2  -2  16 2952.89 834.183  11
  -2   2  15 579.981 551.309  11
  -2  -2  15 449.916 518.833  10
  -2  -2  15-17.6010 477.428  11
  -2   2  15-104.293 390.387  10
  -2  -2  14 524.946 428.230  11
  -2   2  14-4.64333 494.102  11
  -2  -2  14 444.477 520.287  10
  -2   2  13-396.120 553.193  11
  -2  -2  13-116.418 483.628  11
  -2  -2  13 512.481 670.195  10
  -2   2  12 122.706 555.726   2
  -2   2  12-504.097 753.622  12
  -2  -2  12-2129.62 966.960  11
  -2  -2  12 113.417 668.289  12
  -2  -2  12-30.1276 677.793  10
  -2   2  12 361.435 605.203  11
  -2   2  11-795.264 760.119   2
  -2  -2  11 505.168 838.484  11
  -2   2  11-443.728 664.508  12
  -2  -2  11-355.468 787.490  12
  -2   2  10-639.073 717.918  12
  -2  -2  10-386.589 640.426  12
  -2  -2   9 5051.41 1402.15  12
  -2   2   9 4088.35 1323.61  12
  -2  -2   8 201.552 445.261  12
  -2   2   7 1983.73 550.147  16
  -2  -2   7 947.074 608.644  12
  -2   2   6 17354.4 1358.47  16
  -2  -2   6 17078.7 1229.60  16
   2  -2  -6 17378.8 1290.46   4
  -2  -2   6 18293.1 1918.29  12
  -2  -2   5 12058.9 966.247  16
  -2   2   5 12814.8 739.163  15
   2  -2  -5 12184.7 992.463   4
  -2  -2   5 11278.7 1361.12  12
  -2   2   5 11888.8 1049.50  16
  -2  -2   4 134114. 2931.33  16
  -2  -2   4 138998. 4108.35  12
  -2   2   4 140971. 2432.59  17
  -2   2   4 134478. 3216.23  16
   2  -2  -4 135684. 3025.83   4
  -2   2   3 353421. 3893.43  17
  -2  -2   3 355082. 4396.22  16
  -2   2   3 346972. 4736.68  16
  -2  -2   3 341734. 4149.38  18
   2  -2  -3 341652. 4170.90   4
  -2   2   2 4788.58 471.082  18
  -2   2   2 3968.71 418.619  17
   2   2  -2 4643.45 325.787  14
  -2  -2   2 4486.33 337.900  15
  -2   2   1 2842.82 316.327  18
  -2  -2   1 3183.72 334.464  15
   2   2   0 5729.01 477.164  15
   2   2   1 116890. 2264.92  15
  -2   2  -2 245898. 3273.26  14
  -2   2  -3 1447.90 306.831  14
   2   2   3 1943.51 249.892  20
  -2  -2  -3 1209.63 316.354  15
   2  -2   4 66885.8 3065.62  12
  -2  -2  -4 68049.8 2127.79  15
  -2   2  -4 65127.4 1822.73  14
   2   2   4 65523.0 2057.04  14
   2  -2   4 65958.8 1596.28  20
   2   2   4 61657.3 2673.51  12
   2  -2   5 204.498 319.016  12
   2   2   5 238.246 329.390  12
   2   2   5 265.442 222.128  14
  -2  -2  -5 617.054 309.082  15
   2   2   6 4337.97 960.309  12
   2  -2   6 5962.91 1177.36  12
   2   2   7 23831.0 2420.76  12
   2  -2   7 27453.3 2679.28  12
   2  -2   8 8327.86 1685.79  12
   2   2   8 6580.38 1442.54  12
   2   2   9 56.6848 659.327  12
   2  -2   9 165.144 528.932  12
   2   2  10 5407.17 1641.43  12
   2  -2  10 5675.45 1583.08  12
   2  -2  11-95.7292 312.297  24
   2  -2  11-158.549 463.615  22
   2  -2  11-316.820 950.060  12
   2   2  11-697.929 421.948  24
   2   2  11 751.821 728.830   2
   2   2  11 1055.24 864.724  12
   2  -2  12 2830.09 721.688  24
   2   2  12 2200.34 614.311  24
   2  -2  12 4336.00 736.921  22
   2  -2  12 2327.69 1078.77  10
   2  -2  12 4520.16 1515.21  12
   2   2  12 4489.91 1647.78  12
   2  -2  13 3878.14 1267.80  10
   2   2  13 3511.72 756.614  24
   2  -2  13 3731.48 797.601  24
   2  -2  13 4004.64 711.527  22
   2   2  13 2858.31 567.642  22
   2  -2  14-205.259 364.253  22
   2   2  14-100.677 304.447  24
   2  -2  14 247.785 479.895  10
   2   2  14-823.169 439.034  22
   2   2  14-682.926 599.383  10
   2   2  15 679.839 578.395  10
   2   2  15 747.667 437.043  24
   2  -2  15-445.725 468.215  10
   2   2  15-8.38586 328.539  22
   2   2  16 554.684 476.036  10
   2  -2  16 986.050 654.603  10
  -2   3  17 834.468 454.733  10
  -2  -3  17-121.999 273.943  10
  -2  -3  16 125.522 458.798  10
  -2   3  16-261.663 555.438  10
  -2   3  16 296.927 419.829  11
  -2   3  15 4766.04 1270.84  11
  -2  -3  15 3003.50 937.361  11
  -2   3  15 3051.34 1107.98  10
  -2  -3  15 4658.97 1330.08  10
  -2  -3  14 1117.32 747.760  10
  -2   3  14 1463.86 811.247  11
  -2  -3  14 603.188 588.945  11
  -2  -3  13 891.813 508.785  10
  -2  -3  13 2573.47 1115.83  11
  -2   3  13 1133.78 889.391  11
  -2   3  12-1045.74 904.521  12
  -2  -3  12-2033.74 1125.85  12
  -2  -3  12 71.2879 514.913  10
  -2   3  12 95.6153 521.036   2
  -2  -3  12-730.669 753.552  11
  -2   3  12-279.215 568.396  11
  -2   3  11 49757.5 4866.33  12
  -2  -3  11 48462.9 4256.85  11
  -2   3  11 48478.3 4609.88   2
  -2  -3  11 48595.1 4386.21  10
  -2  -3  11 48002.6 2090.66  22
  -2  -3  11 51833.8 4790.83  12
  -2   3  10 1318.52 675.826  12
  -2  -3  10-88.1165 691.813  12
  -2   3   9 51743.1 4379.35  12
  -2  -3   9 52003.7 4198.98  12
  -2  -3   8 5150.13 1274.24  12
  -2  -3   7 19080.6 2175.67  12
  -2   3   7 19983.6 1666.91  16
   2  -3  -7 19404.2 1508.32   4
  -2  -3   6 6169.57 1107.10  12
  -2   3   6 6040.38 840.310  16
   2  -3  -6 6066.77 853.833   4
   2  -3  -5 13068.2 1113.19   4
  -2   3   5 12351.8 1097.99  16
  -2   3   5 13137.6 920.005  15
  -2  -3   5 11506.2 950.896  16
  -2  -3   5 11657.2 1372.57  12
  -2   3   4 23790.5 1205.97  17
  -2  -3   4 22468.6 1224.41  16
   2  -3  -4 23892.6 1384.46   4
  -2  -3   4 23536.2 1241.03  18
  -2  -3   4 24833.4 1796.11  12
  -2   3   4 21901.2 1404.78  16
   2  -3  -4 28412.8 1527.15  18
  -2  -3   3 364.360 177.630  17
   2  -3  -3 587.166 275.696   4
  -2   3   3 534.180 232.808  17
  -2  -3   3 544.109 287.949  12
  -2   3   3 434.389 261.948  16
  -2  -3   3 389.725 222.144  18
  -2  -3   3 635.238 259.871  16
  -2   3   2 10637.0 725.784  18
  -2   3   2 11224.1 794.986  17
   2   3  -2 10680.6 585.231  15
   2  -3  -2 10787.6 745.131  18
  -2   3   1 184.470 142.753  18
   2   3  -1-6.78252 137.263  15
  -2  -3   1 32.8036 157.741  15
   2   3   0 158.226 172.418  15
   2   3   1 14532.0 880.251  15
   2   3   2 11379.3 870.269  15
  -2   3  -3 3749.71 481.865  14
   2   3   3 3556.79 511.620  15
  -2  -3  -3 4279.94 553.366  15
   2  -3   4-132.083 277.605  12
   2  -3   4-24.2509 153.690  20
  -2   3  -4-62.1919 144.727  14
   2   3   4 156.537 310.736  12
  -2  -3  -4-184.386 205.824  15
  -2  -3  -5 4227.92 606.602  15
   2  -3   5 4049.38 939.547  12
  -2   3  -5 4227.52 514.900  14
   2   3   5 4390.01 841.688  12
   2   3   6 3607.77 874.102  12
   2  -3   6 4008.05 1032.69  12
   2   3   6 3052.63 559.024  14
   2  -3   7 120338. 5552.58  12
   2   3   7 116480. 5303.29  12
   2   3   8 1969.18 949.031  12
   2  -3   8 1873.02 897.069  12
   2  -3   9 47017.5 4124.50  12
   2   3   9 44164.6 3927.40  12
   2  -3  10 916.597 862.615  12
   2   3  10 478.222 785.556  12
   2   3  11 4771.11 1466.18   2
   2   3  11 7705.86 1080.26  24
   2  -3  11 5111.45 714.949  22
   2   3  11 6452.97 1833.44  12
   2  -3  11 6540.71 1754.97  12
   2  -3  11 5163.31 921.508  24
   2  -3  11 5578.43 1460.16  10
   2   3  12 1895.90 1214.30   2
   2   3  12 1623.13 1014.70  12
   2  -3  12 1285.04 474.929  22
   2   3  12 1131.96 470.013  24
   2  -3  12 749.531 451.342  24
   2  -3  12 2720.87 1253.53  12
   2  -3  12 782.928 683.948  10
   2   3  13 1991.67 636.979  24
   2  -3  13 2308.53 578.967  22
   2  -3  13 1685.60 776.844  10
   2   3  13 2404.63 609.292  22
   2  -3  13 1602.25 586.099  24
   2  -3  14 260.257 419.939  22
   2  -3  14-779.343 655.818  10
   2   3  14-57.5269 262.724  24
   2   3  14-78.4237 344.025  22
   2  -3  15 239.968 444.117  10
   2   3  15-945.626 627.258  10
   2   3  15-60.1763 250.586  24
   2  -3  16-259.638 534.434  10
   2   3  16-95.1766 327.431  10
  -2   4  17 23.6303 246.868  10
  -2  -4  17-284.596 293.251  10
  -2  -4  16 15.6876 336.785  10
  -2   4  16-374.216 432.117  10
  -2  -4  15 3451.50 1209.13  10
  -2  -4  15 3355.82 1018.79  11
  -2   4  15 3709.99 1057.88  11
  -2  -4  14 4418.31 1289.73  11
  -2   4  14 3863.40 1275.34  11
  -2  -4  14 3792.64 1222.86  10
  -2  -4  13 236.713 540.448  10
  -2  -4  13-859.840 668.594  11
  -2   4  13 350.689 629.263   2
  -2   4  13 546.603 586.210  11
  -2   4  12-1725.14 1086.83  12
  -2  -4  12 1515.77 751.529  11
  -2   4  12 191.804 572.086   2
  -2  -4  12-602.862 677.679  10
  -2  -4  12 419.327 747.921  12
  -2   4  11 631.710 882.883  12
  -2  -4  11 458.393 597.461  12
  -2  -4  11 1614.23 866.057  11
  -2   4  11 1159.49 774.466   2
  -2  -4  11-132.275 461.600  10
  -2  -4  10 304.278 520.951  12
  -2   4  10 1013.35 927.964  12
  -2  -4   9 5544.39 1493.30  12
  -2   4   8 138.127 249.879  16
  -2  -4   8 106.481 500.857  12
  -2  -4   7 6071.52 1282.13  12
  -2   4   7 5556.95 920.980  16
   2  -4  -7 6838.84 977.953   4
   2  -4  -6 27815.8 1791.57   4
  -2  -4   6 25832.5 2256.47  12
  -2   4   6 25131.3 1791.91  16
  -2  -4   5 46363.6 1908.63  16
  -2   4   5 50048.1 2279.35  16
  -2   4   5 55669.8 2112.83  15
   2  -4  -5 53499.9 2308.88   4
  -2  -4   5 44893.1 2682.20  12
   2  -4  -4 3851.90 590.568   4
  -2  -4   4 4062.40 735.880  12
  -2  -4   4 3696.47 528.098  16
  -2   4   4 4314.72 596.798  17
   2  -4  -4 3920.21 595.412  18
   2   4  -4 3125.99 232.293  14
  -2  -4   4 3697.97 524.686  18
  -2   4   4 3619.62 604.065  16
   2  -4  -3 24080.4 1372.98   4
  -2  -4   3 24601.1 1477.67  12
  -2  -4   3 24688.9 1119.11  18
  -2   4   3 25959.2 1357.44  17
  -2  -4   3 26057.6 1358.82  16
   2   4  -3 26333.6 920.243  15
  -2  -4   3 22470.9 1134.41  17
   2  -4  -3 28148.5 1381.96  18
   2  -4  -2 43850.4 1501.63  18
   2   4  -2 39320.2 1265.36  15
  -2  -4   2 44639.9 1715.59  16
  -2  -4   2 39484.3 1540.53  17
  -2   4   2 42482.5 1698.04  17
  -2   4   1 34874.7 1516.36  17
  -2   4   1 33587.1 1096.81  18
   2   4  -1 32524.0 1213.42  15
  -2   4   0 39600.9 986.800  18
   2   4   0 37809.1 1379.14  15
   2   4   1 133.811 235.541   1
   2   4   1 105.181 188.504  15
   2   4   2 2063.35 459.361   1
   2   4   2 2888.26 466.348  15
   2  -4   2 2672.17 297.451  20
   2  -4   3 1170.35 240.397  20
  -2  -4  -3 1098.57 321.313  15
   2   4   3 991.177 322.142  15
   2  -4   4 24052.3 1020.08  20
  -2   4  -4 22732.6 1221.63  14
   2   4   4 24139.5 1467.04  15
   2  -4   4 25366.6 2025.01  12
   2   4   5 3870.30 839.041  12
  -2  -4  -5 4808.10 714.404  17
   2  -4   5 4806.06 1030.77  12
  -2   4  -5 5513.08 607.197  14
   2  -4   6 385.413 527.515  12
   2   4   6 361.792 365.679  12
   2   4   7-3.06812 403.937  12
   2  -4   7-383.751 438.030  12
   2  -4   8 745.294 596.257  12
   2   4   8 268.471 470.180  12
   2  -4   9 3508.88 1270.03  12
   2   4   9 3607.16 1223.49  12
   2  -4  10 3148.25 1342.00  12
   2   4  10 2649.23 1183.16  12
   2   4  11 4478.06 1482.06   2
   2  -4  11 798.225 450.365  10
   2   4  11 2271.62 1193.37  12
   2  -4  11 2018.84 622.810  24
   2  -4  11 2906.04 1352.54  12
   2  -4  11 1981.14 485.547  22
   2   4  11 2016.19 686.080  24
   2   4  12 2881.31 1420.59  12
   2  -4  12 2962.87 768.065  24
   2   4  12 3386.15 1333.65   2
   2  -4  12 2135.56 929.356  10
   2  -4  12 2445.96 505.459  22
   2   4  12 2617.09 713.793  24
   2   4  13 686.984 476.800  24
   2   4  13 109.451 357.965  22
   2  -4  13 1660.34 898.504  10
   2  -4  13 1560.70 564.529  22
   2  -4  14 203.333 622.352  10
   2  -4  14 843.576 566.728  22
   2   4  14 738.647 364.963  24
   2  -4  15-220.458 429.936  10
   2   4  15-567.190 605.467  10
   2   4  15 116.232 239.766  24
   2  -4  16-241.272 468.433  10
   2   4  16-241.626 399.054  10
  -2  -5  16 1336.02 634.759  10
  -2   5  16 1189.15 672.736  11
  -2   5  16 1658.93 715.920  10
  -2  -5  15 521.504 541.267  10
  -2  -5  15 338.596 357.940  11
  -2   5  15 542.316 601.086  11
  -2  -5  14 7270.43 1727.09  10
  -2  -5  14 8133.09 1679.84  11
  -2   5  14 6595.40 1633.62  11
  -2   5  13 4327.57 1495.39   2
  -2  -5  13 3031.09 1084.31  11
  -2   5  13 5470.91 1615.27  11
  -2  -5  13 4195.37 1426.02  10
  -2  -5  12 10988.7 2239.63  10
  -2   5  12 11641.9 2368.11   2
  -2   5  12 13684.2 2708.03  12
  -2  -5  12 10011.6 1950.56  11
  -2  -5  12 12223.6 2487.51  12
  -2   5  11 11534.6 2403.01   2
  -2  -5  11 12054.1 2236.14  10
  -2  -5  11 13419.7 2332.50  11
  -2  -5  11 14537.0 2605.40  12
  -2   5  11 15045.5 2772.98  12
  -2   5  10 43178.8 4461.99  12
  -2  -5  10 37151.0 3886.72  12
  -2  -5   9 19746.6 2714.81  12
   2  -5  -8 54982.6 2946.26   4
  -2   5   8 47633.1 2830.31  16
  -2  -5   8 49044.0 3837.74  12
  -2   5   7 16844.4 1590.21  16
  -2  -5   7 15149.0 1957.18  12
   2  -5  -7 15558.1 1526.17   4
  -2   5   6 25653.2 1892.50  16
  -2  -5   6 23949.6 2210.95  12
   2  -5  -6 25843.2 1835.84   4
   2  -5  -5 18638.8 1462.07   4
  -2  -5   5 16036.2 1183.41  16
  -2   5   5 16811.2 1391.22  16
  -2   5   5 18587.8 1348.17  15
  -2  -5   5 18130.1 1720.15  12
  -2  -5   4 49807.6 2054.42  16
  -2  -5   4 49063.4 2458.57  12
   2  -5  -4 56145.4 2294.96   4
  -2  -5   4 45894.7 1696.23  17
  -2   5   4 52669.5 2210.66  17
  -2  -5   4 49065.0 1752.69  18
   2   5  -4 50681.0 1311.76  15
  -2  -5   3 2035.83 497.114  12
  -2  -5   3 1483.00 303.880  18
   2  -5  -3 2568.12 473.017  18
   2   5  -3 2103.41 328.500  15
  -2   5   3 1707.97 422.683  17
  -2  -5   3 2059.27 244.958  19
  -2  -5   3 1606.56 411.124  17
  -2  -5   3 2155.99 449.993  16
   2  -5  -3 2315.05 507.438   4
  -2   5   2 98.9427 221.512  17
   2  -5  -2 156.437 212.918  18
  -2  -5   2 413.333 305.170  17
   2   5  -2 224.041 167.810  15
  -2  -5   2 210.991 219.678  16
  -2   5   1-159.690 278.756  17
  -2  -5   1-181.767 276.178  16
  -2  -5   1-30.8845 225.854  17
   2   5  -1 105.101 206.881  15
   2   5   0 1686.46 357.837  15
  -2   5   0 2136.47 474.327  17
  -2   5  -1 8401.43 871.297  17
  -2   5  -1 7186.03 340.161  18
   2   5   1 7302.39 731.023  15
   2  -5   1 8616.40 470.264  20
   2   5   2 8933.30 955.752   1
   2   5   2 7530.04 796.056  15
   2  -5   2 7960.57 497.384  20
  -2   5  -2 8200.30 869.457  17
   2   5   3 30123.6 1622.86  15
  -2   5  -3 30149.7 1633.82  17
   2  -5   3 28838.5 2107.74  12
   2  -5   3 30996.8 1124.14  19
   2  -5   3 29544.4 1046.86  20
   2  -5   4 63460.8 1647.28  20
  -2  -5  -4 67577.3 2688.70  17
   2  -5   4 63970.1 1739.88  19
  -2   5  -4 59674.0 2324.85  17
  -2   5  -4 57822.1 1356.80  18
   2   5   4 62609.0 2500.59  15
   2  -5   4 61895.3 3298.16  12
   2  -5   5 4351.68 994.370  12
   2   5   5 4354.90 734.567  15
  -2   5  -5 4203.97 577.202  14
  -2  -5  -5 4302.27 740.164  17
  -2   5  -5 3147.28 547.979  17
   2  -5   6 3930.86 997.082  12
   2   5   6 4924.09 1070.51  12
   2   5   7 5905.46 1274.76  12
   2  -5   7 7820.89 1537.18  12
   2   5   8 19789.1 2485.24  12
   2  -5   8 16585.7 2363.96  12
  -2  -5  -8 16882.3 1706.80   4
   2  -5   9 7661.91 1754.48  12
  -2  -5  -9 6507.46 1107.27   4
   2   5   9 7493.24 1623.97  12
   2   5  10 65149.1 5313.45  12
   2  -5  10 63548.7 5320.66  12
   2   5  11 2724.22 1194.92   2
   2  -5  11 2033.86 692.966  24
   2  -5  11 1440.50 1169.58  12
   2  -5  11 1139.01 372.643  22
   2  -5  11 1284.71 801.681  10
   2   5  11 4121.84 1515.32  12
   2   5  11 1717.27 506.553  24
   2   5  12 13172.5 2726.37  12
   2   5  12 9442.17 1238.05  24
   2  -5  12 8265.01 1014.34  22
   2   5  12 7504.83 1977.80   2
   2  -5  12 9072.49 2185.41  12
   2  -5  12 9258.86 2002.06  10
   2   5  13 185.037 289.398  24
   2  -5  13 746.213 477.697  22
   2  -5  13 89.9060 578.747  10
   2  -5  14 3888.76 1314.95  10
   2   5  14 3540.03 732.171  24
   2   5  15 20.6250 267.896  24
   2  -5  15 469.630 519.488  10
   2  -5  16 442.720 498.524  10
   2   5  16 1335.74 604.626  10
  -2   6  16 2451.71 847.767  10
  -2  -6  16 2116.16 771.104  10
  -2   6  16 3447.75 944.213  11
  -2   6  15 193.070 341.213  11
  -2  -6  15 443.172 535.331  10
  -2  -6  14-645.671 667.901  10
  -2   6  14-86.6284 572.615  11
  -2  -6  14-567.364 541.665  11
  -2  -6  13 2340.19 1153.32  10
  -2  -6  13 3385.79 1181.73  11
  -2   6  13 1215.36 900.396   2
  -2  -6  12 699.146 626.502  10
  -2  -6  12-13.0269 407.775  11
  -2   6  12 498.515 789.582   2
  -2  -6  11-394.182 593.955  10
  -2  -6  11 243.946 725.027  12
  -2   6  11 742.883 767.151   2
  -2   6  11 2048.37 1468.70  12
  -2  -6  11-39.5713 452.994  11
  -2  -6  10 1630.92 1008.78  12
  -2   6  10 1097.38 892.474  12
  -2  -6   9 731.186 691.041  12
   2  -6  -8 17860.5 1793.78   4
  -2   6   8 15244.0 1727.81  16
  -2  -6   8 16978.9 2293.28  12
  -2  -6   7 81.4763 359.335  12
   2  -6  -7 173.419 317.448   4
  -2   6   7 431.588 301.901  16
  -2  -6   6 19041.2 1960.60  12
  -2   6   6 22586.9 1849.76  16
   2  -6  -6 23996.0 1823.87   4
  -2  -6   5 3286.92 553.084  16
  -2  -6   5 2837.47 679.828  12
  -2   6   5 3007.30 662.711  15
   2  -6  -5 4167.43 770.207   4
  -2  -6   4 211644. 4370.96  16
  -2   6   4 232009. 5074.62  17
  -2  -6   4 206594. 3474.42  18
  -2  -6   4 204973. 4126.42  17
  -2  -6   4 208588. 5173.67  12
   2  -6  -4 225188. 4943.19   4
  -2  -6   3 43062.8 2110.27  12
   2  -6  -3 46172.8 1892.25  18
  -2   6   3 44577.1 2120.39  17
  -2  -6   3 46788.8 2008.72  16
  -2  -6   3 42738.3 1124.58  19
   2   6  -3 42976.3 1589.92  15
  -2  -6   3 39252.1 1398.96  18
  -2  -6   3 47210.3 2122.58  17
   2  -6  -3 42935.6 1980.68   4
  -2  -6   2 42706.7 1996.48  17
   2  -6  -2 42315.8 1577.21  18
   2   6  -2 41743.7 1637.33  15
  -2  -6   2 44199.0 1972.77  16
  -2   6   2 43136.9 2034.16  17
   2  -6  -2 42118.0 1847.44   4
  -2   6   1 37010.4 1908.87  17
  -2  -6   1 34965.1 1831.46  17
  -2  -6   1 40207.3 1875.35  16
   2   6  -1 36267.9 1586.73  15
  -2   6   1 38377.8 1815.87   1
   2  -6  -1 35118.2 1635.12   4
  -2   6   0 136079. 3666.56  17
  -2   6   0 133637. 3183.16   1
  -2  -6   0 139220. 3603.38  17
   2   6   1 55608.6 2351.11   1
   2  -6   1 54800.1 1207.09  20
  -2   6  -1 52272.8 1984.98   1
  -2   6  -1 59033.2 2445.57  17
   2   6   1 54082.4 2085.65  15
  -2   6  -2 177193. 4200.52  17
  -2   6  -2 161472. 3705.57   1
  -2  -6  -2 184063. 4387.02  17
   2  -6   2 169547. 2305.04  20
   2  -6   2 184181. 5159.04  12
   2   6   2 167461. 4213.21   1
   2   6   2 167570. 3805.43  15
   2  -6   3 34063.2 2363.59  12
   2  -6   3 29932.7 1090.16  20
  -2   6  -3 31472.1 1825.36  17
   2  -6   3 31066.8 1220.00  19
  -2  -6  -3 32299.4 1922.03  17
   2   6   3 33022.9 1806.91  15
   2  -6   4 9647.18 679.191  20
   2  -6   4 9601.29 732.864  19
   2  -6   4 9577.20 1377.07  12
   2   6   4 10486.0 1104.46  15
  -2   6  -4 9218.29 999.467  17
   2  -6   5 2011.96 711.897  12
   2  -6   6 886.559 703.485  12
   2   6   7 1328.55 807.462  12
   2  -6   7 30.7995 533.685  12
   2  -6   8 115.048 642.545  12
  -2  -6  -8 303.634 312.400   4
   2   6   8 592.481 452.908  12
  -2  -6  -9 329.035 358.326   4
   2  -6   9 318.063 825.524  12
   2   6   9 96.5824 717.783  12
   2   6  10 9108.86 2085.07  12
   2  -6  10 8994.41 2106.59  12
   2   6  11-922.442 774.642   2
   2   6  11 83.4619 327.281  24
   2  -6  11 508.819 474.561  10
   2   6  11 877.907 1474.69  12
   2  -6  11-505.315 442.257  22
   2  -6  11 960.777 1030.13  12
   2  -6  12 3665.66 758.602  22
   2   6  12 4285.34 1508.85   2
   2  -6  12 1017.30 755.839  10
   2   6  12 3796.54 822.659  24
   2  -6  13 1667.62 801.683  10
   2  -6  13 2137.26 730.271  22
   2   6  13 536.277 365.316  24
   2   6  13 1968.15 1109.97   2
   2  -6  14 9843.78 1916.23  10
   2   6  14 8967.68 1098.80  24
   2  -6  15 604.058 542.009  10
   2   6  15-339.647 307.030  24
   2   6  16 601.712 491.877  10
   2   6  16 401.561 288.065  24
   2  -6  16-710.105 476.024  10
  -2   7  16 368.842 389.228  11
  -2   7  16 280.277 330.396  10
  -2  -7  16 584.908 476.286  10
  -2  -7  15 2344.43 903.386  10
  -2   7  15 2538.36 921.595  11
  -2   7  14 2076.52 1092.05   2
  -2  -7  14 735.284 600.489  11
  -2  -7  14 1779.29 912.593  10
  -2   7  14 956.021 651.246  11
  -2  -7  13 5849.37 1641.60  10
  -2   7  13 7618.65 1975.17   2
  -2  -7  13 8273.14 1775.05  11
  -2  -7  12 2363.95 1095.89  10
  -2  -7  12 1855.80 933.025  11
  -2   7  12 1228.07 937.364   2
  -2   7  11 28683.4 3721.68   2
  -2  -7  11 28468.7 3494.31  10
  -2   7  11 27152.8 3827.30  12
  -2  -7  11 30100.9 3730.11  12
  -2  -7  11 29524.6 3367.37  11
  -2  -7  10 10085.6 2084.41  12
  -2   7  10 11774.3 2341.54   2
  -2   7  10 12871.7 1895.60   7
  -2  -7  10 11785.4 2173.93  10
  -2  -7  10 13176.3 2109.39  11
  -2   7  10 13363.3 2557.66  12
   2  -7  -9 6505.33 1181.66   4
  -2  -7   9 7204.64 1613.08  12
  -2   7   8 39281.9 2780.90  16
   2  -7  -8 41170.2 2790.37   4
  -2  -7   8 34661.8 3239.78  12
  -2  -7   7 86.4767 445.447  12
   2  -7  -7-7.79244 392.580   4
  -2   7   7 338.149 386.955  16
  -2   7   6 2614.86 682.069  16
  -2  -7   6 3475.62 892.490  12
   2  -7  -6 2950.97 753.785   4
   2  -7  -5-165.259 281.866   4
  -2  -7   5 108.865 386.509  12
  -2  -7   4-34.8191 135.108  19
   2  -7  -4 276.927 370.430   4
  -2  -7   4 950.759 481.169  12
  -2  -7   4 533.539 323.802  16
  -2   7   4-346.111 342.302  17
  -2  -7   3 32160.6 1934.62  17
  -2  -7   3 28389.8 1171.23  18
  -2   7   3 30927.7 1923.88  17
  -2  -7   3 33063.8 1825.58  16
   2  -7  -3 31924.1 1839.77   4
   2  -7  -3 32900.0 1652.75  18
  -2  -7   3 28554.4 1822.80  12
  -2  -7   3 30029.1 1036.03  19
   2   7  -3 31851.2 1535.04  15
  -2  -7   2 335.872 309.201  17
  -2  -7   2 137.170 242.971  16
   2  -7  -2 39.1786 173.705  18
   2  -7  -2 31.8451 244.700   4
   2   7  -2 355.540 268.378  15
  -2   7   2-95.3377 270.669  17
  -2  -7   1 5671.04 615.913   4
  -2  -7   1 7870.60 952.117  16
  -2  -7   1 8188.01 992.765  17
  -2   7   1 8037.90 1005.79  17
   2   7  -1 6687.07 987.003   1
   2  -7  -1 6789.63 807.302   4
  -2   7   1 7543.00 899.322   1
   2   7  -1 5796.77 762.579  15
  -2   7   0 4347.75 651.743   1
   2   7   0 5726.02 868.553   1
   2   7   0 4598.30 686.574  15
  -2   7   0 5955.18 870.336  17
  -2  -7   0 5633.78 833.397  17
   2   7   1 178.128 246.923   1
  -2  -7  -1 291.083 256.677  17
  -2   7  -1 468.981 271.294   1
   2  -7   1 297.889 134.300  20
  -2   7  -1 469.188 319.838  17
   2   7   1 198.975 199.478  15
   2   7   2 28708.0 1968.00   1
  -2   7  -2 31413.1 1986.03  17
  -2   7  -2 27885.3 1676.91   1
   2   7   2 29631.8 1738.98  15
   2  -7   2 29624.5 1008.46  20
   2  -7   2 30961.9 2387.52  12
   2  -7   3 20437.9 1951.75  12
   2  -7   3 18772.4 895.033  20
   2  -7   3 21221.2 1065.49  19
   2   7   3 19356.9 1473.03  15
  -2   7  -3 17365.3 1430.69   1
  -2   7  -3 20223.9 1613.57  17
  -2   7  -4 2523.80 601.825  17
   2  -7   4 3331.03 498.988  19
   2  -7   4 2658.20 832.143  12
   2  -7   4 3663.44 440.876  20
   2  -7   5 27638.9 2546.09  12
   2  -7   6 21374.9 2427.71  12
   2   7   7 102638. 5308.59  12
  -2  -7  -7 108355. 4394.70   4
   2  -7   7 102647. 5683.87  12
  -2  -7  -8 13215.3 1637.01   4
   2   7   8 12126.9 2071.27  12
   2  -7   8 10760.8 2028.62  12
  -2  -7  -9 17848.1 1995.70   4
   2  -7   9 20925.0 2976.47  12
   2   7   9 21876.6 2898.70  12
   2  -7  10 11010.7 2294.21  12
   2  -7  10 11482.8 1088.62  22
   2   7  10 7795.45 1963.11  12
   2   7  10 11253.5 1280.08  24
  -2  -7 -10 12523.4 1721.72   4
   2   7  10 10026.8 2240.49   2
   2  -7  10 9504.94 1853.28  10
   2   7  10 9568.33 1621.40   7
   2   7  11 366.977 686.966  12
   2  -7  11 1202.72 783.676  10
   2  -7  11-2540.75 1265.59  12
   2   7  11-1146.37 485.838  24
   2   7  11-151.614 544.842   2
   2  -7  11-74.2956 391.983  22
   2   7  11-1972.85 830.226   7
   2   7  12 1402.18 1091.02   2
   2  -7  12 4044.14 1309.48  10
   2   7  12 2062.21 887.369   7
   2  -7  12 3684.56 783.387  22
   2   7  12 3773.49 821.371  24
   2   7  13 2579.07 1202.97   2
   2  -7  13 2135.59 1140.50  10
   2   7  13 934.911 455.983  24
   2  -7  14 2188.34 964.210  10
   2   7  14 2380.15 896.975  11
   2   7  14 2877.48 626.241  24
   2   7  15 610.110 325.341  24
   2  -7  15 617.640 542.925  10
   2  -7  16 213.354 307.450  10
   2   7  16-198.037 316.240  10
   2   7  16 575.716 261.117  24
  -2   8  16-1098.48 550.571  10
  -2  -8  16-549.555 475.742  10
  -2   8  16-376.659 375.417  11
  -2   8  15 245.693 377.571  11
  -2  -8  15 472.440 463.680  10
  -2  -8  14-189.061 685.636  10
  -2   8  14-211.162 461.333  11
  -2   8  14-94.9303 463.672   2
  -2  -8  13 2577.03 1012.62  11
  -2   8  13 1712.85 909.050   2
  -2  -8  13 851.873 543.329  10
  -2  -8  12 480.582 473.197  10
  -2   8  12 2407.67 1251.84   2
  -2  -8  11 1191.12 747.032  11
  -2   8  11 75.9382 509.565   2
  -2  -8  11 683.784 725.813  10
  -2   8  10-1241.14 924.765   2
  -2   8  10 129.596 414.523   7
  -2  -8  10-52.7824 437.863  11
  -2  -8  10 149.671 498.497  10
  -2  -8   9 160.333 627.538  12
   2  -8  -9 101.341 411.737   4
  -2   8   9 821.497 556.963  16
   2  -8  -8 336.007 350.205   4
  -2   8   8 462.297 380.947  16
  -2   8   7 8073.91 1308.82  16
  -2  -8   7 7548.34 1463.41  12
   2  -8  -7 8812.63 1369.60   4
  -2  -8   6 614.419 476.063  12
   2  -8  -6 1320.64 624.587   4
  -2   8   6 440.726 347.505  16
  -2  -8   5 11328.4 1490.02  12
   2  -8  -5 14578.8 1459.50   4
   2  -8  -4 66825.9 2928.31   4
  -2  -8   4 61563.5 2714.19  16
  -2  -8   4 59490.3 1627.81  19
  -2  -8   4 57471.6 2941.17  12
  -2  -8   3 54737.2 2499.79  16
   2  -8  -3 57390.4 2217.23  18
  -2  -8   3 57127.5 2751.23  17
   2   8  -3 58158.7 2269.53  15
  -2  -8   3 54000.4 1511.23  19
   2  -8  -3 57952.7 2581.46   4
   2  -8  -2 1009.57 378.814   4
   2   8  -2 1377.30 583.199   1
  -2  -8   2 1046.56 448.480  16
  -2   8   2 1150.48 427.154  17
   2  -8  -2 836.371 280.991  18
  -2  -8   2 1249.11 526.814  17
   2   8  -2 1015.21 389.712  15
  -2  -8   1 24488.0 1340.60   4
   2   8  -1 23140.3 1880.98   1
   2  -8  -1 23972.5 1565.97   4
   2   8  -1 24831.5 1593.13  15
  -2   8   1 24743.9 1788.11  17
  -2   8   1 23537.2 1659.94   1
   2   8   0 72743.3 3087.07   1
  -2   8   0 68275.3 2985.72  17
   2   8   0 65245.9 2618.46  15
  -2  -8   0 63220.1 2259.44   4
  -2   8   0 67651.8 2694.22   1
   2   8   1 50213.1 2638.61   1
   2  -8   1 45467.4 1161.17  20
  -2   8  -1 46577.8 2228.88   1
  -2   8  -1 49089.7 2601.39  17
   2  -8   2 5810.08 461.201  20
  -2   8  -2 5626.26 827.007   1
  -2   8  -2 6000.71 951.864  17
   2   8   2 5856.92 925.018   1
   2   8   3 58739.7 3094.04   1
  -2   8  -3 56484.0 2727.33   1
   2  -8   3 55990.5 1537.58  20
   2  -8   3 62831.6 3541.36  12
  -2   8  -3 61307.9 2960.35  17
   2  -8   3 62862.5 1944.08  19
   2  -8   4 2312.45 428.005  19
   2  -8   4 2660.77 384.697  20
   2  -8   4 2630.76 852.928  12
  -2   8  -4 2689.24 651.444   1
   2  -8   5 10591.3 891.559  19
   2  -8   5 10902.0 1709.13  12
  -2  -8  -6 4663.03 986.495   4
   2  -8   6 3904.12 1149.61  12
   2   8   7 13887.9 2013.46  12
   2  -8   7 11087.1 1967.08  12
  -2  -8  -7 15554.7 1758.11   4
  -2  -8  -8 143.310 556.731   4
   2   8   8 110.336 456.280  12
   2  -8   8-4.71553 596.374  12
  -2  -8  -9 1430.39 682.510   4
   2  -8   9 947.199 661.361  12
   2   8   9 315.887 736.771  12
   2  -8  10 2877.22 675.829  22
  -2  -8 -10 2319.76 899.745   4
   2  -8  10-1380.85 1008.85  12
   2   8  10 656.424 523.676   7
   2   8  10 59.6090 525.194  12
   2  -8  10 1536.84 1010.05  10
   2   8  10 2829.55 1263.61   2
   2   8  10 719.411 373.991  24
   2  -8  11-598.495 1129.83  12
   2   8  11-1268.48 709.249   7
   2   8  11-247.591 333.441  24
   2  -8  11 1244.51 711.079  22
   2  -8  11-600.307 641.830  10
   2   8  11-2499.54 1221.07  12
   2   8  11 620.956 731.270   2
   2  -8  12 929.676 763.725  10
   2   8  12 587.264 720.677   2
   2   8  12 938.000 482.337  24
   2   8  12 253.704 545.799   7
   2  -8  13-1477.78 867.280  10
   2   8  13-173.403 337.243  24
   2   8  13-674.158 765.447   2
   2   8  13 360.987 573.201   7
   2   8  14 1413.01 474.896  24
   2  -8  14 1609.45 817.745  10
   2   8  15 1153.17 372.394  24
   2  -8  15-500.539 496.363  10
   2   8  16 38.2094 315.867  10
   2  -8  16-209.939 303.446  10
  -2   9  16 27.4018 319.314  10
  -2   9  16 595.831 363.937  11
  -2  -9  16 1133.57 584.974  10
  -2   9  15 709.211 567.152  11
  -2  -9  15 503.570 568.706  10
  -2   9  14-70.2394 451.249  11
  -2  -9  14 164.791 650.532  10
  -2   9  14-11.7461 416.125   2
  -2  -9  13 2118.35 941.268  10
  -2   9  13 4343.07 1536.18   2
  -2  -9  12 4416.57 1360.79  11
  -2   9  12 3100.59 1300.34   2
  -2  -9  12 3229.06 1236.53  10
  -2  -9  11 13221.3 2237.77  11
  -2   9  11 12206.6 2473.62   2
  -2  -9  11 11249.2 2207.93  10
  -2   9  11 15077.8 2837.14  12
  -2  -9  10 4412.83 1383.61  11
  -2   9  10 4907.49 1561.24   2
  -2   9  10 5975.11 1403.98   7
  -2  -9  10 5899.23 1637.51  10
  -2   9   9 10185.1 1651.73  16
   2  -9  -9 9548.37 1565.32   4
  -2   9   8 10357.2 1597.64  16
   2  -9  -8 10067.3 1546.02   4
   2  -9  -7 1167.57 602.865   4
  -2   9   7 1929.62 800.628  16
   2  -9  -6 3555.04 835.814   4
   2  -9  -5 6039.78 1060.53   4
   2  -9  -4 9810.37 1218.59   4
   2   9  -3 1542.12 678.656   1
  -2  -9   3 1758.53 342.555  19
   2   9  -3 1530.46 455.206  15
   2  -9  -3 1853.61 545.463   4
   2   9  -2 499.477 396.657   1
   2  -9  -2 641.704 406.185   4
   2   9  -2 257.596 297.533  15
   2  -9  -1 2702.14 629.095   4
  -2  -9   1 2346.96 460.444   4
  -2   9   1 3568.98 723.681   1
   2   9  -1 3731.14 831.611   1
   2   9  -1 2870.95 594.332  15
  -2  -9   0 5433.18 738.875   4
   2   9   0 5677.57 1017.60   1
  -2   9   0 6339.40 917.339   1
   2   9   1 3303.65 755.085   1
  -2  -9  -1 2257.53 553.668   4
  -2   9  -1 2722.04 631.540   1
  -2   9  -2 10653.0 1196.49   1
   2   9   2 11074.6 1365.97   1
   2  -9   2 12164.3 675.731  20
  -2  -9  -2 12545.2 1271.54   4
   2  -9   3 24888.5 1306.64  19
   2  -9   3 20448.5 950.134  20
   2  -9   3 25249.8 2427.03  12
   2   9   3 23733.2 2067.63   1
  -2   9  -3 22175.8 1812.39   1
  -2  -9  -3 21359.4 1696.97   4
  -2  -9  -4 27195.2 2032.60   4
  -2   9  -4 24943.6 2024.75   1
   2  -9   4 25435.9 1365.47  19
   2  -9   4 24694.7 2460.83  12
  -2   9  -5 59012.2 3277.49   1
   2  -9   5 56913.1 2126.82  19
   2  -9   5 58460.3 4064.51  12
  -2  -9  -5 64557.7 3255.84   4
   2  -9   6 6846.30 1487.88  12
  -2  -9  -6 9108.75 1345.35   4
  -2  -9  -7 17782.6 1939.29   4
   2  -9   7 17463.4 2455.86  12
   2   9   8 1891.43 757.488  12
   2  -9   8 2229.86 964.644  12
  -2  -9  -8 2589.65 806.433   4
   2  -9   9 6985.22 1831.12  12
  -2  -9  -9 5658.09 1214.09   4
   2  -9  10 13547.2 2641.76  12
  -2  -9 -10 13259.2 1846.40   4
   2   9  10 12474.3 1969.19   7
   2   9  10 12791.0 1475.06  24
   2  -9  10 13149.1 2321.71  10
   2   9  10 13869.0 2680.20   2
   2   9  11-96.7285 362.366  24
   2   9  11-559.505 559.580   7
   2  -9  11 342.855 596.431  10
   2  -9  11 520.237 844.076  12
   2   9  11 443.188 818.536   2
   2   9  12 63.8554 385.654   7
   2   9  12 599.517 386.436  24
   2   9  12 242.881 603.103   2
   2  -9  12 861.615 634.739  10
   2   9  13-158.344 384.124   7
   2  -9  13 711.606 673.280  10
   2   9  13-10.3631 530.417   2
   2   9  13 67.9515 313.697  24
   2   9  14 67.2193 252.116  24
   2  -9  14-995.359 676.462  10
   2   9  15 719.317 312.978  24
   2  -9  15 273.334 425.235  10
  -2  10  16 609.949 411.472  10
  -2 -10  16 861.572 446.851  10
  -2 -10  15 891.879 555.319  10
  -2  10  15-317.401 425.055  11
  -2  10  14 183.364 426.027  11
  -2  10  14 902.720 796.830   2
  -2 -10  14-645.912 669.557  10
  -2  10  13 946.005 800.543   2
  -2 -10  13-65.1170 555.483  10
  -2  10  12 2523.13 1173.46   2
  -2 -10  12 1446.79 777.708  11
  -2 -10  12 504.328 719.814  10
  -2  10  11-462.411 544.651   2
  -2 -10  11-819.429 655.651  11
  -2 -10  11 225.993 544.498  10
  -2 -10  10-60.5497 558.814  11
  -2  10  10 54.0977 433.674   7
  -2  10  10 105.530 461.152   2
  -2 -10  10 489.558 775.029  10
   2 -10  -9 766.576 558.708   4
  -2  10   9 2171.60 878.256   7
  -2  10   9 847.598 850.264   3
  -2 -10   9 2487.10 981.294  11
  -2 -10   9 2975.27 1221.47  10
   2 -10  -9 2711.59 697.993  21
  -2  10   9 1771.41 488.313  16
   2 -10  -8 7214.73 1323.42   4
  -2  10   8 5708.41 1297.66  16
  -2  10   7 806.759 629.148  16
   2 -10  -7 353.803 427.440   4
   2 -10  -6 6499.22 1190.61   4
   2 -10  -5 405.279 388.574   4
   2 -10  -4 95575.6 3821.24   4
   2  10  -4 94465.8 4681.54   1
   2  10  -3 245.210 398.304   1
  -2 -10   3 307.466 241.868  19
   2 -10  -3-216.277 363.703   4
   2  10  -2 7101.84 1217.68   1
   2 -10  -2 7980.92 1050.87   4
  -2  10   1 117.159 299.047   1
   2 -10  -1 226.691 325.482   4
   2  10  -1 291.103 395.816   1
   2  10   0 118285. 4513.46   1
  -2 -10   0 111588. 3435.10   4
  -2  10   0 116846. 4082.39   1
  -2  10  -1 23199.3 1798.57   1
  -2 -10  -1 21684.5 1646.67   4
   2  10   1 22758.0 2034.47   1
  -2  10  -2 136149. 4473.24   1
  -2 -10  -2 131593. 4175.36   4
   2  10   2 141823. 4996.88   1
   2  10   3 3591.50 877.259   1
   2 -10   3 5282.03 692.902  19
  -2 -10  -3 4029.46 840.689   4
  -2  10  -3 4051.71 855.089   1
  -2 -10  -4 12991.0 1502.41   4
  -2  10  -4 13968.5 1584.79   1
   2 -10   4 12402.0 1020.20  19
   2 -10   4 11640.9 1834.27  12
   2 -10   5 17325.2 1239.60  19
  -2 -10  -5 19749.9 1972.07   4
  -2  10  -5 18830.0 1936.80   1
   2 -10   5 19592.9 2403.93  12
  -2 -10  -6 4200.98 945.949   4
   2 -10   6 3793.60 1211.20  12
  -2  10  -6 2806.08 839.251   1
   2 -10   7 219.787 612.028  12
  -2 -10  -7-256.257 577.367   4
  -2 -10  -8 366.815 555.068   4
   2 -10   8-351.340 660.151  12
   2 -10   9 911.042 943.685  12
   2  10   9 46.8007 613.474   3
   2  10   9 931.714 948.317   9
   2  10   9 180.018 576.050   2
   2 -10   9-90.6231 826.549  10
   2  10   9-157.972 442.774   7
  -2 -10  -9 810.307 594.826   4
   2  10  10 2515.46 946.363   7
  -2 -10 -10-193.660 658.197   4
   2 -10  10-207.169 510.567  10
   2  10  10 307.149 381.877  24
   2  10  10-2297.98 1032.01   9
   2 -10  10 535.022 800.941  12
   2  10  10 1881.39 1207.61   2
   2 -10  11-385.252 531.432  10
   2  10  11-212.286 377.721  24
   2  10  11 448.436 666.905   2
   2  10  11 171.875 448.106   7
   2 -10  12-356.322 636.403  10
   2  10  12 850.922 485.340  24
   2  10  12 1171.12 674.836   7
   2  10  12 337.165 632.708   2
   2  10  13 16.4044 274.205  24
   2  10  13 234.952 724.988   2
   2  10  13 502.762 343.056   7
   2 -10  13-961.910 747.844  10
   2  10  14 2901.95 597.870  24
   2 -10  14 3437.54 1059.34  10
   2  10  15 108.538 202.161  24
   2  10  15-369.115 397.224  11
   2 -10  15-230.554 309.722  10
  -2  11  15-873.630 530.721  11
  -2 -11  15-636.190 506.074  10
  -2  11  14 91.5061 500.721   2
  -2 -11  14 225.337 590.193  10
  -2  11  14 71.5991 368.673  11
  -2  11  13 1706.65 991.626   2
  -2 -11  13 1419.64 885.011  10
  -2  11  12 2592.65 1203.03   2
  -2 -11  12 2456.98 1097.63  10
  -2 -11  11-274.674 532.495  11
  -2  11  11-997.023 857.250   2
  -2 -11  11 35.0870 711.977  10
  -2 -11  10 25060.3 3286.78  10
  -2  11  10 25458.3 3582.22   2
  -2 -11  10 27291.7 3174.04  11
  -2  11   9 954.579 615.447  16
   2 -11  -9 1714.18 803.451   4
  -2  11   9 1567.22 875.171   3
   2 -11  -9 2000.96 625.150  21
  -2 -11   9 1398.26 859.746  10
  -2  11   9 1101.59 684.990   7
  -2 -11   9 2150.55 970.899  11
   2 -11  -8 9463.73 1554.76   4
  -2  11   8 8743.62 1536.95  16
   2 -11  -7 45.1522 440.446   4
  -2  11   7-97.9132 374.153  16
   2 -11  -6 2526.49 783.427   4
   2  11  -5 6002.98 1371.63   1
   2 -11  -5 6437.94 1142.82   4
   2  11  -4 15592.8 2024.04   1
   2 -11  -4 14657.4 1585.68   4
   2  11  -3 1914.29 705.479   1
  -2 -11   3 2251.95 418.595  19
   2 -11  -3 2108.90 655.693   4
   2  11  -2 117.917 443.406   1
   2 -11  -2-23.7011 390.183   4
  -2  11   1 1919.57 647.566   1
   2  11  -1 1137.67 623.810   1
  -2 -11   0 1562.16 514.227   4
   2  11   0 1513.83 605.315   1
  -2  11   0 1668.06 613.330   1
  -2 -11  -1 1363.61 516.015   4
   2  11   1 2377.21 795.650   1
  -2  11  -1 2391.19 686.011   1
  -2 -11  -2 34327.3 2251.87   4
   2  11   2 34628.3 2650.72   1
  -2  11  -2 32748.1 2370.11   1
  -2  11  -3 6471.97 1116.00   1
   2  11   3 6457.23 1220.10   1
   2 -11   3 5008.14 736.498  19
  -2 -11  -3 5812.34 1028.46   4
  -2  11  -4 32939.9 2552.26   1
   2 -11   4 32516.2 1723.54  19
  -2 -11  -4 32877.6 2443.58   4
   2 -11   5 1280.33 888.362  12
  -2 -11  -5 1327.49 671.550   4
  -2  11  -5 2016.66 702.245   1
   2 -11   5 1076.80 401.947  19
   2 -11   6 1071.17 862.046  12
  -2 -11  -6 365.516 444.181   4
  -2 -11  -7 10788.5 1618.77   4
   2 -11   7 10296.4 1983.03  12
   2 -11   8 7707.53 1845.63  12
  -2 -11  -8 9259.85 1561.54   4
   2 -11   9 6361.82 1801.07  12
  -2 -11  -9 3766.40 1063.87   4
   2  11   9 2869.96 1095.81   7
   2  11   9 4967.28 1388.77   3
   2 -11   9 3525.90 1264.71  10
   2  11   9 5166.53 1453.31   9
   2  11   9 5520.09 1802.10   2
   2 -11  10 22471.1 3084.93  10
   2  11  10 23664.9 1966.66  24
   2 -11  10 18581.8 3072.83  12
  -2 -11 -10 22598.0 2527.96   4
   2  11  10 25582.0 3119.11   3
   2  11  10 22243.1 3444.38   2
   2  11  10 24445.8 2790.80   7
   2  11  11-520.307 528.836  24
   2  11  11 187.114 437.131   7
   2  11  11-29.4365 890.697   2
   2 -11  11-208.268 556.672  10
   2  11  12 10962.9 1788.57   7
   2  11  12 11823.6 2542.86   2
   2 -11  12 10227.0 2089.35  10
   2  11  12 12154.9 1390.13  24
   2 -11  13-656.881 653.155  10
   2  11  13-279.819 324.821  24
   2  11  13 632.129 695.173   2
   2  11  13 16.5595 435.196   7
   2  11  14 730.907 647.438   2
   2 -11  14-142.355 409.196  10
   2  11  14-2.53894 254.300  24
   2  11  15-362.622 231.295  24
   2 -11  15 352.063 416.545  10
   2  11  15-167.844 325.573  11
  -2 -12  15 386.432 414.256  10
  -2  12  15 464.578 424.575  11
  -2 -12  14 1101.59 673.346  10
  -2  12  14-91.9796 477.547   2
  -2  12  13 219.770 476.221   2
  -2 -12  13 203.096 647.923  10
  -2  12  12-285.327 618.366   2
  -2 -12  12-695.487 705.717  10
  -2 -12  11-1495.99 894.021  10
  -2  12  11-56.9462 544.238   2
  -2 -12  10 326.423 561.495  11
  -2 -12  10 610.557 673.058  10
  -2  12  10-93.9609 565.749   2
   2 -12 -10 153.866 267.201  21
  -2  12   9 1744.07 1022.32   3
  -2  12   9 1739.71 905.182   7
   2 -12  -9 1437.99 461.899  21
  -2 -12   9-668.108 645.380  11
  -2  12   9 1858.36 844.306  16
   2 -12  -9 1053.58 701.489   4
   2  12  -9 2564.66 1105.85   1
  -2 -12   9 401.864 542.530  10
   2 -12  -8-66.8458 414.802   4
  -2 -12   8-1082.26 717.325  11
   2 -12  -8 329.536 295.872  21
  -2  12   8 398.529 553.804  16
  -2  12   8-1182.35 752.575   3
  -2  12   8 548.909 533.138   7
   2  12  -8 870.542 878.629   1
  -2 -12   8 614.972 492.449  10
  -2  12   7 2940.10 990.996  16
   2 -12  -7 2050.48 874.273   4
   2  12  -7 2037.20 979.709   1
   2  12  -6 17084.5 2350.91   1
   2 -12  -6 15585.9 1842.76   4
   2 -12  -5 2370.99 725.485   4
   2  12  -5 3369.81 1152.68   1
   2 -12  -4 11726.1 1471.92   4
   2  12  -4 10141.6 1738.92   1
   2  12  -3 39500.8 3166.05   1
   2 -12  -3 37623.4 2525.07   4
   2  12  -2-9.46914 532.231   1
   2 -12  -2 262.430 337.826   4
   2  12  -1 47847.8 3231.17   1
  -2  12   1 47254.3 2995.49   1
   2  12   0 31364.9 2594.40   1
  -2 -12   0 26313.2 1902.87   4
  -2  12   0 29506.8 2320.70   1
  -2  12  -1 210.402 285.862   1
  -2 -12  -1 485.065 358.860   4
   2  12   1 95.2485 509.896   1
   2  12   2 30638.4 2626.26   1
  -2  12  -2 28792.6 2357.66   1
  -2 -12  -2 28484.1 2172.37   4
   2 -12   3 26619.1 1646.60  19
  -2  12  -3 26020.1 2288.37   1
  -2 -12  -3 27124.4 2219.41   4
  -2 -12  -4 4574.20 1008.61   4
  -2  12  -4 4739.87 1065.90   1
   2 -12   4 4996.21 742.311  19
  -2  12  -5 6018.53 1180.24   1
  -2 -12  -5 4609.92 1055.26   4
   2 -12   5 4017.34 684.924  19
  -2 -12  -6 342.610 429.315   4
   2 -12   6 2220.13 1144.86  12
   2 -12   7 1017.73 871.206  12
  -2 -12  -7 1125.94 659.050   4
   2 -12   8 1500.24 1089.66  12
  -2 -12  -8-285.079 500.523   4
   2  12   8 1582.14 893.749   3
   2  12   8 594.408 583.402   7
   2 -12   8-902.830 721.704  10
  -2 -12  -9 382.610 421.159   4
   2 -12   9 876.294 1189.45  12
   2  12   9-449.419 535.807   7
   2 -12   9-632.938 650.059  10
   2  12   9 624.505 613.519   3
   2  12   9-1582.30 1058.28   2
   2  12  10 635.470 661.980   2
   2 -12  10 802.945 712.498  10
   2  12  10 1387.39 818.327   7
   2  12  10 418.109 309.696  24
   2  12  10 513.068 558.352   3
   2  12  11 120.934 517.788   2
   2 -12  11 341.329 436.024  10
   2  12  11 160.517 476.301   7
   2  12  11 322.904 347.103  24
   2 -12  12 5292.36 1514.75  10
   2  12  12 6718.79 1419.87   7
   2  12  12 5293.44 918.483  24
   2  12  12 2835.41 1249.97   2
   2  12  13 1204.18 960.999   2
   2  12  13 33.1710 240.009  24
   2 -12  13 1572.48 773.031  10
   2  12  14-33.7851 462.416   2
   2 -12  14 14.4466 339.372  10
   2  12  14-104.250 241.084  24
   2 -12  15 1779.10 670.957  10
  -2 -13  15 985.071 507.494  10
  -2  13  15 437.441 366.675  11
  -2  13  14 927.072 611.182   2
  -2 -13  14-414.365 477.911  10
  -2  13  14 715.257 573.440  11
  -2  13  13 5125.40 1467.06   2
  -2 -13  13 5648.78 1508.34  10
  -2  13  12 2845.16 1196.10   2
  -2 -13  12 3571.01 1315.20  10
  -2 -13  11 7178.44 1754.64  10
  -2  13  11 7547.02 2025.13   2
  -2  13  10 2861.08 1207.82   2
  -2 -13  10 1449.32 961.857  10
   2 -13 -10 2126.33 612.604  21
  -2  13   9 5325.76 1504.95   3
  -2  13   9 6016.84 1385.76  16
   2 -13  -9 7682.10 1122.23  21
   2  13  -9 8253.80 1822.08   1
  -2 -13   9 6843.69 1622.74  11
  -2 -13   9 7146.31 1756.92  10
   2 -13  -8 461.804 558.358   4
  -2 -13   8 662.817 661.578  11
  -2  13   8 985.306 618.053  16
   2  13  -8-454.441 537.497   1
  -2 -13   8 1145.01 910.331  10
   2 -13  -8 193.298 292.115  21
  -2  13   8 619.878 598.941   7
  -2  13   8 923.382 765.175   3
   2 -13  -7 1027.77 682.909   4
  -2 -13   7 2150.36 1060.65  10
  -2 -13   7 2711.50 1045.63  11
   2  13  -7 1235.13 901.765   1
  -2  13   7 1843.69 872.455   3
  -2  13   7 2212.48 902.247   7
  -2  13   7 1800.32 751.682  16
   2 -13  -7 1051.39 459.316  21
   2  13  -6 2788.71 1045.09   1
   2 -13  -6 3675.99 1060.74   4
   2 -13  -5 4694.87 1059.71   4
   2  13  -5 5465.04 1390.34   1
   2  13  -4 1519.09 851.085   1
   2 -13  -4 2279.49 760.763   4
   2 -13  -3 5746.11 1103.94   4
   2  13  -3 6241.46 1406.96   1
   2  13  -2 4116.16 1156.23   1
  -2  13   1 2516.57 706.091   1
   2  13  -1 1542.74 800.457   1
  -2  13   0-333.274 485.571   1
   2  13   0 404.622 475.908   1
  -2 -13  -1-83.6413 324.205   4
   2  13   1 172.342 471.533   1
  -2  13  -1 252.978 427.082   1
  -2 -13  -2 821.866 473.176   4
  -2  13  -2 417.770 359.056   1
   2  13   2 372.971 436.859   1
  -2 -13  -3 3800.50 911.479   4
  -2  13  -3 5094.21 1085.24   1
   2 -13   3 5143.21 778.234  19
  -2 -13  -4 3694.79 969.733   4
  -2  13  -4 3805.62 1005.63   1
   2 -13   4 3482.44 647.324  19
   2 -13   5 6225.78 872.967  19
  -2 -13  -5 9037.09 1457.61   4
  -2 -13  -6-186.925 406.447   4
   2  13   7 47546.1 4113.84   3
   2  13   7 51494.5 3923.42   7
   2 -13   7 48367.0 4245.09  10
  -2 -13  -7 50015.9 3668.50   4
   2  13   8 601.115 634.983   7
  -2 -13  -8-599.069 507.689   4
  -2 -13  -8-6.86374 273.156  21
   2 -13   8 120.592 779.978  10
   2  13   8 1248.40 822.672   3
   2  13   9 15154.9 2464.06   3
   2  13   9 16531.0 2932.88   2
   2  13   9 15323.3 2260.00   7
   2 -13   9 14220.7 2409.12  10
   2 -13   9 17200.8 3036.72  12
  -2 -13  -9 17858.7 2306.86   4
   2  13  10 914.788 688.077   3
   2  13  10 409.696 583.486   7
   2 -13  10 1096.31 944.557  10
   2  13  10 1303.05 872.912   2
   2  13  11 47.7603 797.557   2
   2 -13  11 860.726 832.118  10
   2  13  11 317.892 473.434   7
   2  13  11-127.798 352.166  24
   2 -13  12 2571.93 1039.75  10
   2  13  12 4930.60 1169.64   7
   2  13  12 3599.10 1467.18   2
   2  13  12 4446.56 823.247  24
   2  13  13 467.058 558.573   2
   2  13  13 371.970 277.436  24
   2 -13  13 167.091 409.369  10
   2 -13  14-836.334 521.414  10
   2  13  14-358.953 265.577  24
  -2 -14  14 54.5163 440.175  10
  -2  14  14-213.564 386.027  11
  -2  14  14 989.279 592.683   2
  -2 -14  13 2212.65 936.475  10
  -2  14  13 1235.09 717.310   2
  -2 -14  12-103.459 534.053  10
  -2  14  12 414.871 788.763   2
  -2  14  11 635.239 750.059   2
  -2 -14  11 221.645 551.671  10
  -2 -14  10 1421.81 893.921  10
   2 -14 -10 772.140 487.706  21
  -2  14  10 417.480 589.643   2
  -2 -14   9 389.157 743.803  11
  -2  14   9 472.841 565.119   3
   2 -14  -9 285.206 315.661  21
  -2 -14   9 206.140 553.655  10
  -2 -14   8 452.723 713.173  10
   2  14  -8 968.910 727.445   1
  -2  14   8-437.035 670.243  16
   2 -14  -8-157.634 415.220  21
  -2 -14   8 363.342 633.462  11
  -2  14   8 301.089 518.585   3
   2  14  -7 98.7061 476.524   1
  -2  14   7 1056.43 730.102   3
  -2  14   7 1095.34 644.837   7
   2 -14  -7 674.435 487.879  21
  -2 -14   7 2265.85 952.028  11
   2 -14  -7 482.969 567.771   4
  -2  14   7 859.709 788.654  16
  -2 -14   7 331.883 571.793  10
   2  14  -6 2412.47 928.054   1
   2 -14  -6 2298.30 835.251   4
  -2  14   6 1762.73 695.091   3
  -2  14   6 1769.31 881.558   7
  -2 -14   6 3402.58 1192.01  10
   2 -14  -6 2186.08 571.672  21
   2 -14  -5 778.144 687.485   4
   2  14  -5 1085.32 760.684   1
   2 -14  -4 436.303 427.309   4
   2  14  -4-14.1284 471.057   1
   2  14  -3 28247.3 2891.60   1
   2  14  -2 584.334 733.738   1
   2  14  -1 35508.0 3068.76   1
   2  14   0 12291.5 1785.92   1
  -2  14   0 11163.1 1605.73   1
  -2  14  -1 2303.03 789.856   1
  -2 -14  -1 2598.98 745.969   4
   2  14   1 1944.96 822.147   1
  -2  14  -2 4157.82 948.820   1
   2  14   2 5376.94 1388.13   1
  -2 -14  -2 3007.57 871.852   4
   2 -14   3 532.445 353.499  19
  -2  14  -3 627.167 504.412   1
  -2 -14  -3 303.009 515.007   4
  -2 -14  -4 893.791 519.022   4
   2 -14   4-93.3439 274.924  19
  -2 -14  -5 9098.47 1511.74   4
   2 -14   5 7498.44 997.158  19
  -2 -14  -6 600.247 600.311   4
   2 -14   6 1553.11 934.819  10
   2  14   6 205.401 646.561   7
   2  14   6 556.663 412.929   3
  -2 -14  -7 1601.00 813.881   4
   2  14   7 1696.21 952.447   7
   2  14   7 2390.27 1012.93   3
   2 -14   7 1402.60 849.125  10
   2  14   8 1211.77 854.137   3
  -2 -14  -8 1824.85 788.095   4
   2  14   8 1445.03 908.394   7
   2 -14   8 2410.37 1108.43  10
  -2 -14  -8 672.664 339.482  21
   2  14   9 1033.32 790.832   3
   2  14   9 2229.83 1208.56   2
   2  14   9 1193.27 780.957   7
  -2 -14  -9 1757.19 565.673  21
   2 -14   9 2472.08 1096.26  10
   2  14  10 154.391 481.863   3
   2  14  10 360.377 589.121   2
   2  14  10 749.734 707.026   7
   2 -14  10 885.914 718.549  10
   2  14  11-485.694 521.284   7
   2  14  11-1127.55 478.083  24
   2  14  11-271.377 551.937   2
   2 -14  11 212.664 472.381  10
   2 -14  12 1533.71 848.630  10
   2  14  12 1235.86 650.873   7
   2  14  12 1912.31 1037.12   2
   2  14  12 1274.81 499.848  24
   2  14  13 1195.25 759.065   2
   2  14  13 163.113 241.334  24
   2 -14  13 763.967 581.646  10
   2 -14  14 1345.49 545.155  10
  -2 -15  14-139.184 363.688  10
  -2  15  14 299.222 396.791   2
  -2  15  14 241.616 370.974  11
  -2 -15  13 3857.70 1149.08  10
  -2  15  13 2474.53 1025.12   2
  -2 -15  12 1671.59 880.502  10
  -2  15  12 2431.05 1140.41   2
  -2 -15  11 5002.61 1450.03  10
  -2  15  11 3464.38 1390.83   2
  -2 -15  10 7525.27 1832.39  10
  -2  15  10 6033.92 1807.84   2
  -2  15   9 2318.07 1109.21   3
   2 -15  -9 5031.32 940.156  21
  -2 -15   9 3439.02 1244.05  10
  -2 -15   8 13236.9 2249.22  11
   2 -15  -8 13449.7 1509.95  21
  -2 -15   8 11990.9 2280.52  10
  -2  15   8 12448.0 2230.64   3
  -2  15   7 1046.90 681.888  16
  -2  15   7 708.315 656.627   3
   2  15  -7 1691.76 911.682   1
   2 -15  -7 593.014 397.831  21
  -2 -15   7-1108.08 837.537  10
  -2 -15   7 634.557 633.736  11
  -2 -15   6 816.540 662.038  11
  -2  15   6 2254.63 974.089   3
  -2 -15   6 859.714 974.508  10
   2 -15  -6 1588.14 546.742  21
  -2  15   6 1339.42 734.946  16
   2  15  -6 557.009 726.674   1
  -2 -15   5-892.275 685.643  11
  -2 -15   5 410.378 622.245  10
   2 -15  -5-118.324 384.973  21
   2  15  -5-532.455 661.633   1
  -2  15   5-2069.03 899.700   3
   2  15  -4 2612.45 1119.24   1
   2  15  -3 726.681 658.752   1
   2  15  -2 186.159 499.002   1
   2  15  -1 1185.93 677.849   1
   2  15   0 1029.23 708.839   1
  -2  15   0 533.382 460.437   1
   2  15   1 1607.36 744.233   1
  -2  15  -1 1694.73 684.180   1
  -2 -15  -1 1513.13 641.130   4
  -2 -15  -2 7474.43 1283.53   4
  -2  15  -2 8167.93 1484.72   1
   2  15   2 8103.39 1569.08   1
  -2 -15  -3 1361.25 681.664   4
  -2  15  -3 740.712 526.947   1
   2 -15   3 1700.53 546.853  19
   2 -15   4 9695.65 1104.00  19
  -2 -15  -4 10252.7 1638.40   4
   2  15   5 22582.3 2818.36   3
   2 -15   5 17488.1 1499.23  19
   2 -15   5 18017.0 2631.83  10
  -2 -15  -5 19680.6 2339.05   4
  -2 -15  -6 270.341 572.077   4
   2 -15   6 436.335 603.930  10
   2  15   6 76.5479 462.450   3
   2  15   6 962.510 651.511   7
   2 -15   7 2667.03 1021.91  10
   2  15   7 3431.44 1029.13   7
   2  15   7 2699.59 1025.78   3
  -2 -15  -7 3340.58 1087.52   4
   2  15   8 1504.23 834.983   7
   2 -15   8 1545.87 888.088  10
   2  15   8 1882.86 1029.60   3
  -2 -15  -8 965.390 455.676  21
   2  15   9 399.998 578.645   7
   2  15   9 1530.55 858.139   2
   2  15   9 1262.68 779.094   3
  -2 -15  -9-137.203 314.578  21
   2 -15   9-3.42961 599.228  10
   2  15  10 11359.9 2126.05   3
   2  15  10 8849.48 1197.23  24
   2  15  10 9489.16 2206.57   2
   2 -15  10 11988.8 2197.45  10
   2  15  10 11062.7 1908.46   7
   2  15  11-796.928 735.392   2
   2  15  11-13.0930 300.772  24
   2  15  11 622.989 411.864   7
   2 -15  11 194.300 466.379  10
   2  15  12 1774.09 995.519   2
   2  15  12 1365.57 435.995  24
   2 -15  12 1682.28 886.125  10
   2  15  13 29.8365 397.002   2
   2  15  13 166.053 255.822  24
   2 -15  13-79.6494 314.999  10
  -2  16  13 685.878 491.864   2
  -2 -16  13 245.500 474.844  10
  -2  16  12 648.402 704.679   2
  -2 -16  12 414.474 542.401  10
  -2  16  11 14.0608 462.631   2
  -2 -16  11 276.681 607.806  10
  -2 -16  10 1771.30 949.780  10
  -2  16  10 495.722 643.884   2
  -2  16   9 350.550 401.876   3
  -2 -16   9 965.447 760.463  10
   2 -16  -9 1057.46 453.450  21
  -2 -16   8 5493.29 1434.65  11
  -2 -16   8 6288.92 1675.62  10
   2 -16  -8 5504.15 1001.78  21
  -2  16   8 5156.07 1495.61   3
  -2 -16   7 1315.36 757.307  11
  -2 -16   7 256.640 566.252  10
   2 -16  -7 164.487 347.281  21
  -2 -16   6 734.183 641.255  11
   2 -16  -6 338.426 380.817  21
  -2  16   6 154.442 428.354   3
  -2 -16   6 2446.97 1149.12  10
   2  16  -6 1126.79 809.409   1
  -2  16   6 436.627 655.171  16
   2 -16  -5 658.760 540.926  21
  -2 -16   5 857.650 842.383  10
  -2 -16   5 364.265 497.523  11
  -2  16   5-177.750 429.313   3
   2  16  -5 681.556 684.142   1
   2  16  -4 18973.2 2582.64   1
  -2 -16   4 16310.8 2464.15  11
  -2 -16   4 15289.6 2473.77  10
  -2  16   4 17084.4 2396.97   3
   2  16  -3 7153.22 1481.28   1
  -2 -16   3 6411.66 1662.65  10
   2  16  -2 1582.73 893.362   1
   2  16  -1 11744.5 1950.81   1
  -2  16   0 1853.38 761.221   1
   2  16   0 1452.34 754.656   1
  -2  16  -1 1749.44 946.586   1
   2  16   1 1130.17 582.391   1
   2 -16   2 14307.0 1369.89  19
  -2  16  -2 14903.8 2014.53   1
  -2 -16  -2 15893.4 1900.11   4
   2 -16   3 5567.45 1516.63  10
   2  16   3 4938.08 1360.11   3
   2 -16   3 4558.50 794.819  19
  -2 -16  -3 5800.99 1261.77   4
   2 -16   4 1056.06 509.337  10
   2  16   4 1636.56 788.653   3
  -2 -16  -4 1192.76 666.403   4
   2 -16   4 879.455 426.749  19
   2  16   5 5797.79 1329.28   7
   2 -16   5 3946.46 746.794  19
   2 -16   5 4980.15 1389.11  10
  -2 -16  -5 4818.96 1223.67   4
   2  16   5 7485.14 1703.07   3
  -2 -16  -6-202.768 500.902   4
   2  16   6 1277.91 789.936   7
   2  16   6-885.733 728.608   3
   2 -16   6 892.168 793.285  10
   2  16   7 272.380 663.625   7
   2  16   7 1143.88 801.934   3
   2 -16   7 1057.34 901.923  10
  -2 -16  -8-907.973 441.491  21
   2  16   8-313.551 736.037   7
   2 -16   8-630.948 693.691  10
   2  16   8 874.166 665.017   3
   2 -16   9 1093.79 849.321  10
   2  16   9 288.474 581.455   2
  -2 -16  -9 76.7245 291.437  21
   2  16   9-429.117 548.840   3
   2  16   9-308.018 531.457   7
   2  16  10 579.983 482.022   7
   2 -16  10 39.3201 537.217  10
   2  16  10 888.240 649.917   2
   2  16  10 93.5789 425.991   3
   2  16  10 136.082 267.068  24
   2  16  11 317.643 488.518   7
   2  16  11 604.889 391.788  24
   2 -16  11 97.2095 505.175  10
   2  16  11 333.992 511.341   2
   2  16  12 359.475 282.084  24
   2 -16  12 143.154 374.170  10
   2  16  13 1249.62 702.858   2
   2 -16  13 128.478 390.805  10
  -2 -17  13 832.919 479.284  10
  -2  17  13 921.342 518.555   2
  -2  17  12-1051.15 643.145   2
  -2 -17  12-124.344 401.420  10
  -2 -17  11 2841.38 1078.61  10
  -2  17  11 2374.31 1043.39   2
  -2 -17  10 1134.82 798.530  10
  -2  17  10 998.598 648.054   2
  -2 -17   9-280.093 546.115  10
   2 -17  -9-47.3852 292.826  21
  -2  17   9 379.749 599.727   3
  -2  17   8 18111.6 2597.84   3
   2 -17  -8 16214.0 1670.76  21
  -2 -17   8 15363.9 2545.24  10
   2 -17  -7 6168.98 1074.74  21
  -2 -17   7 4648.82 1483.77  10
  -2  17   7 5538.72 1562.60   3
  -2 -17   7 6747.69 1572.46  11
  -2 -17   6 492.671 603.404  11
  -2  17   6 228.163 475.664   3
   2 -17  -6 526.092 380.231  21
  -2 -17   6-903.984 717.564  10
  -2 -17   5-1248.84 793.613  11
  -2 -17   5-940.668 770.355  10
   2  17  -5 632.586 747.822   1
   2 -17  -5 656.131 367.891  21
  -2  17   5 388.319 530.995   3
  -2 -17   4 3122.08 1139.04  11
   2  17  -4 2145.35 910.232   1
  -2 -17   4 2641.53 1069.67  10
  -2  17   4 3131.78 1100.28   3
   2  17  -3 188.725 429.446   1
  -2  17   3 2765.66 1018.45   3
  -2 -17   3 962.499 704.159  11
  -2 -17   3 1817.12 1086.47  10
  -2  17   2 803.203 456.539   3
  -2 -17   2-160.808 432.755  11
  -2 -17   2 475.641 569.289  10
  -2  17   1 128.657 421.447   3
  -2 -17   1-33.2440 430.796  10
   2  17  -1 103.230 696.746   1
   2  17   0 312.140 465.893   1
   2  17   0 744.291 778.615   3
  -2  17   0-1143.93 677.806   3
  -2  17  -1 268.106 580.146   1
   2 -17   1-1465.73 822.863  10
   2  17   1 250.979 543.561   1
   2  17   1-72.5976 396.175   3
   2 -17   2 3632.20 738.929  19
   2 -17   2 3419.58 1205.67  10
   2  17   2 2420.19 964.703   3
  -2 -17  -3 1941.96 801.846   4
   2 -17   3-420.482 598.403  10
   2  17   3 1508.71 786.738   3
   2 -17   3 2081.91 576.067  19
   2 -17   4 120.171 718.317  10
   2  17   4-543.908 561.870   3
   2 -17   4 112.752 313.441  19
  -2 -17  -4 1165.33 681.274   4
   2  17   5 1549.30 832.439   3
   2 -17   5 945.365 453.562  19
   2  17   5 620.688 485.445   7
   2 -17   5 1018.42 755.404  10
   2  17   6 779.786 680.498   3
   2  17   6-878.464 643.740   7
   2 -17   6-352.267 554.563  10
   2  17   7 14385.0 2389.31   3
   2 -17   7 16310.1 2551.79  10
   2  17   7 16040.3 2233.15   7
   2  17   8 4099.00 1173.00   7
   2  17   8 4175.80 1339.69   3
  -2 -17  -8 4379.22 872.121  21
   2 -17   8 3488.97 1238.61  10
  -2 -17  -9 8911.44 1175.53  21
   2  17   9 11157.9 1858.02   7
   2  17   9 10615.9 2211.30   2
   2  17   9 9335.33 1854.24   3
   2 -17   9 8370.30 1813.55  10
   2  17  10 4973.66 1551.37   2
   2  17  10 4842.54 1183.59   7
   2 -17  10 4849.70 1388.46  10
   2  17  10 5459.04 865.784  24
  -2 -17 -10 5438.73 885.859  21
   2  17  11 603.908 307.517  24
   2  17  11 167.876 433.604   2
   2 -17  11 828.636 683.213  10
   2  17  12 1628.78 854.615   2
   2  17  12 1627.42 403.858  24
   2 -17  12 1158.55 611.872  10
   2  17  13 1783.62 643.505   2
  -2  18  12-23.9316 418.414   2
  -2 -18  12-241.797 409.837  10
  -2 -18  11-378.272 450.681  10
  -2  18  11-780.371 590.312   2
  -2  18  10 75.1010 439.391   2
  -2 -18  10 95.4326 552.472  10
  -2  18   9 103.257 387.490   3
  -2 -18   9 104.930 500.112  10
   2 -18  -9-1.21780 291.524  21
   2 -18  -8 644.525 367.651  21
  -2 -18   8 239.263 544.801  10
  -2  18   8 608.055 472.110   3
  -2  18   7 570.029 573.742   3
  -2 -18   7-173.554 650.831  10
   2 -18  -7-193.755 339.155  21
   2 -18  -6 388.744 394.290  21
  -2 -18   6 92.6166 363.248  11
  -2  18   6 428.539 543.516   3
  -2 -18   6 797.841 568.937  10
  -2  18   5 1491.64 1132.26   3
   2 -18  -5 697.748 440.969  21
  -2 -18   5 1389.15 811.046  11
  -2 -18   5 180.513 667.209  10
  -2  18   4 3659.85 1224.10   3
   2 -18  -4 4137.99 901.644  21
  -2 -18   4 3408.40 1224.29  10
  -2 -18   4 4198.96 1319.42  11
   2  18  -4 1835.82 745.812   1
  -2 -18   3 2712.21 1148.53  11
  -2 -18   3 2580.52 1046.83  10
  -2  18   3 3523.26 1163.21   3
   2  18  -3 3225.98 1201.87   1
   2  18  -2 6837.18 1682.93   1
  -2 -18   2 2364.15 1213.59  10
  -2  18   2 4648.59 1219.03   3
   2  18  -1 53758.5 4363.50   1
  -2 -18   1 57800.8 4925.92  10
  -2  18   1 52641.8 4133.05   3
  -2  18   0 1635.36 837.791   3
   2  18   0 2200.12 1022.23   1
   2  18   0 862.689 611.250   3
   2  18   1 350.311 423.302   3
  -2  18  -1-112.454 739.786   3
   2  18   1 456.413 449.236   1
   2 -18   2 6029.15 955.792  19
   2  18   2 5171.40 1453.96   3
   2 -18   2 3232.28 1171.16  10
  -2 -18  -3 6765.73 1358.05   4
   2  18   3 8178.87 1763.33   3
   2 -18   3 9272.52 1992.42  10
   2 -18   3 7318.92 1002.81  19
  -2 -18  -4 5464.21 1320.53   4
   2 -18   4 6869.99 1742.41  10
   2  18   4 4207.31 1340.58   3
   2 -18   4 3916.65 762.681  19
   2  18   5 522.007 516.928   3
   2 -18   5 250.203 573.924  10
   2  18   6 2445.88 951.562   7
   2 -18   6 2039.40 956.965  10
   2  18   6 2300.32 1006.14   3
   2  18   7 4347.26 1185.51   7
   2 -18   7 2732.48 1200.24  10
  -2 -18  -7 4310.35 874.096  21
   2  18   7 4441.13 1334.71   3
   2  18   8-24.3356 461.151   3
   2 -18   8 2705.21 1082.47   8
  -2 -18  -8 1779.85 608.830  21
   2 -18   8 269.168 560.868  10
   2  18   8 1013.61 623.189   7
  -2 -18  -9 23.8612 261.015  21
   2  18   9 767.900 578.125   7
   2  18   9 190.274 372.171   2
   2  18   9 538.596 635.085   3
   2 -18   9 266.998 502.850  10
   2  18  10 167.745 228.957  24
  -2 -18 -10 897.051 414.916  21
   2 -18  10 634.526 356.769  10
   2  18  11 542.864 665.492   2
   2 -18  11-66.1603 344.920  10
   2  18  11-362.034 289.371  24
   2  18  12 437.385 322.310   2
   2 -18  12-449.175 404.703  10
  -2 -19  12-20.7978 299.927  10
  -2  19  12 783.392 465.039   2
  -2  19  11 3174.84 1006.97   2
  -2 -19  11 4443.16 1087.81  10
  -2  19  10-759.061 613.714   2
  -2 -19  10 362.541 529.818  10
  -2 -19   9 433.796 543.520  10
   2 -19  -9 536.353 325.050  21
  -2  19   8-701.226 449.844   3
   2 -19  -8-189.763 309.275  21
  -2 -19   8-55.7753 450.889  10
  -2  19   7 34.1773 525.742   3
   2 -19  -7-227.844 292.226  21
  -2 -19   7-1326.06 827.607  10
  -2 -19   6-412.852 524.253  11
  -2 -19   6 77.9699 556.451  10
   2 -19  -6 283.367 350.532  21
  -2  19   6-399.840 517.413   3
  -2 -19   5 1066.68 560.946  11
  -2  19   5 2938.80 1098.14   3
   2 -19  -5 3154.64 793.932  21
  -2 -19   5 3711.09 1364.79  10
   2 -19  -4 647.917 406.822  21
  -2  19   4 1182.91 656.648   3
  -2 -19   4 1766.47 903.368  11
  -2 -19   4 552.863 631.512  10
  -2 -19   3 1301.77 864.480  10
   2 -19  -3 1712.40 605.193  21
  -2  19   3 1236.59 749.960   3
  -2 -19   2 390.067 609.554  10
  -2  19   2 932.565 675.133   3
   2  19  -1 2409.01 1028.36   3
  -2  19   1 3357.80 1156.50   3
   2  19  -1 5306.00 1542.57   1
   2  19   0 3508.37 1097.02   3
   2  19   0 5714.74 1486.75   1
  -2  19   0 5815.34 1443.73   3
   2  19   1 1044.22 747.430   3
   2 -19   1 1645.58 571.022  19
  -2  19  -1 1075.70 680.773   3
   2  19   2-211.911 458.636   3
   2 -19   2-204.651 292.199  19
   2  19   3 5790.66 1465.79   3
   2 -19   3 6692.60 1682.72  10
   2  19   4 1329.47 756.657   3
   2 -19   4 2199.48 1121.25  10
   2  19   5 3424.76 1164.98   3
   2 -19   5 2523.60 1069.05  10
   2 -19   6 26.1239 448.943  10
   2  19   6 110.510 431.636   3
  -2 -19  -7 17253.8 1644.80  21
   2  19   7 19223.4 2297.74   7
   2  19   7 19579.7 2659.23   3
   2 -19   7 15457.4 2419.88  10
   2  19   8 2377.56 977.804   3
   2  19   8 1799.63 768.314   7
   2 -19   8 2092.41 968.443  10
  -2 -19  -8 2761.69 689.889  21
   2 -19   8 3939.55 1303.87   8
   2  19   9 1727.45 784.643   3
  -2 -19  -9 1509.94 507.263  21
   2  19   9 2054.19 903.110   2
   2 -19   9 1815.98 913.146  10
   2  19  10-456.329 487.348   2
   2 -19  10-199.752 401.069  10
   2  19  10 339.892 263.742  24
  -2 -19 -10 132.718 226.679  21
   2 -19  11 346.739 392.553  10
   2  19  11 905.954 531.831   2
   2  19  11-67.1995 212.013  24
  -2  20  11-42.7146 266.293   2
  -2 -20  11-23.4508 337.814  10
  -2  20  10-424.066 489.039   2
  -2 -20  10 532.708 397.992  10
  -2 -20   9-331.486 474.411  10
  -2  20   9 587.176 597.111   2
  -2  20   8 1090.16 559.403   3
  -2 -20   8 1035.24 721.666  10
   2 -20  -8 927.271 451.256  21
   2 -20  -7 900.750 440.582  21
  -2 -20   7 6.08365 489.333  10
  -2  20   7 511.659 477.798   3
   2 -20  -6 374.139 317.084  21
  -2  20   6 758.828 714.250   3
  -2 -20   6 1003.48 748.036  10
  -2 -20   5 223.581 567.712  10
  -2  20   5 1107.51 662.668   3
   2 -20  -5 989.790 479.713  21
  -2 -20   4 2419.30 980.605  10
  -2  20   4 2528.62 939.431   3
   2 -20  -4 2981.43 773.501  21
  -2  20   3 4605.01 1427.15   3
  -2 -20   3 3427.85 1255.02  10
   2 -20  -3 4969.13 931.113  21
   2 -20  -2 5200.61 953.984  21
   2  20  -2 3884.52 1134.18   3
  -2  20   2 4946.35 1401.19   3
   2  20  -1 18880.2 2585.63   3
  -2  20   1 23698.5 2800.41   3
  -2  20   0-1630.55 808.737   3
   2  20   0 597.638 622.041   3
   2  20   1 21.1311 466.336   3
  -2  20  -1 768.262 593.814   3
   2  20   2 6274.81 1572.49   3
   2  20   3-292.805 538.729   3
   2 -20   3-1031.70 759.884  10
   2  20   4 792.671 730.759   3
   2 -20   4 1357.72 840.302  10
   2  20   5 1732.63 717.641   3
   2 -20   5 1962.53 868.424  10
   2  20   6 324.878 558.731   3
   2 -20   6-89.7306 536.308  10
  -2 -20  -6 537.140 378.921  21
   2 -20   7 582.156 679.382  10
   2 -20   7 53.9151 442.905   8
  -2 -20  -7 848.443 422.770  21
   2  20   7 645.562 602.941   3
   2  20   8 220.242 446.843   2
   2  20   8 112.900 438.793   3
  -2 -20  -8 472.875 300.840  21
   2 -20   8 1311.66 839.967   8
   2 -20   8 257.287 473.827  10
   2  20   9 1063.27 670.096   3
  -2 -20  -9 43.4372 265.742  21
   2  20   9 703.645 571.000   2
   2 -20   9 188.079 407.468  10
   2  20  10 84.8777 211.420  24
   2  20  10 734.248 556.599   2
   2 -20  10-134.899 305.111  10
  -2  21  10-175.262 293.279   2
  -2 -21  10 168.279 282.297  10
  -2  21   9 255.097 425.327   2
  -2 -21   9-592.312 536.330  10
  -2  21   8 3317.26 956.446   3
   2 -21  -8 3391.31 671.720  21
  -2 -21   8 2284.42 871.127  10
   2 -21  -7 141.275 306.647  21
  -2  21   7-724.682 535.400   3
  -2 -21   7 537.838 573.715  10
   2 -21  -6 319.520 289.485  21
  -2  21   6 24.1150 403.630   3
  -2 -21   6 242.974 473.504  10
  -2  21   5 172.693 356.025   3
  -2 -21   5 64.2461 521.733  10
   2 -21  -5 223.065 275.996  21
  -2 -21   4-9.80504 532.535  10
   2 -21  -4-228.537 284.021  21
  -2  21   4 106.377 551.308   3
   2  21  -3 276.256 423.652   3
   2 -21  -3-73.3870 374.457  21
   2 -21  -2 2183.40 612.104  21
  -2  21   2 1565.79 784.917   3
   2 -21  -1 2161.71 681.894  21
   2  21  -1 1556.27 797.036   3
  -2  21   1 2258.61 947.079   3
   2  21   0 248.397 481.122   3
  -2  21   0 971.901 811.235   3
  -2  21  -1 1810.60 827.168   3
   2  21   1 1081.92 688.459   3
   2  21   2 2257.66 1035.94   3
   2  21   3 712.406 635.156   3
   2  21   4 4703.39 1358.43   3
   2  21   5-228.761 471.121   3
   2 -21   5 144.061 586.726  10
   2 -21   6 526.285 563.422  10
  -2 -21  -6 1389.54 537.044  21
   2  21   6 1088.80 738.069   3
   2 -21   7-313.665 372.780  10
   2  21   7 862.453 529.515   3
  -2 -21  -7 105.762 255.211  21
   2 -21   7 641.453 589.414   8
   2  21   8 6342.01 1361.82   2
   2 -21   8 6732.94 1429.45  10
   2  21   8 7387.59 1423.53   3
   2 -21   8 7082.66 1422.71   8
  -2 -21  -8 7630.71 969.914  21
   2  21   9 324.072 222.172  24
  -2 -21  -9 179.087 271.537  21
   2  21   9 453.346 437.638   2
   2 -21   9 36.9175 381.996  10
   2 -21  10 3525.20 842.105  10
   2  22  -9 1913.66 523.725   3
  -2 -22   9 1245.31 586.410  10
  -2  22   9 678.552 457.481   2
   2  22  -8 971.999 435.760   3
  -2 -22   8 322.173 313.744  10
  -2  22   7-305.543 387.845   3
  -2 -22   7-144.933 428.526  10
   2  22  -7-182.712 317.808   3
   2 -22  -7-88.5958 219.677  21
  -2  22   6 1982.84 807.362   3
   2  22  -6 3196.41 953.958   3
  -2 -22   6 1887.86 792.485  10
   2 -22  -6 3321.07 728.053  21
   2 -22  -5-263.795 367.892  21
  -2 -22   5 432.973 610.623  10
   2  22  -5-985.813 595.072   3
  -2  22   5 596.861 506.830   3
  -2  22   4 649.698 567.497   3
   2 -22  -4 174.767 301.374  21
   2  22  -4 139.204 382.941   3
   2  22  -3-214.608 531.751   3
   2 -22  -3 474.318 343.423  21
  -2  22   3 201.546 508.323   3
  -2  22   2 715.514 538.656   3
   2  22  -2 1761.89 849.671   3
   2 -22  -2 626.104 335.990  21
   2  22  -1 1787.45 959.855   3
  -2  22   1 1982.01 857.857   3
   2 -22  -1 1076.01 409.886  21
  -2  22   0 7373.39 1550.47   3
   2  22   0 6220.10 1428.36   3
  -2  22  -1 1260.14 684.155   3
   2  22   1 866.347 700.862   3
   2  22   2 937.619 723.900   3
   2  22   3 376.347 461.950   3
   2  22   4 2191.51 940.067   3
   2  22   5 1989.96 811.600   3
  -2 -22  -5 1300.24 471.485  21
   2 -22   6-204.228 389.119   8
  -2 -22  -6 51.4064 318.415  21
   2  22   6 466.338 473.412   3
   2 -22   7 37.0110 368.862   8
   2  22   7-306.496 446.904   3
  -2 -22  -7 31.0716 235.059  21
   2 -22   8 273.721 372.429   8
   2  22   8 886.186 520.853   3
   2  22   8 401.797 393.621   2
  -2 -22  -8 213.392 252.887  21
  -2 -22  -9 330.863 225.173  21
   2  23  -8 1719.65 547.055   3
  -2  23   8 1992.52 739.961   2
   2  23  -7 1402.17 556.617   3
   2 -23  -7 1308.89 418.911  21
  -2  23   6-28.1363 350.134   3
   2 -23  -6-52.4520 235.364  21
   2  23  -6-574.813 438.572   3
   2  23  -5 157.197 342.753   3
   2 -23  -5-54.3807 230.933  21
  -2  23   5-822.246 526.996   3
  -2  23   4 867.645 531.664   3
   2 -23  -4 955.550 404.099  21
   2  23  -4 1178.92 650.790   3
  -2  23   3-1.15490 324.098   3
   2 -23  -3 519.248 354.963  21
   2  23  -3-471.938 498.126   3
  -2  23   2-417.586 472.929   3
   2 -23  -2 94.3198 254.639  21
   2  23  -2-358.126 559.072   3
  -2  23   1 671.543 587.406   3
   2 -23  -1 1374.02 734.146   8
   2  23  -1 756.437 587.157   3
   2  23   0 463.197 475.216   3
  -2  23   0-909.533 589.048   3
   2  23   1 442.245 422.623   3
   2  23   2 2313.81 830.836   3
   2  23   3 506.407 542.844   3
  -2 -23  -4 923.753 440.686  21
   2  23   4 1448.00 733.632   3
   2 -23   4 212.150 445.998   8
  -2 -23  -5 1921.38 517.089  21
   2  23   5 1556.38 743.377   3
   2 -23   5 1974.50 864.587   8
   2 -23   6 268.092 462.374   8
   2  23   6-241.168 442.815   3
  -2 -23  -6 95.6645 218.246  21
  -2 -23  -7 3924.76 640.912  21
   2 -23   7 5143.88 1153.03   8
   2  23   7 5104.23 1093.68   3
  -2 -23  -8 33.7468 219.828  21
   2  23   8-91.9275 268.857   3
  -2  24   7 500.559 391.311   2
  -2  24   6-456.187 365.515   3
   2 -24  -6-295.787 248.687  21
   2 -24  -6 217.158 304.174   5
  -2  24   5 306.658 364.068   3
   2 -24  -5-544.281 296.372  21
   2  24  -5 129.427 348.097   3
   2  24  -4 1365.85 592.298   3
   2 -24  -4 916.188 363.018  21
  -2  24   4 1313.90 583.263   3
  -2  24   3 4184.76 1034.78   3
   2 -24  -3 4738.09 737.406  21
   2  24  -3 4504.03 1089.10   3
  -2  24   2 1920.75 766.407   3
   2 -24  -2 933.456 388.906  21
   2  24  -2 903.239 503.043   3
   2 -24  -1 9671.62 1642.37   8
  -2  24   1 10531.5 1603.62   3
   2  24  -1 10938.4 1717.44   3
   2 -24   0 337.497 490.873   8
   2  24   0 940.404 661.288   3
   2 -24   1 1203.50 629.120   8
   2  24   1-67.0110 342.639   3
   2 -24   2 2110.88 857.319   8
   2  24   2 1116.73 595.729   3
   2  24   3 913.913 544.259   3
   2 -24   3 674.068 573.091   8
  -2 -24  -3 1514.24 481.147  21
   2 -24   4-870.134 597.983   8
   2  24   4 307.007 495.574   3
  -2 -24  -4-317.088 303.985  21
  -2 -24  -5 457.903 256.528  21
   2  24   5 586.923 502.988   3
   2 -24   5 550.787 464.688   8
  -2 -24  -6-41.2370 188.126  21
   2  24   6 229.252 346.438   3
   2 -24   6-190.414 348.760   8
  -2 -24  -7 145.973 174.627  21
   2  24   7-44.3863 230.495   3
   2 -25  -5-829.578 440.070   5
   2  25  -5-982.761 437.230   3
   2  25  -4 8.37592 267.735   3
   2 -25  -4 91.2835 203.054  21
   2  25  -3 748.076 481.729   3
  -2  25   3 816.872 501.762   3
   2 -25  -3 227.875 229.667  21
   2  25  -2 389.427 490.721   3
   2  25  -1 266.359 368.316   3
   2 -25   0 246.806 348.722   8
  -2 -25   0 8.80599 188.351  21
   2  25   0 17.4564 416.514   3
  -2 -25  -1 711.415 316.844  21
   2 -25   1 484.115 531.569   8
   2  25   1 1066.44 591.989   3
   2 -25   2 470.010 500.100   8
  -2 -25  -2 194.277 261.564  21
   2  25   2 188.779 283.896   3
   2 -25   3 2251.55 800.375   8
   2  25   3 1186.65 551.630   3
  -2 -25  -3 1304.03 382.186  21
   2 -25   4 812.706 541.088   8
   2  25   4 1118.64 531.587   3
  -2 -25  -4 638.466 287.493  21
   2 -25   5 1905.94 707.691   8
  -2 -25  -5 1524.62 375.754  21
   2  25   5 1812.11 598.299   3
   2  26  -2 167.882 253.712   3
   2  26  -1 487.345 370.288   3
   2  26   0 425.080 476.928   3
  -2 -26  -1 356.990 217.288  21
   2  26   1-6.82305 303.799   3
   2 -26   1-165.406 314.860   8
   2  26   2 1009.37 471.084   3
  -2 -26  -2 487.892 231.891  21
   2  26   3 321.229 395.205   3
  -2 -26  -3-179.212 198.273  21
   2 -26   3 457.111 357.236   8
  -3   0  17 132.332 314.864  10
  -3   0  16 778.052 525.363  11
  -3   0  16 362.568 384.117  10
  -3   0  15-123.551 657.841  10
  -3   0  15 571.592 540.019  11
  -3   0  14-56.3857 454.520  10
  -3   0  14 717.256 627.286  11
  -3   0  13-49.3874 713.553  11
  -3   0  12 29579.8 3752.46  12
  -3   0  12 32739.1 3703.26  11
  -3   0  11-118.792 873.829  12
  -3   0  11 868.787 933.007  11
  -3   0  10 38533.7 3885.39  12
  -3   0   9-50.2722 552.248  12
  -3   0   8 16658.9 2241.01  12
  -3   0   7-119.592 287.036  16
  -3   0   6 13933.4 1258.44  16
  -3   0   5-53.9626 254.614  16
  -3   0   4 14611.4 1174.31  16
  -3   0   4 11983.5 560.014  17
  -3   0   4 15656.6 1101.34  18
  -3   0   4 14485.6 589.044  14
  -3   0   3-93.0960 207.718  16
  -3   0   3-115.795 193.371  18
  -3   0   3-0.76266 127.750  14
  -3   0   2 1578.99 286.762  14
  -3   0   1-38.7508 163.657  14
   3   0   0 847.113 271.281  14
   3   0   1 128.307 185.640  14
   3   0   2 413650. 4815.45  14
   3   0   3 224.148 305.186  12
   3   0   3 359.133 190.596  20
   3   0   3-77.9866 240.715  14
   3   0   4 5627.49 492.090  20
   3   0   4 5582.79 903.811  12
  -3   0  -4 6476.80 700.113  15
   3   0   4 6445.51 705.778  14
   3   0   5-55.4921 398.636  12
   3   0   5-218.276 251.937  14
  -3   0  -5 29.8857 173.383  15
   3   0   5 106.848 174.264  20
   3   0   6 92742.0 4234.31  12
   3   0   7-452.117 502.860  12
   3   0   8 18412.0 2359.01  12
   3   0   9-1763.26 893.953  12
   3   0  10 15880.5 2672.70  12
   3   0  11-480.937 384.174  24
   3   0  11-1827.89 1083.22  12
   3   0  12 5219.74 1822.24  12
   3   0  12 3460.94 784.194  24
   3   0  13-571.323 529.125  22
   3   0  13 391.614 432.661  10
   3   0  13 392.964 345.146  24
   3   0  14 4414.51 682.669  22
   3   0  14 4091.62 853.624  24
   3   0  14 5018.47 1397.18  10
   3   0  15-1218.23 709.146  10
   3   0  15 613.401 428.094  22
   3   0  16-141.666 428.119  10
  -3   1  17 1031.07 588.842  10
  -3  -1  17 1017.89 548.090  10
  -3  -1  16 978.358 552.319  11
  -3  -1  16 272.694 472.621  10
  -3   1  16 165.353 384.982  10
  -3   1  16 481.989 481.281  11
  -3   1  15 961.032 531.759  10
  -3  -1  15 587.775 550.567  10
  -3   1  15 781.388 613.778  11
  -3   1  14-1265.82 821.115  10
  -3  -1  14-63.2323 453.606  10
  -3   1  14-922.969 719.871  11
  -3  -1  14 343.487 540.116  11
  -3  -1  13 243.068 587.025  11
  -3  -1  13-209.897 786.373  10
  -3   1  13 86.9766 448.188  11
  -3  -1  12-324.689 762.218  11
  -3   1  12-972.581 829.530  12
  -3  -1  12-2686.22 1225.37  12
  -3   1  12-302.846 496.634  11
  -3  -1  11 260.362 604.696  12
  -3   1  11-812.746 775.498  12
  -3   1  11 478.299 638.139   2
  -3   1  11-50.3354 547.110  11
  -3  -1  11 202.732 465.488  11
  -3   1  10 512.530 611.175  12
  -3  -1  10 1342.38 883.648  12
  -3   1   9 2456.66 1042.60  12
  -3  -1   9 1437.22 837.697  12
  -3  -1   8 2958.63 1021.86  12
  -3   1   7 4309.83 790.673  16
  -3  -1   7 3158.77 945.892  12
  -3  -1   7 3715.25 695.623  16
  -3   1   6 3978.75 703.756  16
  -3  -1   6 3523.01 638.457  16
  -3   1   5 80087.0 2891.67  16
  -3  -1   5 80775.7 2795.31  16
  -3   1   4 694.793 283.792  18
  -3  -1   4 447.077 84.1809  15
  -3  -1   4 1017.51 354.210  18
  -3   1   4 737.864 207.164  17
  -3   1   4 840.104 328.863  16
  -3  -1   4 435.029 243.434  16
  -3   1   3 264311. 4394.11  16
  -3  -1   3 275284. 4076.61  18
  -3  -1   3 268978. 4296.43  16
  -3   1   3 264220. 4073.00  18
  -3   1   2 482963. 4888.48  18
   3   1  -1 13842.1 733.277  14
   3   1   0 1118.22 266.042  14
   3   1   1 197785. 3167.91  14
   3  -1   2 670133. 7917.46  12
  -3   1  -2 656157. 5960.49  14
   3   1   3 295089. 2938.18  20
  -3   1  -3 286067. 4124.05  14
   3   1   3 300080. 5410.31  12
   3   1   3 295146. 4390.91  14
  -3  -1  -3 295844. 4427.66  15
   3  -1   3 291225. 5736.49  12
   3  -1   4-19.8757 303.936  12
   3  -1   4 375.175 207.652  20
   3   1   4 242.610 256.498  12
  -3  -1  -4 378.593 216.993  15
   3   1   4 115.667 156.860  20
   3   1   4 155.500 191.795  14
   3   1   5 28050.1 2084.82  12
   3  -1   5 28199.6 1183.26  20
  -3   1  -5 26875.9 1444.33  15
   3  -1   5 28250.1 2236.10  12
  -3  -1  -5 27756.7 1508.26  15
   3   1   5 27773.5 1526.78  14
   3  -1   6 7174.88 1293.82  12
   3   1   6 6443.67 1215.03  12
  -3  -1  -6 4670.78 663.383  15
   3   1   7 840.638 628.361  12
   3  -1   7 1330.03 745.100  12
   3   1   8 19227.2 2482.03  12
   3  -1   8 18922.3 2427.11  12
   3  -1   9 98.2941 562.103  12
   3   1   9 34.2603 633.540  12
   3  -1  10 383.109 514.584  12
   3   1  10-178.910 551.945  12
   3  -1  11 256.220 869.289  12
   3   1  11 626.907 418.215  24
   3  -1  11 289.714 310.406  24
   3   1  12-356.089 1192.80  12
   3  -1  12-326.683 559.864  10
   3   1  12-788.067 460.208  24
   3  -1  12-154.863 431.706  22
   3  -1  12 1245.63 1035.28  12
   3  -1  12 147.188 411.666  24
   3  -1  13-550.982 538.787  22
   3  -1  13-270.732 502.631  10
   3   1  13-75.9599 396.775  24
   3  -1  13 152.664 302.778  24
   3   1  13-62.5775 408.732  22
   3  -1  14 380.393 338.875  24
   3   1  14 669.447 397.494  22
   3   1  14 29.0083 461.544  10
   3  -1  14 358.129 444.023  10
   3   1  14 284.617 349.870  24
   3  -1  14 704.021 411.290  22
   3  -1  15 5377.73 733.639  22
   3   1  15 3327.25 685.675  24
   3   1  15 2552.84 945.754  10
   3   1  15 3016.65 550.298  22
   3  -1  15 1999.66 905.657  10
   3  -1  16 1758.27 735.366  10
   3   1  16 6781.58 1324.46  10
  -3  -2  17 982.828 551.690  10
  -3   2  17 498.976 520.472  10
  -3   2  16-254.969 410.897  10
  -3  -2  16 409.764 484.228  10
  -3  -2  16 28.1512 315.109  11
  -3   2  16-668.389 491.488  11
  -3  -2  15 4329.07 1302.61  10
  -3   2  15 5067.56 1315.97  11
  -3   2  15 3153.25 1175.66  10
  -3  -2  15 4842.09 1271.76  11
  -3   2  14 30.0202 548.900  11
  -3  -2  14 359.084 510.091  11
  -3  -2  14-583.543 636.384  10
  -3   2  13 1941.22 1027.03  11
  -3  -2  13 4242.54 1379.16  11
  -3  -2  13 2767.80 1246.79  10
  -3  -2  12 2615.87 1113.01  10
  -3  -2  12 3222.52 1210.23  12
  -3   2  12 4100.42 1537.47  12
  -3  -2  12 2708.21 1100.38  11
  -3   2  12 3201.78 1334.22   2
  -3   2  12 4041.47 1444.21  11
  -3  -2  11 4037.92 1331.76  12
  -3   2  11 5189.75 1565.33  12
  -3   2  11 4322.28 1447.47   2
  -3  -2  11 5647.28 1553.91  11
  -3   2  11 8978.26 1948.36  11
  -3  -2  10 23739.3 3072.24  12
  -3   2  10 24690.4 3165.91  12
  -3  -2   9 20418.1 2644.31  12
  -3   2   9 22398.0 2836.69  12
  -3  -2   8 270.946 460.831  12
  -3  -2   7 6480.13 1318.01  12
  -3   2   7 6118.13 938.385  16
  -3  -2   6 7661.99 1271.50  12
  -3   2   6 6831.45 933.527  16
  -3  -2   6 8440.15 964.997  16
  -3  -2   5 97865.1 2975.92  16
  -3   2   5 99386.5 3170.62  16
  -3   2   4 14138.1 1128.92  16
  -3  -2   4 14270.9 1055.46  18
  -3  -2   4 11512.5 558.101  17
  -3  -2   4 13719.1 1097.31  16
  -3   2   4 14136.2 868.781  17
  -3   2   3 43143.9 1842.95  16
  -3  -2   3 47066.9 1712.27  18
  -3  -2   3 43417.8 1758.63  16
  -3   2   3 41633.0 1450.83  17
  -3   2   3 41962.6 1654.00  18
  -3  -2   3 38541.6 1040.03  15
  -3  -2   2 829.416 218.237  15
  -3   2   2 1162.28 313.377  18
   3   2  -2 1095.61 243.555  14
   3   2  -1 759.480 244.247  14
  -3  -2   1 733.712 262.968  15
   3   2   0 3746.58 468.146  14
   3   2   1 58146.4 1812.28  14
  -3   2  -2 84353.7 2249.49  14
   3   2   2 82811.3 2270.28  14
   3   2   3 126120. 1907.15  20
  -3  -2  -3 128070. 3013.21  15
  -3   2  -3 128206. 2834.17  14
   3   2   3 127768. 3406.56  12
   3   2   3 127192. 3000.89  14
   3  -2   3 132047. 4066.93  12
   3   2   4 63735.1 2759.88  12
   3   2   4 67262.4 1550.86  20
   3   2   4 64167.7 2253.94  14
  -3  -2  -4 69176.2 2336.31  15
  -3   2  -4 64856.5 2110.71  14
   3  -2   4 66137.2 1694.78  20
   3  -2   4 65842.1 3171.00  12
   3   2   5 187858. 5322.84  12
   3  -2   5 204004. 3206.14  20
  -3  -2  -5 190124. 4086.68  15
   3   2   5 187793. 4102.07  14
   3  -2   5 200778. 5939.66  12
   3  -2   6 34753.6 2708.29  12
   3   2   6 35455.4 2588.85  12
   3   2   6 32543.9 1789.11  14
   3  -2   7 12812.6 1857.42  12
   3   2   7 14677.5 1877.63  12
   3  -2   8 62512.8 4462.23  12
   3   2   8 66550.1 4360.02  12
   3  -2   9 1248.32 798.792  12
   3   2   9 688.344 652.610  12
   3   2  10 1512.63 873.298  12
   3  -2  10 1800.04 1113.29  12
   3  -2  11 40799.4 4389.88  12
   3   2  11 32018.3 2217.30  24
   3   2  11 40542.9 4413.35  12
   3  -2  11 35425.4 2335.19  24
   3  -2  11 37717.3 3645.46  10
   3  -2  12 4909.48 1638.60  12
   3   2  12 3544.86 1573.53  12
   3  -2  12 5756.73 788.796  22
   3  -2  12 6201.94 1585.55  10
   3  -2  12 5195.87 934.062  24
   3   2  12 6594.53 1043.46  24
   3  -2  13 4648.47 910.863  24
   3  -2  13 2498.28 572.700  22
   3   2  13 3234.85 658.513  22
   3   2  13 2839.39 738.191  24
   3  -2  13 2414.97 954.101  10
   3  -2  14 455.993 548.850  10
   3   2  14 467.220 323.418  22
   3   2  14 24.0515 305.520  24
   3  -2  14-101.881 406.495  22
   3   2  14-489.967 553.292  10
   3  -2  15 751.608 538.532  10
   3   2  15 1263.28 455.973  22
   3   2  15 598.693 417.484  24
   3  -2  15 2160.91 624.605  22
   3   2  15-442.641 542.523  10
   3   2  16-71.1989 445.160  10
   3  -2  16-843.003 533.591  10
  -3   3  17 696.348 474.776  10
  -3  -3  17 326.888 370.534  10
  -3  -3  16-374.714 445.952  10
  -3  -3  16-503.184 425.923  11
  -3   3  16 37.3018 315.450  10
  -3   3  16 428.136 439.931  11
  -3  -3  15-15.2698 365.713  11
  -3   3  15-72.0668 383.469  11
  -3  -3  15-325.025 530.012  10
  -3   3  15 807.022 675.239  10
  -3   3  14-677.297 608.298  11
  -3  -3  14-449.925 572.700  11
  -3  -3  14-489.992 493.823  10
  -3   3  13 883.595 832.056  11
  -3  -3  13 112.735 513.196  10
  -3  -3  13 429.648 642.782  11
  -3  -3  12 1369.94 1001.49  12
  -3   3  12 16.8188 943.262  12
  -3   3  12 77.4461 674.730   2
  -3  -3  12 1223.81 832.980  10
  -3  -3  12-61.5100 586.972  11
  -3   3  12-25.8065 451.800  11
  -3  -3  11-383.347 498.324  12
  -3  -3  11-137.508 599.937  10
  -3   3  11 734.899 773.637  12
  -3   3  11-166.919 540.371   2
  -3  -3  11-79.8716 517.344  11
  -3   3  10-208.842 505.258  12
  -3  -3  10 1075.80 735.360  12
  -3  -3   9 11209.9 1992.83  12
  -3  -3   8-223.022 690.445  12
  -3   3   8-551.343 435.695  16
  -3  -3   7 7907.40 1460.57  12
  -3   3   7 8732.59 1132.62  16
   3  -3  -6 2777.59 600.329   4
  -3  -3   6 2872.39 793.171  12
  -3  -3   6 3250.26 606.266  16
  -3   3   6 4305.56 773.596  16
  -3  -3   5 350354. 7410.01  12
  -3  -3   5 336227. 5563.03  16
  -3  -3   5 325114. 5514.05  18
   3  -3  -5 347435. 5483.09   4
  -3   3   5 340723. 6119.80  16
  -3  -3   4 31623.6 2005.95  12
  -3  -3   4 27470.0 1041.36  17
   3  -3  -4 31488.5 1541.48   4
  -3   3   4 32410.2 1750.79  16
  -3  -3   4 30788.4 1593.43  16
  -3   3   4 31798.3 1462.42  17
  -3  -3   4 30165.4 1550.30  18
  -3  -3   3 274964. 4872.07  12
  -3   3   3 274005. 4218.68  18
  -3  -3   3 271811. 4492.50  16
  -3   3   3 269845. 4093.42  17
  -3   3   3 270436. 4701.09  16
   3   3  -3 263007. 2837.72  14
  -3   3   2 336092. 4264.87  18
   3   3  -2 332744. 3638.30  14
  -3   3   1 411423. 4174.13  18
  -3  -3   1 428324. 4579.40  15
   3  -3   1 41022.8 1038.04  19
  -3  -3  -1 39226.4 1604.29  16
   3   3   2 6651.41 693.866   1
  -3  -3  -2 8183.06 761.613  16
   3   3   3 47410.0 1128.86  20
   3  -3   3 44850.7 1315.45  20
  -3  -3  -3 48829.5 1959.99  15
  -3   3  -3 45460.9 1789.94  14
   3   3   3 44426.8 1979.82  12
   3  -3   3 46601.1 2517.02  12
   3  -3   4 5012.42 943.180  12
   3   3   4 4279.31 732.762  12
  -3  -3  -4 5582.66 734.571  15
   3  -3   4 6044.50 542.263  20
   3   3   4 5323.63 699.441  14
  -3   3  -4 5880.16 672.073  14
  -3  -3  -5 28170.5 1669.89  15
   3  -3   5 28414.4 1236.79  20
   3  -3   5 29150.8 2407.87  12
   3   3   5 25335.8 1963.20  12
  -3   3  -5 25617.4 1414.31  14
   3   3   5 25641.4 1590.24  14
   3   3   6 326.696 361.093  12
   3  -3   6 795.385 582.595  12
   3  -3   7 10114.9 1696.69  12
   3   3   7 9998.53 1549.75  12
   3   3   8 4264.98 1281.62  12
   3  -3   8 4557.73 1315.14  12
   3  -3   9 2571.42 1088.09  12
   3   3   9 2337.33 971.973  12
   3   3  10-59.8992 806.463  12
   3  -3  10-337.236 649.903  12
   3  -3  11 872.461 698.233  10
   3  -3  11 2297.37 1284.91  12
   3   3  11 634.339 624.155  12
   3   3  11 377.661 616.468   2
   3   3  11 991.342 472.487  24
   3  -3  11 671.031 429.138  22
   3  -3  11 516.075 455.127  24
   3  -3  12-1456.19 1049.00  12
   3  -3  12 1.57894 617.530  10
   3  -3  12-98.4343 429.287  24
   3   3  12-551.584 1392.81  12
   3   3  12 26.3678 331.629  24
   3  -3  12-646.249 471.934  22
   3  -3  13 17703.3 1377.38  22
   3  -3  13 16708.0 1643.09  24
   3  -3  13 13491.1 2285.44  10
   3   3  13 17454.6 1630.92  24
   3   3  14-86.2127 334.664  22
   3  -3  14-502.139 393.097  22
   3   3  14 424.607 328.624  24
   3  -3  14-50.5008 362.929  10
   3  -3  15 7793.15 1539.00  10
   3   3  15 11978.4 960.712  22
   3   3  15 11533.9 1184.12  24
   3   3  15 10745.1 1814.93  10
   3   3  16-348.323 449.364  10
   3  -3  16-51.1059 319.322  10
  -3   4  16 154.406 380.971  11
  -3  -4  16-527.306 420.913  11
  -3  -4  16 940.966 578.414  10
  -3   4  16 153.839 360.286  10
  -3  -4  15 5695.10 1344.25  11
  -3   4  15 3336.43 1110.48  11
  -3   4  15 2830.23 1008.78  10
  -3  -4  15 4045.58 1204.15  10
  -3  -4  14 949.536 837.144  11
  -3  -4  14 568.227 650.803  10
  -3   4  14-483.533 571.207  11
  -3   4  13 2150.50 987.563   2
  -3  -4  13 3702.75 1311.30  10
  -3  -4  13 3623.15 1275.68  11
  -3   4  13 3572.84 1296.65  11
  -3   4  12 10658.9 2300.08   2
  -3  -4  12 9670.33 2119.63  12
  -3   4  12 13798.2 2661.48  12
  -3  -4  12 11704.5 2313.03  10
  -3  -4  12 11524.4 2172.04  11
  -3  -4  11 18743.0 2878.25  12
  -3  -4  11 20086.3 2809.27  11
  -3   4  11 19480.9 3134.45  12
  -3  -4  11 19438.4 2860.12  10
  -3   4  11 20600.4 3085.45   2
  -3  -4  10 7401.40 1693.20  12
  -3   4  10 6993.38 1796.32  12
  -3  -4   9 9550.02 1891.72  12
  -3  -4   8 19113.6 2416.63  12
  -3   4   8 17880.0 1788.96  16
  -3  -4   7 1801.22 704.394  12
   3  -4  -7 1868.12 526.838   4
  -3   4   7 1537.72 496.004  16
   3  -4  -6 135.618 269.380   4
  -3   4   6-2.78464 244.671  16
  -3  -4   6 561.002 482.256  12
  -3  -4   6 145.033 256.949  16
  -3  -4   5 70295.9 3373.55  12
  -3  -4   5 69721.3 2657.44  16
  -3   4   5 77954.8 3026.50  16
  -3  -4   5 70667.7 2621.38  18
   3  -4  -5 76347.5 2809.42   4
  -3  -4   4 105.548 251.334  12
  -3   4   4 624.385 329.563  16
   3  -4  -4 316.548 233.496   4
   3   4  -4 130.616 97.9857  14
  -3  -4   4 396.750 196.697  18
  -3  -4   4 119.664 177.409  17
  -3   4   4 98.4258 189.422  17
  -3  -4   4 191.217 233.401  16
   3  -4  -3 1008.27 361.960   4
   3   4  -3 1086.14 222.651  14
  -3   4   3 982.950 335.844  17
  -3   4   3 1287.92 373.305  16
  -3  -4   3 962.878 340.848  16
  -3  -4   3 1012.00 307.008  17
  -3   4   2 259.606 152.127  18
  -3   4   2 100.865 242.697  17
  -3  -4   2 424.121 275.708  16
  -3  -4   2 40.1050 160.581  15
  -3   4   1 2881.28 391.283  18
  -3   4   1 3452.34 535.692  16
   3   4  -1 3419.69 462.372  15
  -3  -4   1 3726.01 514.536  15
  -3   4   0 4588.15 555.363  16
   3   4   0 4014.14 543.213  15
  -3  -4   0 4344.33 592.053  15
   3   4   0 4112.49 644.148   1
  -3  -4  -1 195.117 218.712  16
   3   4   1 366.525 266.818   1
   3   4   1 441.419 260.691  15
  -3  -4  -2 214.375 226.796  16
   3   4   2 24.2827 238.762   1
   3   4   2 201.984 228.198  15
   3   4   3 3598.44 587.164  12
   3   4   3 3301.84 298.726  20
  -3  -4  -3 3878.96 612.473  15
   3  -4   3 3064.77 380.108  20
   3  -4   3 3855.22 413.537  19
  -3   4  -3 3978.59 583.244  14
   3  -4   3 2942.98 720.447  12
   3  -4   4 6692.14 1116.37  12
  -3   4  -4 5629.54 692.127  14
  -3  -4  -4 6170.33 803.626  15
   3  -4   4 6101.33 562.135  20
   3   4   4 5270.34 836.133  12
   3   4   5 68887.6 3245.95  12
   3  -4   5 72205.4 2001.98  20
   3   4   5 68219.1 2701.95  14
  -3   4  -5 70787.0 2407.00  14
   3  -4   5 73440.9 3870.55  12
   3   4   6 5568.84 1056.83  12
   3  -4   6 4798.63 1174.40  12
   3   4   7 19127.5 2177.20  12
   3  -4   7 18258.6 2280.44  12
   3  -4   8 5359.68 1481.18  12
   3   4   8 6405.76 1431.30  12
   3   4   9 49485.2 4148.21  12
   3  -4   9 47378.0 4252.92  12
   3  -4  10 663.776 617.564  12
   3   4  10 1.72283 732.270  12
   3  -4  11 2447.83 1378.36  12
   3   4  11 3603.02 1377.52   2
   3   4  11 2972.72 736.890  24
   3   4  11 4149.00 1606.76  12
   3  -4  11 3973.99 1241.31  10
   3  -4  11 1845.34 497.238  22
   3  -4  11 2829.46 711.485  24
   3   4  12 1184.16 918.766   2
   3  -4  12 2597.83 1297.54  12
   3  -4  12-683.637 602.401  22
   3   4  12 400.396 351.472  24
   3  -4  12 163.872 705.501  10
   3   4  12 1388.27 1019.87  12
   3  -4  12 196.344 410.038  24
   3   4  13 7384.17 1084.69  24
   3  -4  13 9615.20 1072.73  22
   3  -4  13 8785.03 1871.27  10
   3   4  14 123.764 277.706  24
   3  -4  14 1031.22 496.177  22
   3   4  14-172.837 387.395  22
   3  -4  14 1388.79 847.178  10
   3   4  15 0.96799 246.552  24
   3  -4  15 368.861 479.676  10
   3   4  15 22.0392 363.312  10
   3   4  16-697.872 504.206  10
  -3  -5  16 326.986 356.374  11
  -3   5  16 936.645 519.384  11
  -3  -5  16 422.770 465.968  10
  -3   5  16 26.8214 283.158  10
  -3  -5  15-1145.49 657.376  11
  -3   5  15 238.419 455.028  11
  -3  -5  15 970.549 730.999  10
  -3   5  14-71.1953 435.738  11
  -3  -5  14 632.186 665.315  10
  -3  -5  14 632.055 661.171  11
  -3  -5  13-653.300 640.845  11
  -3  -5  13 518.454 726.932  10
  -3   5  13-810.534 727.656   2
  -3   5  13-11.8903 411.925  11
  -3   5  12 1007.87 819.586   2
  -3  -5  12 1375.51 912.562  10
  -3  -5  12 1182.66 802.956  11
  -3  -5  11-1372.79 904.522  12
  -3  -5  11 708.857 786.912  11
  -3   5  11 467.546 876.421  12
  -3  -5  11-1243.10 853.529  10
  -3   5  11 216.943 586.520   2
  -3   5  10 1079.94 625.431  12
  -3  -5  10 1641.77 863.668  12
  -3  -5   9-177.383 629.551  12
  -3  -5   8 2601.73 881.322  12
  -3   5   8 2536.63 715.143  16
   3  -5  -7 258.793 375.557   4
  -3  -5   7 658.893 646.779  12
  -3   5   7-90.4837 266.399  16
   3  -5  -6 879.315 450.267   4
  -3  -5   6 1568.54 547.882  12
  -3   5   6 685.445 343.534  16
   3  -5  -5 53283.6 2475.60   4
  -3  -5   5 48370.4 2740.01  12
  -3   5   5 52867.3 2575.69  16
  -3  -5   5 48947.7 2139.24  18
  -3  -5   5 49282.2 2257.72  16
  -3  -5   4 9351.71 1067.98  12
  -3  -5   4 9448.34 839.116  17
  -3  -5   4 9067.50 865.010  18
  -3  -5   4 9839.94 1010.83  16
  -3   5   4 9541.99 947.928  17
  -3   5   4 9961.52 1067.00  16
   3  -5  -4 9164.35 962.412   4
   3  -5  -3 4621.44 656.260   4
  -3  -5   3 4366.04 619.345  17
  -3   5   3 5747.63 739.327  17
  -3   5   3 5424.08 760.564  16
  -3  -5   3 5310.91 716.192  16
  -3   5   2 37833.6 1859.31  17
  -3  -5   2 36363.4 1825.00  16
  -3  -5   2 37850.4 1779.35  17
   3   5  -2 35138.8 1441.92  15
  -3   5   1 40891.0 1386.98  18
  -3   5   1 43887.1 1993.53  17
   3   5  -1 40614.3 1615.86  15
   3   5   0 138081. 3655.66   1
  -3   5   0 129189. 2170.88  18
  -3  -5   0 139022. 3214.30  15
   3   5   1 4559.76 619.432  15
  -3  -5  -1 5109.81 708.227  16
   3   5   1 4538.98 685.543   1
   3  -5   2 4224.01 419.718  20
   3  -5   2 4095.01 844.289  12
   3   5   2 3341.46 623.649   1
  -3  -5  -2 3937.07 614.157  15
   3   5   2 3519.65 570.824  15
   3  -5   2 3907.69 417.996  19
   3  -5   3 1160.25 256.368  20
   3  -5   3 324.503 185.740  19
   3   5   3 255.093 254.846  12
   3  -5   3 540.041 356.693  12
   3   5   3 181.761 220.428  15
  -3  -5  -3 776.469 289.707  15
   3   5   4 1525.93 489.862  12
   3  -5   4 1391.86 593.458  12
  -3   5  -4 1660.15 424.064  14
   3  -5   4 2344.28 402.968  20
   3   5   4 1624.54 474.203  15
   3  -5   4 3099.44 429.017  19
   3  -5   5 458.256 505.113  12
   3   5   5 140.132 353.533  12
   3  -5   5 287.644 205.106  20
  -3   5  -5 497.504 201.484  14
   3  -5   6 2092.77 880.877  12
   3   5   6 2979.45 852.881  12
   3   5   7 2139.02 849.773  12
   3  -5   7 2309.61 971.317  12
   3  -5   8 2942.48 1112.55  12
   3   5   8 3900.61 1204.19  12
   3  -5   9-345.007 684.201  12
   3   5   9 232.755 497.275  12
  -3  -5  -9 248.518 320.688   4
   3   5  10-1310.15 868.498  12
   3  -5  10 479.691 648.882  12
   3  -5  11 607.578 471.519  24
   3   5  11 1013.02 487.141  24
   3   5  11 1343.38 936.340  12
   3   5  11-4.10197 567.259   2
   3  -5  11 1067.93 738.683  10
   3  -5  11 209.271 363.258  22
   3  -5  11 1307.65 721.885  12
   3   5  12 1777.12 1071.41  12
   3   5  12 1676.66 600.892  24
   3  -5  12 728.383 655.416  10
   3  -5  12 1061.63 443.135  22
   3   5  12 1319.49 960.883   2
   3  -5  13 10211.2 1991.88  10
   3  -5  13 10189.8 1106.80  22
   3   5  13 9734.74 1227.04  24
   3  -5  14 865.891 565.411  22
   3   5  14-253.032 372.065  22
   3  -5  14 119.405 450.911  10
   3   5  14 189.699 325.447  24
   3  -5  15 592.726 518.553  10
   3   5  15-18.8298 265.320  24
   3   5  16 6198.63 748.438  24
   3   5  16 4028.23 939.494  10
  -3  -6  16 188.424 464.955  10
  -3   6  16-42.3741 304.145  10
  -3   6  16-512.370 455.870  11
  -3  -6  15 500.569 477.788  11
  -3  -6  15 2047.33 897.999  10
  -3   6  15 1207.75 746.856  11
  -3  -6  14 493.227 461.393  11
  -3  -6  14 916.038 707.419  10
  -3   6  14 632.055 564.219  11
  -3   6  13-120.212 585.498   2
  -3  -6  13-880.266 710.961  11
  -3   6  13 633.091 693.415  11
  -3  -6  13-127.123 718.400  10
  -3   6  12 15627.3 2760.28   2
  -3  -6  12 16916.3 2649.20  11
  -3  -6  12 14902.5 2595.55  10
  -3   6  11 5319.21 1658.10   2
  -3   6  11 2333.39 1207.72  12
  -3  -6  11 2129.16 921.204  11
  -3  -6  11 4511.80 1454.84  10
  -3  -6  11 3693.83 1305.29  12
  -3   6  10 50532.5 4582.44   2
  -3  -6  10 54231.7 4444.08  11
  -3  -6  10 49307.2 4443.21  12
  -3  -6  10 50993.8 4391.03  10
  -3  -6   9 4518.42 1243.16  12
   3  -6  -8 1800.36 635.822   4
  -3  -6   8 1343.20 689.512  12
  -3   6   8 2295.90 727.613  16
  -3  -6   7 8703.25 1443.84  12
  -3   6   7 10892.4 1373.87  16
   3  -6  -7 8744.33 1190.16   4
  -3   6   6 67.8986 381.541  16
  -3  -6   6 123.340 357.388  12
   3  -6  -6 102.702 293.860   4
  -3  -6   5 682.663 364.028  12
  -3   6   5 749.939 381.174  16
  -3  -6   5 1375.69 487.065  16
   3  -6  -5 1126.54 459.675   4
  -3  -6   4 13281.2 1210.18  16
   3  -6  -4 12499.5 1215.60   4
  -3   6   4 11851.5 1193.64  17
  -3  -6   4 12283.5 999.943  18
  -3   6   4 15465.2 1397.29  16
  -3  -6   4 10988.2 1185.05  12
  -3   6   3 4871.90 756.424  17
  -3  -6   3 5091.77 740.332  17
  -3  -6   3 5393.35 781.650  16
   3  -6  -3 5600.79 785.883   4
   3   6  -3 5561.08 608.051  15
  -3   6   2 186.220 214.303  17
   3   6  -2 67.1469 168.117  15
  -3  -6   2 428.202 302.252  17
  -3  -6   2 140.238 242.666  16
   3   6  -1 4673.15 794.695   1
  -3   6   1 4722.68 740.914  17
  -3  -6   1 3230.85 586.487  16
  -3  -6   1 3643.67 655.017  17
   3   6  -1 3306.39 527.591  15
  -3   6   0 21060.6 1244.95   1
   3   6   0 21948.2 1606.18   1
  -3  -6   0 22559.5 1512.64  16
  -3   6   0 21876.5 1577.96  17
  -3   6   0 21920.6 914.566  18
   3   6   0 21665.6 1341.68  15
  -3   6  -1 2219.59 414.055   1
   3   6   1 3280.36 678.400   1
  -3  -6  -1 3114.78 591.439  16
  -3   6  -1 2585.26 273.721  18
  -3   6  -1 3418.88 674.115  17
   3   6   1 2880.76 527.238  15
   3  -6   2 9325.41 624.806  20
  -3   6  -2 7144.23 729.427   1
  -3   6  -2 10470.8 1122.88  17
   3  -6   2 9580.79 702.222  19
   3   6   2 8868.17 954.330  15
   3   6   2 7722.75 982.273   1
   3  -6   2 10431.5 1359.89  12
  -3   6  -3 25179.6 1488.95   1
   3  -6   3 27220.4 1218.74  19
   3   6   3 27990.1 1761.35  15
  -3   6  -3 27565.3 1830.45  17
   3  -6   3 27226.6 1107.31  20
   3  -6   3 30814.9 2379.74  12
   3   6   4 9200.70 1093.46  12
   3  -6   4 7486.13 1272.61  12
   3  -6   4 9032.84 761.343  19
  -3   6  -4 8331.00 1046.70  17
   3  -6   4 10083.2 735.400  20
   3  -6   5 5983.25 1287.67  12
   3   6   5 5385.43 966.599  12
   3  -6   5 5770.38 617.761  20
   3   6   6 23692.8 2198.69  12
   3  -6   6 24236.1 2593.56  12
   3  -6   7 19.5726 569.306  12
   3   6   7-183.090 525.573  12
   3   6   8 35036.7 3235.50  12
   3  -6   8 32749.1 3514.41  12
   3  -6   9 157.252 609.204  12
   3   6   9-152.732 783.318  12
  -3  -6  -9 39.1937 401.549   4
   3   6  10 2370.87 1106.90  12
   3   6  10 238.244 265.246  24
   3  -6  10 1195.28 406.963  22
  -3  -6 -10 1191.44 566.056   4
   3   6  10 1648.07 999.170   2
   3  -6  11 3168.49 682.805  12
   3   6  11 1906.54 1016.51  12
   3   6  11 3706.84 1481.52   2
   3   6  11 2011.77 808.002   7
   3  -6  11 2798.94 1038.74  10
   3  -6  11 3461.40 662.856  22
   3   6  11 2191.91 689.214  24
   3  -6  12 48.6907 428.819  22
   3  -6  12 1305.77 845.631  10
   3   6  12-560.692 697.354   2
   3   6  12 199.708 342.851  24
   3   6  13 496.187 323.042  24
   3  -6  13 1134.84 512.553  22
   3  -6  13 350.504 564.117  10
   3  -6  14 1017.27 697.729  10
   3   6  14 49.9063 287.211  24
   3   6  15-353.167 484.006  10
   3  -6  15-87.8961 453.020  10
   3   6  15-24.5149 246.875  24
   3   6  16 327.154 293.979  24
   3   6  16 490.939 425.070  10
  -3   7  16-97.5662 348.588  10
  -3   7  16-940.067 510.738  11
  -3  -7  16-464.018 414.070  10
  -3  -7  15 150.436 503.993  11
  -3  -7  15 747.049 527.349  10
  -3   7  15 651.241 578.368  11
  -3   7  14 554.220 784.093   2
  -3   7  14 1381.26 833.480  11
  -3  -7  14 1583.23 923.558  10
  -3  -7  14 2770.52 1002.87  11
  -3  -7  13 531.803 569.468  11
  -3   7  13-91.1930 556.732   2
  -3  -7  13-523.762 728.897  10
  -3  -7  12 1552.23 794.126  11
  -3  -7  12 1672.20 1035.28  10
  -3   7  12 2483.08 1155.06   2
  -3   7  11 1152.70 824.653  12
  -3  -7  11 516.811 453.522  11
  -3   7  11-437.761 654.570   2
  -3  -7  11 1748.40 987.008  10
  -3   7  10 1721.69 1024.94   2
  -3  -7  10 4073.23 1318.86  11
  -3  -7  10 5456.10 1537.01  10
  -3   7   9 4075.09 954.038  16
   3  -7  -8 83.0983 321.623   4
  -3  -7   8 724.575 416.026  12
  -3   7   8-48.5040 464.376  16
  -3  -7   7 12678.3 1786.17  12
  -3   7   7 14714.8 1699.84  16
   3  -7  -7 18820.5 1817.42   4
   3  -7  -6 621.183 439.302   4
  -3   7   6 580.967 369.948  16
  -3   7   5 60615.7 3078.36  16
  -3  -7   5 58781.3 2705.50  16
   3  -7  -5 60080.1 2834.12   4
   3  -7  -4 5717.46 899.862   4
  -3   7   4 6975.77 948.380  17
  -3  -7   4 6753.35 923.622  16
  -3   7   3 81050.8 3132.03  17
  -3  -7   3 78374.8 3067.27  17
   3   7  -3 83788.3 2531.28  15
   3  -7  -3 81260.9 2980.08   4
  -3  -7   3 87703.9 3145.64  16
  -3  -7   2 3731.05 689.906  17
  -3  -7   2 4088.25 713.625  16
  -3   7   2 5048.91 810.726  17
   3   7  -2 3979.17 589.598  15
   3   7  -1 14309.7 1400.96   1
   3   7  -1 12182.5 1067.47  15
  -3  -7   1 12883.0 1208.83  16
  -3   7   1 13072.9 1280.21  17
  -3  -7   1 13120.7 1247.56  17
   3   7   0 1031.18 342.282  15
  -3  -7   0 1055.45 438.600  16
  -3   7   0 1388.41 480.432  17
  -3  -7   0 864.464 299.985  17
  -3   7   0 747.982 276.143   1
   3   7   0 1153.26 437.355   1
   3   7   1 73023.2 3063.66   1
   3   7   1 69680.5 2639.80  15
  -3   7  -1 63706.5 2374.73   1
  -3   7  -1 79068.7 3202.21  17
   3  -7   1 71637.4 1619.81  20
   3  -7   2 35.0763 139.754  20
   3   7   2 313.036 342.095   1
  -3   7  -2-91.2377 250.213   1
  -3   7  -2-217.310 320.232  17
   3   7   2 181.791 225.009  15
  -3   7  -3 18338.7 1366.11   1
   3  -7   3 21986.1 1126.54  19
   3   7   3 20597.0 1731.71   1
  -3   7  -3 20072.7 1644.37  17
   3  -7   3 20249.2 978.945  20
   3  -7   3 20538.6 2163.35  12
   3  -7   4 575.578 539.129  12
   3  -7   4 2.92241 189.196  20
   3  -7   4 105.494 189.728  19
  -3   7  -4-88.6154 428.845  17
   3  -7   5 850.621 469.677  12
   3   7   5 668.950 453.177  12
   3  -7   5 596.849 258.974  20
   3  -7   6 2012.89 881.983  12
   3   7   6 1813.91 720.381  12
   3  -7   7 572.626 605.232  12
   3   7   7 1719.63 820.846  12
   3  -7   8-33.1706 687.838  12
   3   7   8 836.779 626.953  12
  -3  -7  -8 433.902 370.581   4
   3  -7   9 1495.62 720.790  12
   3   7   9 2504.90 1020.55  12
  -3  -7  -9 574.936 396.068   4
   3  -7  10-1068.61 1350.11  12
   3   7  10 1748.23 969.938  12
   3   7  10-578.951 392.253  24
   3   7  10-1120.88 872.789   2
   3  -7  10 2685.41 1043.20  10
   3  -7  10 31.7121 354.601  22
  -3  -7 -10-101.771 457.106   4
   3   7  10-189.341 473.480   7
   3  -7  11 3297.42 1407.83  12
   3   7  11 1962.96 812.744   7
   3   7  11 2107.31 628.104  24
   3  -7  11 1868.04 586.274  22
   3   7  11 3128.85 1342.23   2
   3  -7  11 3376.25 1188.03  10
   3   7  12 1678.97 757.162   7
   3  -7  12 3284.17 712.967  22
   3   7  12 1894.64 611.836  24
   3  -7  12 612.810 664.533  10
   3   7  12 2115.15 1145.73   2
   3   7  13 6377.66 998.892  24
   3  -7  13 7202.63 1666.53  10
   3   7  13 4364.39 1599.56   2
   3  -7  14 6967.74 1626.12  10
   3   7  14 8968.08 1093.27  24
   3   7  15 10368.2 1059.72  24
   3  -7  15 8648.97 1559.31  10
   3   7  16 840.655 302.197  24
  -3   8  16 142.525 354.491  11
  -3   8  16-706.774 448.248  10
  -3  -8  16-191.307 349.401  10
  -3   8  15 4745.32 1203.91  11
  -3  -8  15 3265.20 1062.49  10
  -3   8  14 1488.83 961.609   2
  -3  -8  14-20.9957 388.788  11
  -3   8  14 633.138 619.921  11
  -3  -8  14 716.299 680.696  10
  -3   8  13 124.398 507.725   2
  -3  -8  13 239.073 489.908  11
  -3  -8  13 896.045 629.902  10
  -3  -8  12 1260.35 804.945  11
  -3   8  12 1906.67 1053.95   2
  -3  -8  12 1467.42 898.207  10
  -3   8  11 1491.98 1023.65  12
  -3  -8  11 1252.88 805.986  11
  -3  -8  11-5.38967 583.868  10
  -3   8  11 1457.44 1112.58   2
  -3  -8  10 2541.21 1057.30  11
  -3  -8  10 2034.01 983.597  10
  -3   8  10 1629.47 1029.09   2
  -3   8   9 54631.0 3587.64  16
   3  -8  -8 298.793 312.178   4
  -3   8   8-414.882 454.111  16
  -3   8   7 20666.1 2093.43  16
   3  -8  -7 24298.3 2143.64   4
   3  -8  -6 4651.33 917.415   4
  -3   8   6 6109.76 1123.59  16
   3  -8  -5 7097.86 1135.50   4
  -3   8   5 8550.88 1236.55  16
  -3  -8   5 6948.08 994.176  16
   3  -8  -4 61.6797 315.942   4
  -3  -8   4 348.900 352.587  16
   3  -8  -3-275.882 366.995   4
  -3  -8   3 101.414 246.926  16
   3   8  -3-26.7320 194.865  15
   3   8  -2 10329.0 1372.68   1
   3   8  -2 11396.2 1089.68  15
  -3  -8   2 11482.4 1257.56  16
   3   8  -1 551.936 307.547  15
   3   8  -1 371.577 455.876   1
  -3  -8   1 357.177 369.585  16
  -3   8   0 230.318 239.521   1
   3   8   0 396.589 377.848   1
   3   8   0-16.6857 198.951  15
   3  -8   1 26110.9 1009.09  20
   3   8   1 26470.0 1941.19   1
  -3   8  -1 22613.5 1525.47   1
   3  -8   2 1152.01 261.482  20
  -3   8  -2 1102.41 423.381   1
   3   8   2 1720.90 537.407   1
   3   8   3 3956.65 824.391   1
  -3   8  -3 4011.42 705.592   1
   3  -8   3 4597.84 596.687  19
   3  -8   3 4870.38 514.740  20
   3  -8   4 19624.3 1198.33  19
   3  -8   4 18529.1 1037.28  20
   3  -8   4 17977.4 2146.61  12
   3  -8   5 26529.7 1318.78  20
   3  -8   5 28073.5 1485.99  19
   3  -8   5 29302.4 2834.81  12
   3  -8   6-483.648 652.634  12
   3  -8   7 12649.8 2145.81  12
  -3  -8  -7 15764.7 1771.22   4
   3  -8   8 55048.5 4728.91  12
  -3  -8  -8 52515.6 3396.33   4
  -3  -8  -9 27121.1 2554.67   4
   3  -8   9 27271.4 3492.13  12
   3  -8  10-493.318 594.629  10
   3  -8  10 518.847 863.568  12
  -3  -8 -10-202.290 602.454   4
   3   8  10 1135.40 666.315   7
   3  -8  10-114.066 448.852  22
   3   8  10-2.09606 453.003   2
   3   8  10-229.971 324.645  24
   3  -8  11 13423.2 2747.16  12
   3   8  11 15178.7 2152.36   7
   3  -8  11 12716.8 2286.74  10
   3   8  11 15707.6 1598.18  24
   3  -8  11 17238.0 1462.94  22
   3   8  11 12115.1 2564.94   2
   3   8  12 1982.39 1217.16   2
   3  -8  12 55.6367 451.593  10
   3   8  12 1584.59 642.105   7
   3   8  12 1384.45 509.537  24
   3   8  13 8631.63 2204.94   2
   3   8  13 6551.51 1354.33   7
   3   8  13 7392.98 1109.33  24
   3  -8  13 6953.00 1676.27  10
   3   8  14-57.0116 259.582  24
   3  -8  14-249.882 418.699  10
   3  -8  15-875.779 542.514  10
   3   8  15 434.909 319.080  24
  -3  -9  16 320.691 377.251  10
  -3   9  16 215.288 307.847  11
  -3   9  16 21.1313 272.444  10
  -3   9  15 335.120 329.439  11
  -3  -9  15 108.106 399.152  10
  -3   9  14 876.866 621.169   2
  -3  -9  14 140.336 535.187  11
  -3   9  14 167.278 419.662  11
  -3  -9  14-887.820 699.307  10
  -3  -9  13-249.770 476.079  11
  -3   9  13-42.7116 437.669   2
  -3  -9  13 1078.73 725.711  10
  -3  -9  12-1357.45 847.004  11
  -3  -9  12-1236.04 835.276  10
  -3   9  12-13.9808 838.015   2
  -3  -9  11-824.077 716.698  11
  -3   9  11-698.556 765.296   2
  -3  -9  11-776.919 707.316  10
  -3  -9  10 293.953 547.691  11
  -3  -9  10 618.694 498.223  10
  -3   9  10 214.508 523.397   2
  -3  -9   9 2489.57 1010.36  11
  -3  -9   9 1447.54 743.367  10
  -3   9   9 1500.87 669.544  16
   3  -9  -8 33.0592 367.437   4
  -3   9   8-1065.19 574.640  16
   3  -9  -7 25650.0 2268.84   4
  -3   9   7 23058.6 2272.16  16
   3  -9  -6 5151.32 1033.64   4
  -3   9   6 5429.33 1085.74  16
  -3  -9   5 28451.3 2110.77  16
  -3   9   5 30992.8 2434.63  16
   3  -9  -5 29448.9 2212.93   4
  -3  -9   4 9495.53 1219.64  16
   3  -9  -4 10529.8 1239.90   4
   3   9  -3 85236.2 4118.24   1
  -3  -9   3 83189.8 3492.08  16
   3  -9  -3 81510.9 3304.98   4
  -3  -9   2 182828. 5094.65  16
   3   9  -2 182891. 5743.49   1
  -3  -9   1-41.3841 209.510   4
   3   9  -1 215.912 361.403   1
  -3   9   0 4810.76 794.812   1
   3   9   0 4805.60 918.936   1
   3  -9   1 185443. 2719.93  20
   3   9   1 191270. 5557.21   1
  -3   9  -1 181409. 4567.97   1
  -3   9  -2 17604.2 1493.45   1
   3  -9   2 15735.3 851.261  20
   3   9   2 16910.6 1690.49   1
   3   9   3 22.5345 325.820   1
  -3   9  -3 1055.30 468.898   1
   3  -9   3 240.799 237.834  19
   3  -9   3 668.958 231.842  20
   3  -9   4 7785.73 1549.01  12
   3  -9   4 7481.58 676.625  20
   3  -9   4 8972.09 885.616  19
   3  -9   5 9491.16 1740.15  12
   3  -9   5 8978.58 898.814  19
   3  -9   6 7250.13 1622.16  12
  -3  -9  -6 5302.96 1088.58   4
  -3  -9  -7 568.032 456.803   4
   3  -9   7-638.236 653.848  12
   3  -9   8 3079.15 1268.72  12
  -3  -9  -8 3458.46 875.453   4
   3  -9   9 1575.80 939.527  12
  -3  -9  -9 1520.01 659.869   4
   3   9   9 4185.68 1198.76   3
   3   9   9 2616.61 1211.34   2
   3  -9   9 2769.18 661.386  22
   3   9   9 1925.99 914.891   9
   3  -9  10 823.976 542.742  22
   3  -9  10-268.006 665.636  12
   3   9  10-486.037 539.334   7
   3  -9  10-694.293 674.071  10
  -3  -9 -10-170.034 526.799   4
   3   9  10 112.388 305.385  24
   3   9  10 536.495 648.324   9
   3   9  10-54.1456 471.813   2
   3   9  11 1125.68 1055.17   2
   3   9  11 731.517 643.504   7
   3   9  11 1604.76 588.524  24
   3  -9  11 1760.26 920.702  10
   3  -9  12 565.336 466.451  10
   3   9  12-54.1801 393.359   7
   3   9  12 916.882 525.123  24
   3   9  12 139.903 862.618   2
   3   9  13 10146.0 2282.54   2
   3   9  13 10599.2 1659.00   7
   3  -9  13 9164.63 1856.94  10
   3   9  13 12178.6 1377.35  24
   3  -9  14-1065.41 624.082  10
   3   9  14 241.758 266.658  24
   3   9  15 1943.43 467.376  24
   3  -9  15 2503.82 821.646  10
  -3 -10  15 797.334 514.830  10
  -3  10  15-38.3430 371.152  11
  -3  10  14 1260.90 764.956   2
  -3 -10  14 515.794 513.418  11
  -3 -10  14-36.1504 449.863  10
  -3  10  14-149.154 463.637  11
  -3 -10  13 34.1663 392.987  11
  -3  10  13 5.44148 516.300   2
  -3 -10  13 300.747 752.409  10
  -3  10  12 23126.0 3341.36   2
  -3 -10  12 15603.1 2459.35  11
  -3 -10  12 18603.6 2866.57  10
  -3 -10  11 4139.12 1313.35  11
  -3  10  11 2297.92 1148.12   2
  -3 -10  11 3174.11 1125.94  10
  -3 -10  10 3899.62 1273.37  11
  -3 -10  10 2652.71 1122.18  10
  -3  10  10 3774.88 1494.24   2
   3 -10  -9 1133.21 506.529  21
  -3  10   9-275.775 401.065  16
  -3 -10   9 406.947 679.270  10
  -3  10   8 88.1989 340.895  16
   3 -10  -7 9784.18 1476.60   4
  -3  10   7 9701.13 1583.00  16
   3 -10  -6 4802.70 1005.25   4
  -3  10   6 4278.54 1016.72  16
   3 -10  -5 2928.56 827.461   4
  -3  10   5 2254.06 741.905  16
   3 -10  -4 19.1920 312.437   4
  -3 -10   4 181.703 342.412  16
   3  10  -4 16.9221 482.631   1
   3 -10  -3 8.57494 379.935   4
   3  10  -3-216.958 407.426   1
   3  10  -2-79.0628 415.303   1
   3  10  -1 2160.16 694.837   1
  -3  10   0 15012.3 1463.70   1
   3  10   0 16769.3 1780.06   1
  -3 -10   0 15246.2 1308.27   4
  -3  10  -1 57364.5 2775.68   1
   3  10   1 60096.1 3360.20   1
  -3 -10  -1 53920.7 2597.62   4
  -3  10  -2 3557.85 751.898   1
   3  10   2 2690.94 751.735   1
   3  10   3-163.425 476.215   1
   3 -10   3 593.003 354.406  19
   3 -10   3 246.181 163.404  20
  -3  10  -3 235.930 369.148   1
   3 -10   4 10328.9 1843.70  12
   3 -10   4 7382.70 664.286  20
   3 -10   4 8393.89 889.123  19
  -3 -10  -4 7021.38 1142.01   4
   3 -10   5 8876.35 1767.49  12
  -3 -10  -5 6705.72 1203.20   4
   3 -10   5 6706.94 811.685  19
   3 -10   6 10212.7 1939.01  12
  -3 -10  -6 5889.52 1160.92   4
  -3 -10  -7 1195.72 505.309   4
   3 -10   7-150.048 785.528  12
   3 -10   8 51041.9 4697.29  12
  -3 -10  -8 48416.6 3502.60   4
  -3 -10  -9 3566.34 1012.39   4
   3  10   9 2249.48 782.701   3
   3 -10   9 2828.64 1080.12  10
   3  10   9 4937.25 1598.95   2
   3  10   9 1621.34 972.482   9
   3 -10   9 1553.99 898.283  12
   3  10   9 3633.07 1122.84   7
   3 -10  10 918.933 900.571  12
   3  10  10 585.496 688.518   9
  -3 -10 -10 69.7888 569.609   4
   3  10  10 555.770 570.349   7
   3  10  10 680.176 1076.43   2
   3 -10  10 102.972 546.074  10
   3  10  10 701.620 449.356  24
   3  10  11 1992.97 778.636   7
   3 -10  11-519.198 627.759  10
   3  10  11 1155.09 537.200  24
   3  10  11 2224.57 1217.25   2
   3  10  12 1054.92 694.435   7
   3  10  12 1989.22 1108.45   2
   3  10  12 1375.00 523.608  24
   3 -10  12 84.0755 499.651  10
   3  10  13 3081.63 1346.65   2
   3  10  13 2434.70 824.870   7
   3  10  13 2634.03 643.075  24
   3 -10  13 1563.50 795.470  10
   3 -10  14 2725.81 941.019  10
   3  10  14 1370.68 472.075  24
   3  10  15-574.005 308.529  24
  -3 -11  15 147.315 311.141  10
  -3  11  15 166.396 366.708  11
  -3  11  14-99.9960 514.355  11
  -3  11  14-206.840 382.938   2
  -3 -11  14-413.138 630.141  10
  -3 -11  13 333.494 491.442  11
  -3  11  13-26.2378 425.771   2
  -3 -11  13 102.431 512.954  10
  -3 -11  12 76.8833 617.633  10
  -3  11  12 951.836 874.825   2
  -3 -11  12 849.277 685.154  11
  -3 -11  11 1433.20 839.438  11
  -3  11  11-851.838 769.408   2
  -3 -11  11 218.903 558.577  10
  -3 -11  10-263.826 558.454  11
  -3 -11  10-1428.72 898.503  10
  -3  11  10-148.554 519.203   2
  -3 -11   9-72.4343 480.295  11
  -3  11   9 360.051 779.802  16
  -3 -11   9 18.7892 613.922  10
   3 -11  -9 1056.10 458.258  21
  -3 -11   8 475.664 575.121  11
  -3  11   8-132.873 601.538   3
  -3 -11   8-754.688 677.818  10
  -3  11   8-209.191 428.444  16
   3 -11  -7 1912.87 772.750   4
  -3  11   7 759.151 557.594  16
   3 -11  -6 917.342 555.427   4
  -3  11   6 1617.89 773.285  16
   3 -11  -5 82.6036 340.633   4
   3  11  -5 98.9090 459.763   1
   3 -11  -4 3600.77 805.192   4
   3  11  -4 2656.57 836.172   1
   3  11  -3 82.7886 422.962   1
   3  11  -2 68441.2 3911.53   1
   3  11  -1 6410.61 1207.20   1
  -3 -11   0 91404.0 3363.53   4
  -3  11   0 101374. 4020.59   1
   3  11   0 103340. 4548.40   1
  -3 -11  -1 4688.46 847.831   4
  -3  11  -1 4650.98 860.617   1
   3  11   1 6194.67 1160.89   1
  -3 -11  -2 3093.33 752.091   4
   3  11   2 3054.52 877.069   1
  -3  11  -2 2877.39 748.765   1
   3 -11   3 11211.8 1046.81  19
  -3 -11  -3 9431.47 1280.52   4
   3  11   3 11218.2 1648.53   1
   3 -11   4 1152.77 422.658  19
  -3 -11  -4 595.072 380.058   4
  -3 -11  -5 743.701 500.076   4
   3 -11   5 98.3552 243.807  19
   3 -11   6 4858.15 1480.85  12
  -3 -11  -6 5157.02 1156.68   4
  -3 -11  -7 161.838 402.748   4
   3 -11   7-25.6970 736.486  12
   3 -11   8 448.183 738.978  12
  -3 -11  -8-414.918 506.725   4
   3  11   8-591.946 661.312   9
   3  11   8 398.859 740.080   3
   3 -11   9-879.452 858.029  12
  -3 -11  -9 492.639 464.739   4
   3 -11   9-501.215 605.555  10
   3  11   9 1122.51 752.899   9
   3  11   9 626.596 883.219   2
   3  11   9 1005.92 588.094   3
   3  11   9 468.743 461.001   7
  -3 -11 -10 371.931 489.755   4
   3  11  10 1287.52 676.272   3
   3  11  10 360.042 392.995   7
   3 -11  10 76.6180 674.506  12
   3  11  10-64.8743 384.058  24
   3 -11  10-1519.48 876.683  10
   3  11  10 715.904 622.702   9
   3  11  10-166.958 595.677   2
   3  11  11-127.626 506.073   7
   3  11  11-1380.59 535.418  24
   3  11  11-796.947 771.317   2
   3 -11  11 532.400 634.416  10
   3  11  12-139.549 416.371   7
   3  11  12-17.1211 1001.01   2
   3  11  12-258.210 422.805  24
   3 -11  12-425.222 601.566  10
   3  11  13 759.961 961.428   2
   3  11  13-661.787 512.557   7
   3  11  13-58.8506 270.980  24
   3 -11  13 847.007 645.793  10
   3  11  14 227.069 281.628  24
   3 -11  14 78.3370 405.878  10
   3  11  15-173.518 193.963  24
  -3  12  15-479.801 388.323  11
  -3 -12  15 442.293 466.481  10
  -3  12  14-165.719 400.195   2
  -3 -12  14 720.686 568.780  10
  -3  12  14-209.862 303.789  11
  -3 -12  13 1168.31 753.656  10
  -3  12  13 1041.80 813.309   2
  -3 -12  12 720.909 624.293  11
  -3 -12  12 600.292 630.000  10
  -3  12  12 460.479 620.251   2
  -3  12  11 1172.89 842.520   2
  -3 -12  11 1014.25 771.846  10
  -3 -12  11 794.814 675.083  11
  -3 -12  10 10435.4 2170.87  10
  -3  12  10 17046.1 2930.00   2
  -3 -12  10 11752.8 2182.33  11
   3  12  -9 26632.5 3312.30   1
  -3 -12   9 21791.3 2873.69  11
  -3  12   9 22867.3 2606.39  16
   3 -12  -9 21961.9 1886.52  21
  -3 -12   9 21168.8 2955.39  10
   3  12  -8 5385.68 1509.09   1
  -3  12   8 3283.44 1023.31  16
  -3 -12   8 4764.06 1294.21  11
  -3  12   8 4735.99 1347.79   3
   3 -12  -8 4585.13 813.355  21
  -3 -12   8 3027.37 1188.76  10
   3  12  -7 687.344 802.070   1
  -3  12   7 494.382 612.005  16
   3  12  -6-866.226 762.590   1
  -3  12   6-270.340 414.775  16
   3  12  -5 4385.51 1346.66   1
   3  12  -4 766.317 591.701   1
   3  12  -3 689.512 595.350   1
   3  12  -2 1341.32 701.514   1
   3  12  -1 9113.22 1447.54   1
   3  12   0 1863.29 729.720   1
  -3 -12   0 1361.76 538.298   4
  -3  12   0 2377.87 732.651   1
  -3  12  -1 4659.61 974.495   1
   3  12   1 4433.01 1108.89   1
  -3 -12  -1 3255.06 733.586   4
  -3 -12  -2 1013.26 546.358   4
   3  12   2 49.8521 516.349   1
  -3  12  -2 804.564 506.909   1
   3 -12   3 6278.10 861.939  19
   3  12   3 6025.90 1315.24   1
  -3 -12  -3 5383.81 1007.41   4
  -3 -12  -4 331.580 529.886   4
   3 -12   4 806.268 407.462  19
   3 -12   5 18779.1 1464.86  19
  -3 -12  -5 20387.0 2184.62   4
  -3 -12  -6-148.791 465.474   4
   3 -12   7 901.857 875.118  12
  -3 -12  -7 152.067 409.476   4
   3 -12   8 13860.4 2556.61  12
   3  12   8 14600.6 2385.81   3
   3  12   8 14439.7 2195.11   7
   3  12   8 14676.0 2573.06   9
   3 -12   8 14553.5 2355.89  10
  -3 -12  -8 16444.9 2203.90   4
   3 -12   9 2453.06 1236.32  12
   3  12   9 2455.87 927.954   9
  -3 -12  -9 2867.58 935.715   4
   3  12   9 2194.48 940.667   7
   3  12   9 1762.73 1062.72   2
   3 -12   9 3235.06 1071.65  10
   3  12   9 2884.19 1126.15   3
   3  12  10 29.5557 602.956   7
   3  12  10 598.505 831.391   3
   3 -12  10 52.1172 686.526  10
   3  12  10-342.652 637.745   2
   3  12  10-244.548 376.524  24
   3  12  11 2272.62 661.959  24
   3  12  11 1278.52 663.518   7
   3 -12  11 823.903 559.474  10
   3  12  11 1359.79 905.898   2
   3  12  12-0.61218 307.889  24
   3  12  12 1167.88 647.592   7
   3  12  12-1018.27 853.742   2
   3 -12  12 101.998 430.389  10
   3  12  13 1801.40 985.704   2
   3  12  13 418.805 447.156   7
   3  12  13 979.636 425.130  24
   3 -12  13 868.769 559.256  10
   3 -12  14 710.672 511.983  10
   3  12  14-203.121 241.404  24
  -3 -13  14 743.336 619.787  10
  -3  13  14 1412.42 686.489   2
  -3  13  14-142.016 338.562  11
  -3 -13  13 1545.45 855.950  10
  -3  13  13 1322.62 883.312   2
  -3 -13  12-213.784 443.960  11
  -3  13  12 936.743 845.673   2
  -3 -13  12 757.622 750.205  10
  -3  13  11 2327.93 1265.96   2
  -3 -13  11 1877.35 981.331  11
  -3 -13  11 1144.09 900.473  10
  -3 -13  10 3227.45 1134.45  11
  -3 -13  10 1644.27 1082.58  10
  -3  13  10 2236.47 1302.61   2
  -3  13   9 150.192 411.473  16
   3  13  -9 2290.55 1227.43   1
  -3  13   9 940.880 776.658   3
  -3 -13   9 218.927 694.391  10
   3 -13  -9 458.425 396.194  21
  -3 -13   9 236.860 577.226  11
  -3 -13   8-26.8601 431.761  11
   3 -13  -8 377.681 316.968  21
  -3 -13   8 234.863 589.738  10
   3  13  -8 105.955 532.566   1
  -3  13   8 397.537 586.136   3
  -3  13   8-154.039 457.541  16
  -3 -13   7 8752.80 1817.53  11
  -3 -13   7 10214.7 2059.22  10
  -3  13   7 12264.9 2086.90   3
   3 -13  -7 11420.9 1373.38  21
  -3  13   7 13358.7 2002.07  16
   3  13  -7 11008.6 2118.82   1
   3  13  -6-1400.78 830.936   1
  -3  13   6 385.308 426.355  16
   3  13  -5 36294.4 3453.98   1
   3  13  -4 14327.1 2122.43   1
   3  13  -3 7457.90 1499.95   1
   3  13  -2-83.6914 528.969   1
   3  13  -1-364.078 618.101   1
   3  13   0 1702.66 794.997   1
  -3  13   0 1045.42 503.929   1
  -3  13  -1 20089.8 2019.65   1
   3  13   1 23247.7 2400.54   1
  -3 -13  -1 20921.9 1889.52   4
  -3 -13  -2 8657.26 1332.76   4
   3  13   2 10595.3 1638.87   1
  -3 -13  -3 802.292 440.999   4
   3 -13   3 1586.85 474.219  19
  -3 -13  -4-70.3804 410.300   4
   3 -13   4-227.182 349.095  19
   3 -13   5 4488.45 772.112  19
  -3 -13  -5 5737.69 1233.14   4
  -3 -13  -6-25.0479 458.796   4
   3  13   7-844.723 645.026   7
  -3 -13  -7 1713.70 842.026   4
   3  13   7 1301.84 770.739   9
   3 -13   7 1160.09 780.151  10
   3  13   7 1524.58 897.928   3
  -3 -13  -8 1393.65 891.993   4
   3 -13   8 2847.62 1137.96  10
   3  13   8 1717.38 885.044   7
   3  13   8 1178.08 776.088   3
   3  13   9 57.4595 411.807   7
   3  13   9 392.599 587.458   2
   3  13   9 441.992 590.532   3
   3 -13   9 1579.47 902.889  10
   3  13  10-631.673 609.693   3
   3  13  10-603.184 679.989   7
   3  13  10-1488.52 987.848   2
   3 -13  10 65.2720 513.116  10
   3  13  11 74.9258 475.059   7
   3  13  11 141.474 564.406   2
   3 -13  11 52.8509 430.574  10
   3  13  11-69.5468 297.597  24
   3  13  12 786.584 660.098   7
   3  13  12 573.981 793.808   2
   3  13  12 588.428 402.238  24
   3 -13  12 463.501 530.818  10
   3  13  13 4500.62 1389.03   2
   3  13  13 6458.51 871.493  24
   3 -13  13 5987.69 1304.73  10
   3  13  13 6520.07 1230.43   7
   3  13  14 3853.87 581.549  24
  -3  14  14-187.584 425.664  11
  -3  14  14 93.0497 321.139   2
  -3 -14  14 225.626 428.704  10
  -3 -14  13 1496.08 838.704  10
  -3  14  13 894.903 598.306   2
  -3 -14  12 10311.8 1967.14  10
  -3  14  12 9333.38 1989.51   2
  -3 -14  11-537.570 613.915  11
  -3  14  11-213.616 587.452   2
  -3 -14  11-620.105 606.727  10
  -3  14  10 6479.99 1938.77   2
  -3 -14  10 3683.93 1229.37  11
  -3 -14  10 6540.98 1754.59  10
  -3 -14   9 6501.70 1745.40  10
  -3 -14   9 8312.11 1776.39  11
  -3  14   9 7297.21 1651.37   3
   3 -14  -9 8123.04 1188.95  21
  -3  14   8 777.829 779.923   3
  -3 -14   8 421.179 636.344  10
   3 -14  -8 94.0661 242.989  21
  -3  14   8 471.352 452.355  16
   3  14  -8-1521.45 918.244   1
  -3 -14   8 795.098 704.342  11
   3 -14  -7 6932.23 1114.42  21
  -3 -14   7 8186.41 1752.30  11
  -3 -14   7 5369.63 1585.66  10
   3  14  -7 7854.06 1771.10   1
  -3  14   7 10768.9 1843.15  16
  -3  14   7 7937.67 1705.23   3
  -3  14   6 1386.76 742.562  16
  -3  14   6-1309.55 772.406   3
   3 -14  -6 419.574 286.847  21
  -3 -14   6-2021.85 1001.25  11
  -3 -14   6 1763.21 983.547  10
   3  14  -6 794.126 571.389   1
  -3  14   5 21594.0 2547.48  16
   3  14  -5 17945.6 2530.82   1
   3  14  -4 7029.40 1689.23   1
   3  14  -3 2336.51 995.993   1
   3  14  -2-329.737 559.264   1
   3  14  -1 196.018 554.142   1
  -3  14   0-862.380 524.955   1
   3  14   0-5.54438 507.236   1
  -3 -14  -1-117.153 378.311   4
   3  14   1 636.064 465.483   1
  -3  14  -1 681.037 455.077   1
  -3 -14  -2 923.832 529.306   4
   3  14   2 686.766 540.294   1
   3 -14   3 28167.9 1858.30  19
  -3 -14  -3 26175.5 2397.42   4
  -3 -14  -4 2453.92 827.434   4
   3 -14   4 3313.04 673.965  19
  -3 -14  -5 12493.1 1848.72   4
   3 -14   5 12703.3 1293.65  19
  -3 -14  -6 7780.95 1478.40   4
   3  14   6 8480.73 1759.98   3
   3 -14   6 10098.6 1945.19  10
   3  14   6 6886.91 1455.37   7
  -3 -14  -7-21.8984 452.283   4
   3 -14   7-257.498 496.434  10
   3  14   7 949.585 714.899   7
   3  14   7 1787.57 913.763   3
  -3 -14  -8 2627.17 1046.65   4
   3  14   8 6242.86 1442.22   7
  -3 -14  -8 4901.66 901.767  21
   3  14   8 5370.44 1580.27   3
   3 -14   8 3459.12 1267.11  10
   3  14   9 6813.57 1869.07   2
   3  14   9 6159.59 1476.06   7
   3  14   9 6707.63 1690.17   3
   3 -14   9 6356.09 1632.34  10
   3  14  10-448.235 514.528   3
   3  14  10 139.070 490.555   7
   3  14  10-509.674 637.589   2
   3 -14  10-132.739 604.188  10
   3  14  11 1887.25 788.869   7
   3  14  11 1371.85 489.881  24
   3  14  11 3110.00 1308.65   2
   3 -14  11 2499.47 979.889  10
   3  14  12 1216.45 622.502   7
   3  14  12 2462.04 1134.89   2
   3  14  12 2580.36 630.359  24
   3 -14  12 3411.23 1115.72  10
   3  14  13 1311.89 830.439   2
   3  14  13 2424.39 534.022  24
   3 -14  13 2799.43 918.364  10
   3  14  14 114.159 166.529  24
  -3  15  14 659.423 517.647   2
  -3  15  14 16.8923 297.819  11
  -3 -15  14 426.550 415.587  10
  -3  15  13 618.898 588.021   2
  -3 -15  13 566.019 547.538  10
  -3  15  12 761.335 733.214   2
  -3 -15  12 784.294 682.551  10
  -3 -15  11 650.539 538.821  11
  -3 -15  11 160.544 611.234  10
  -3  15  11 1482.13 1025.61   2
  -3 -15  10 682.064 784.499  11
  -3 -15  10-5.21407 608.577  10
  -3  15  10-134.500 761.141   2
  -3 -15   9-305.443 521.964  11
  -3 -15   9 193.024 513.583  10
   3 -15  -9 288.581 387.742  21
  -3 -15   8 354.029 648.668  11
  -3  15   8 2155.59 947.323   3
  -3 -15   8 494.774 580.629  10
   3 -15  -8 1403.17 555.885  21
   3  15  -7 13617.1 2299.29   1
  -3  15   7 14297.9 2212.69  16
  -3 -15   7 12432.3 2328.66  10
  -3  15   7 12016.6 2153.86   3
   3 -15  -7 13056.5 1526.67  21
  -3 -15   7 11859.6 2148.23  11
   3  15  -6 57.1673 685.684   1
  -3 -15   6 2142.95 1016.09  11
  -3  15   6 1473.66 810.116   3
   3 -15  -6 585.233 276.980  21
  -3 -15   6 1090.48 799.465  10
  -3  15   6 803.255 856.792  16
   3  15  -5 23619.9 2936.43   1
  -3 -15   5 19493.7 2692.81  11
   3 -15  -5 23436.2 1937.86  21
  -3  15   5 24476.0 2848.48   3
  -3  15   5 23980.0 2740.66  16
  -3 -15   5 21393.8 2930.94  10
   3  15  -4 32333.2 3367.14   1
   3  15  -3 18711.2 2505.38   1
   3  15  -2 39409.3 3470.74   1
   3  15  -1 3028.74 990.913   1
   3  15   0 19465.8 2356.68   1
   3  15   1 6198.98 1360.89   1
  -3 -15  -2-124.417 463.169   4
   3  15   2 446.368 486.659   1
   3 -15   2 29.9176 281.884  19
   3 -15   3 22268.7 1736.71  19
  -3 -15  -3 20571.0 2231.06   4
  -3 -15  -4 197.809 383.427   4
   3 -15   4 1279.88 545.805  19
  -3 -15  -5-88.2641 462.330   4
   3 -15   5-185.509 405.453  19
   3  15   5-98.7668 720.129   3
   3  15   5-338.663 747.592   7
   3 -15   5 1155.02 1001.06  10
  -3 -15  -6 398.426 566.717   4
   3  15   6-58.6033 549.889   7
   3  15   6-222.209 526.004   3
   3 -15   6 809.940 661.969  10
  -3 -15  -7 612.313 574.740   4
   3  15   7 1123.06 696.452   7
   3 -15   7 985.834 755.503  10
   3  15   7 737.802 648.528   3
  -3 -15  -8 574.521 440.458  21
   3  15   8 677.104 635.558   7
   3 -15   8-760.418 737.360  10
   3  15   8 1028.54 763.396   3
   3  15   9 668.371 627.573   7
   3 -15   9-92.3714 794.981  10
   3  15   9 338.527 743.691   3
   3  15   9-1010.36 821.472   2
   3  15  10-58.1807 383.286   7
   3  15  10-848.473 652.577   3
   3 -15  10 297.498 543.895  10
   3  15  10-859.438 455.330  24
   3  15  11 3265.03 1275.15   2
   3  15  11 1156.01 435.265  24
   3  15  11 2365.44 859.771   7
   3 -15  11 3074.77 1077.80  10
   3  15  12 3217.89 1064.17   2
   3  15  12 2795.35 858.259   7
   3  15  12 1985.68 527.914  24
   3 -15  12 2223.33 852.598  10
   3  15  13 1554.88 770.689   2
   3  15  13 753.101 346.122  24
   3 -15  13 489.293 483.817  10
  -3  16  13 162.656 359.765   2
  -3 -16  13 1452.88 643.415  10
  -3  16  12 8202.62 1706.41   2
  -3 -16  12 6545.64 1491.67  10
  -3  16  11-533.480 561.003   2
  -3 -16  11 307.147 617.503  10
  -3 -16  10 4084.09 1195.98  11
  -3 -16  10 3816.84 1272.80  10
  -3  16  10 3828.04 1352.56   2
  -3 -16   9 1008.80 573.429  11
  -3 -16   9 628.118 673.547  10
   3 -16  -9 796.346 456.545  21
  -3  16   8 2857.90 1163.90   3
  -3 -16   8 2095.12 913.920  11
   3 -16  -8 2155.97 627.230  21
  -3 -16   8 2404.75 1158.74  10
  -3  16   7 3880.82 1261.85   3
   3 -16  -7 2113.70 671.013  21
  -3 -16   7 1627.55 1048.99  10
  -3 -16   7 1100.24 690.051  11
   3 -16  -6 2912.07 819.626  21
  -3 -16   6 1115.20 649.154  11
  -3  16   6 1404.50 823.303   3
   3  16  -6 1291.32 649.492   1
  -3  16   6 3566.19 1237.62  16
  -3 -16   6 1529.90 905.348  10
  -3 -16   5-544.814 583.591  11
  -3  16   5-157.471 569.167  16
  -3 -16   5-1334.66 834.349  10
   3 -16  -5 245.561 304.098  21
  -3  16   5-630.771 574.845   3
   3  16  -5 264.572 776.307   1
   3 -16  -4 8142.17 1216.46  21
   3  16  -4 9206.78 1860.78   1
  -3  16   4 8604.17 1691.97   3
  -3 -16   4 9290.62 1912.28  11
  -3 -16   4 7238.65 1724.79  10
   3  16  -3 4887.92 1429.48   1
  -3 -16   3 4843.46 1296.77  10
  -3 -16   3 2858.56 1085.06  11
   3  16  -2 897.870 736.029   1
   3  16  -1 550.857 624.154   1
   3  16   0 9245.73 1763.15   1
   3  16   1-23.9591 499.391   1
  -3 -16  -2 105.853 433.188   4
   3  16   2-255.877 718.730   1
   3  16   2 168.528 485.439   3
   3 -16   2-67.7732 271.978  19
  -3 -16  -3 4820.30 1189.15   4
   3 -16   3 4783.63 819.304  19
   3 -16   3 4722.96 1376.79  10
   3  16   3 4786.21 1390.03   3
  -3 -16  -4 712.379 672.659   4
   3 -16   4 1.73159 293.422  19
   3  16   4-1096.14 707.886   3
   3 -16   4 247.881 473.904  10
   3  16   5 915.394 836.184   3
   3 -16   5 1240.35 512.612  19
  -3 -16  -5 1226.60 627.621   4
   3  16   5 831.522 590.293   7
   3 -16   5-70.4858 458.931  10
   3  16   6 17214.4 2322.60   7
   3  16   6 19232.4 2778.89   3
   3 -16   6 18078.8 2681.05  10
  -3 -16  -6 18882.2 2398.32   4
   3 -16   7 790.302 650.981  10
   3  16   7 372.729 570.561   7
   3  16   7 784.480 623.340   3
   3 -16   8 10566.3 2199.42   8
   3  16   8 7628.13 1594.96   7
   3  16   8 6952.35 1699.68   3
  -3 -16  -8 8478.25 1181.31  21
   3 -16   8 7433.98 1725.33  10
   3  16   9 756.218 530.315   7
   3 -16   9 647.928 627.936  10
  -3 -16  -9-6.20585 338.783  21
   3  16   9 784.865 729.857   2
   3  16   9 673.066 607.027   3
   3  16  10 231.758 455.575   7
   3  16  10 333.991 437.207   3
   3  16  10 114.951 277.158  24
   3 -16  10 128.735 428.511  10
   3  16  10 716.607 611.031   2
   3  16  11-45.8548 478.666   2
   3  16  11 242.947 351.850   7
   3  16  11-97.0263 288.700  24
   3 -16  11 855.417 626.827  10
   3  16  12-578.014 542.544   2
   3  16  12 734.808 357.004  24
   3 -16  12 1183.50 655.291  10
   3  16  13 254.668 223.178  24
   3  16  13 498.031 438.089   2
  -3  17  13-577.607 440.334   2
  -3 -17  13-292.306 329.021  10
  -3  17  13 271.904 326.726  11
  -3  17  12 864.478 592.978   2
  -3 -17  12-369.896 396.631  10
  -3  17  11 374.490 511.857   2
  -3 -17  11 562.313 810.024  10
  -3 -17  10 868.006 763.589  10
  -3  17  10 723.989 684.724   2
  -3 -17   9 213.917 480.944  11
   3 -17  -9 272.201 312.676  21
  -3 -17   9-113.768 494.154  10
  -3 -17   8 722.430 715.967  11
  -3  17   8 797.695 735.907   3
  -3 -17   8 767.200 736.209  10
   3 -17  -8 84.6730 243.530  21
  -3  17   7-1300.78 771.211   3
  -3 -17   7-119.145 515.384  10
   3 -17  -7-128.985 278.718  21
  -3 -17   7-39.8687 360.705  11
  -3 -17   6 3104.46 1136.54  11
   3 -17  -6 3338.09 850.137  21
  -3 -17   6 2700.36 1162.76  10
  -3  17   6 3685.62 1192.95   3
   3 -17  -5 5026.67 960.020  21
  -3  17   5 7853.39 1721.92  16
  -3 -17   5 3595.70 1184.20  11
   3  17  -5 4077.91 1302.85   1
  -3  17   5 5586.37 1445.09   3
  -3 -17   5 5712.31 1537.54  10
  -3 -17   4-22.8343 435.391  11
   3  17  -4-938.316 751.386   1
   3 -17  -4 517.425 368.908  21
  -3  17   4 89.5843 429.970  16
  -3 -17   4-1232.54 800.302  10
   3  17  -3 681.124 756.215   1
  -3 -17   3 824.499 723.009  11
  -3 -17   3 518.966 409.748  25
  -3  17   3 334.887 604.750   3
  -3 -17   3 915.462 830.476  10
   3 -17  -3 696.213 383.347  21
  -3  17   2 42263.9 3642.15   3
  -3 -17   2 44337.2 4116.10  11
  -3 -17   2 47488.8 4438.65  10
  -3 -17   2 45099.4 2738.14  25
   3  17  -2 46492.9 4045.82   1
  -3 -17   1 615.784 511.119  25
  -3 -17   1 372.542 760.792  10
   3  17  -1 225.826 545.660   1
   3  17   0 5774.72 1394.85   3
   3  17   0 4763.73 1235.28   1
   3  17   1 708.962 701.702   3
   3  17   1 2768.82 1042.91   1
   3 -17   2 3378.88 742.832  19
   3  17   2 1479.70 688.582   3
   3 -17   2 2211.95 1008.04  10
   3 -17   3-1187.22 807.354  10
   3 -17   3 365.245 281.282  19
   3  17   3-632.053 581.818   3
  -3 -17  -3 509.740 599.246   4
  -3 -17  -4 5486.82 1250.78   4
   3 -17   4 4377.77 1278.48  10
   3 -17   4 4064.23 794.043  19
   3  17   4 6048.92 1570.06   3
  -3 -17  -5 1381.57 544.560   4
   3  17   5 805.051 607.500   7
   3 -17   5 1021.09 758.943  10
   3  17   5 2283.14 1041.56   3
   3 -17   5 1025.31 396.615  19
   3  17   6 3535.30 1146.45   7
   3  17   6 3426.78 1110.96   3
   3 -17   6 3680.44 1343.65  10
   3  17   7-660.081 701.696   7
   3 -17   7-563.412 650.830  10
   3  17   7-347.480 530.131   3
   3 -17   8 1192.40 857.260   8
   3  17   8 1328.84 780.438   7
   3  17   8 137.468 531.722   3
   3 -17   8 333.008 668.121  10
  -3 -17  -8 311.525 324.311  21
   3  17   9-260.316 669.797   7
   3 -17   9-296.146 446.298  10
   3  17   9 706.705 665.080   2
   3  17   9 424.252 594.474   3
  -3 -17  -9 29.8722 260.429  21
   3  17  10 447.199 480.588   7
   3 -17  10 601.719 716.618  10
   3  17  10-330.409 337.004  24
   3  17  10-752.909 670.389   2
   3  17  11 514.784 511.099   7
   3 -17  11 652.478 514.251  10
   3  17  11-177.818 297.038  24
   3  17  11 439.763 582.014   2
   3 -17  12-87.8524 380.150  10
   3  17  12-152.543 194.131  24
   3  17  12-52.9679 334.160   2
  -3  18  12 571.100 438.125   2
  -3 -18  12-451.688 532.350  10
  -3  18  11-604.779 581.546   2
  -3 -18  11 125.821 374.666  10
  -3 -18  10 960.023 659.786  10
  -3  18  10 151.367 474.291   2
  -3 -18   9 3347.78 1078.30  11
  -3 -18   9 3698.91 1178.04  10
  -3  18   8 2182.05 954.759   3
   3 -18  -8 1939.92 581.791  21
  -3 -18   8 2000.64 887.278  11
  -3 -18   8 1152.10 657.472  10
  -3 -18   7 1751.34 930.083  11
   3 -18  -7 1463.14 565.078  21
  -3 -18   7 1134.94 622.197  10
  -3  18   7 736.513 545.580   3
   3 -18  -6 405.782 456.425  21
  -3  18   6 1089.24 680.396   3
  -3 -18   6 2407.82 1006.22  11
  -3 -18   5 297.870 514.953  11
  -3  18   5 494.203 566.109   3
   3 -18  -5 1020.83 484.465  21
  -3 -18   5-805.453 751.090  10
  -3  18   4 1084.01 540.550   3
   3 -18  -4-3.52472 411.794  21
  -3 -18   4 901.593 804.160  10
  -3 -18   4-304.991 513.755  11
  -3 -18   3-1311.14 851.966  10
   3 -18  -3 76.0561 276.222  21
  -3 -18   3-94.6631 669.843  11
  -3  18   3-455.166 554.439   3
  -3  18   3 538.643 521.866  16
   3  18  -3 615.933 619.437   1
  -3 -18   2 1823.18 909.485  11
   3 -18  -2 160.627 297.622  21
  -3  18   2 1492.47 728.029   3
   3  18  -2 4.59813 640.048   1
  -3 -18   2 1497.67 877.907  10
   3  18  -1-281.702 618.447   1
  -3 -18   1-2003.11 991.901  10
   3  18   0 2634.18 1096.55   1
   3  18   0 3033.81 1154.57   3
   3 -18   1 4346.16 858.621  19
   3  18   1 2991.59 1144.49   3
   3  18   1 3823.46 1268.41   1
   3  18   2 390.987 491.291   3
   3 -18   2 520.799 593.183  10
   3 -18   2 688.066 385.598  19
   3 -18   3 10113.0 1217.62  19
   3 -18   3 11806.4 2208.06  10
   3  18   3 12508.2 2173.52   3
   3  18   4 2260.84 938.413   3
   3 -18   4 1922.90 570.612  19
  -3 -18  -4 3283.14 1024.62   4
   3 -18   4 1518.58 888.370  10
   3 -18   5 1138.07 777.512  10
   3  18   5 2574.10 1152.60   3
   3  18   6 4336.01 1159.02   7
   3 -18   6 5219.66 1519.01  10
   3  18   6 4325.11 1379.73   3
   3 -18   7 488.950 676.772   8
   3  18   7-49.6402 393.379   7
   3  18   7 249.236 457.240   3
   3 -18   7-55.5095 584.399  10
   3 -18   8 6725.38 1635.76   8
   3  18   8 6898.74 1658.43   2
   3  18   8 8625.92 1567.87   7
  -3 -18  -8 7896.86 1104.40  21
   3 -18   8 6975.16 1621.75  10
   3  18   8 7549.29 1707.97   3
   3  18   9 2469.79 1008.84   2
  -3 -18  -9 970.568 398.412  21
   3  18   9 2607.07 944.067   7
   3  18   9 901.677 518.086   3
   3 -18   9 2165.57 903.091  10
   3  18  10-731.102 515.742   7
   3  18  10-683.864 552.208   2
   3  18  10-50.9805 241.222  24
   3 -18  10 475.503 541.285  10
   3  18  11 345.926 671.792   2
   3 -18  11 679.591 492.140  10
   3  18  11 1021.20 361.969  24
   3  18  12 5.73875 302.789   2
   3  18  12 433.691 249.947  24
  -3  19  11-204.360 390.819   2
  -3 -19  11-1030.85 572.002  10
  -3 -19  10 709.589 531.588  10
  -3  19  10 1048.98 774.769   2
  -3 -19   9 890.220 582.095  10
  -3 -19   8 551.616 602.787  10
  -3 -19   8 1237.94 820.119  11
  -3  19   8-84.9062 481.934   3
   3 -19  -8 533.509 379.875  21
  -3 -19   7 4162.64 1272.47  11
   3 -19  -7 3055.06 738.180  21
  -3 -19   7 4284.15 1359.22  10
  -3  19   7 3151.13 1096.60   3
  -3 -19   6-126.438 404.733  11
  -3 -19   6-142.175 633.086  10
  -3  19   6-281.901 508.649   3
   3 -19  -6-245.510 268.835  21
  -3 -19   5 4277.85 1377.64  10
  -3  19   5 6173.89 1527.55   3
   3 -19  -5 6415.68 1089.12  21
  -3 -19   5 6944.92 1548.62  11
  -3 -19   4-188.930 465.178  11
  -3  19   4 1237.99 860.290   3
   3 -19  -4 430.096 374.083  21
  -3 -19   4-442.176 598.475  10
   3 -19  -3 67601.6 3298.32  21
  -3  19   3 71744.4 4924.27   3
  -3 -19   3 74656.0 5416.33  11
  -3 -19   3 69916.4 5392.03  10
   3 -19  -2 12233.0 1396.12  21
  -3  19   2 9300.05 1846.36   3
  -3 -19   2 10620.1 2188.38  10
   3 -19  -1 18233.9 1628.58  21
   3  19  -1 19236.3 2630.86   3
   3  19   0-109.817 431.295   3
   3  19   1 2302.88 728.689   3
   3  19   2 1905.16 864.882   3
   3  19   3 11358.7 2079.70   3
   3 -19   3 8413.95 1902.66  10
   3 -19   4 7478.65 1753.73  10
   3  19   4 5026.70 1380.85   3
   3  19   5-742.458 649.666   3
   3 -19   5 588.349 731.065  10
   3  19   6 454.858 542.414   3
   3  19   6 1135.77 649.013   7
   3 -19   6-264.272 646.454  10
   3 -19   7 164.836 477.623  10
   3  19   7-346.945 424.215   7
   3 -19   7 538.900 528.468   8
  -3 -19  -7 478.630 432.090  21
   3  19   7 380.734 519.751   3
   3 -19   8 1128.23 686.751   8
   3  19   8 608.429 487.940   7
  -3 -19  -8 1810.24 578.374  21
   3  19   8 544.549 555.260   2
   3  19   8 256.443 407.581   3
   3 -19   8 746.932 570.102  10
   3 -19   9-1337.06 701.512  10
   3  19   9 1485.71 742.511   2
  -3 -19  -9-16.8062 271.480  21
   3  19   9-252.955 330.444   7
   3  19   9 600.754 585.906   3
   3  19  10 1285.93 652.184   2
   3  19  10 548.442 282.473  24
   3 -19  10 1889.25 770.998  10
   3  19  11-339.925 344.031   2
   3  19  11 386.865 217.955  24
   3 -19  11-412.638 381.360  10
  -3  20  11 353.640 423.944   2
  -3 -20  11-106.741 345.771  10
  -3  20  10 1585.38 782.756   2
  -3 -20  10 2446.00 804.480  10
  -3  20   9 614.804 513.607   2
  -3 -20   9-21.9973 528.654  10
   3 -20  -8-28.3579 256.739  21
  -3 -20   8-583.317 586.164  10
   3 -20  -7 266.596 319.076  21
  -3 -20   7 1113.38 589.150  11
  -3 -20   7 107.009 476.604  10
  -3  20   7 338.704 452.165   3
  -3 -20   6 2947.01 1031.77  11
  -3  20   6 1557.22 869.327   3
  -3 -20   6 2011.50 934.156  10
   3 -20  -6 2966.36 720.751  21
  -3 -20   5 2023.63 916.108  11
   3 -20  -5 271.754 313.134  21
  -3  20   5 2665.36 999.212   3
  -3 -20   5 1278.47 681.720  10
  -3 -20   4 856.156 790.944  10
  -3  20   4-222.302 679.251   3
   3 -20  -4 217.074 336.050  21
  -3 -20   3 627.468 519.387  10
   3 -20  -3 1612.80 510.188  21
  -3  20   3 1027.49 640.010   3
   3  20  -2-222.618 470.204   3
  -3  20   2 227.933 435.955   3
   3 -20  -2 304.877 317.710  21
   3 -20  -1 385.045 332.849  21
   3  20  -1 1329.59 775.856   3
   3  20   0-752.975 627.958   3
   3  20   1-826.354 667.264   3
   3  20   2 2106.59 965.952   3
   3  20   3 3744.47 1200.53   3
   3  20   4 445.837 546.732   3
   3 -20   4-180.445 686.305  10
   3  20   5 4452.49 1339.56   3
   3 -20   5 4736.51 1392.94  10
   3 -20   6 5602.70 1603.46   8
   3 -20   6 4835.82 1354.53  10
   3  20   6 6225.58 1511.55   3
   3 -20   7 750.163 658.378   8
   3  20   7 872.666 485.042   7
   3  20   7 2073.02 956.923   3
  -3 -20  -7 1242.60 477.460  21
   3 -20   7 1481.01 765.295  10
   3  20   8 1267.07 751.164   3
  -3 -20  -8 1952.34 539.218  21
   3  20   8 1325.53 697.263   2
   3 -20   8 1749.09 832.370   8
   3 -20   8 874.774 566.212  10
   3  20   9 161.510 393.026   3
   3 -20   9 302.099 433.258  10
  -3 -20  -9 438.232 312.079  21
   3  20   9-20.9094 317.077   2
   3 -20  10 3145.38 862.693  10
   3  20  10 2556.27 500.220  24
  -3 -21  10 75.8657 366.293  10
  -3  21  10-134.863 345.245   2
  -3 -21   9-596.818 488.462  10
  -3  21   9 275.459 335.597   2
  -3 -21   8 1323.00 667.232  10
  -3  21   7 1686.28 717.878   3
   3 -21  -7 1786.26 552.578  21
  -3 -21   7 53.4269 405.850  10
   3 -21  -7 1776.76 699.104   5
  -3 -21   6 1157.14 750.130  10
   3 -21  -6 2018.02 585.457  21
  -3  21   6 1312.19 720.654   3
  -3  21   5 1795.06 777.199   3
  -3 -21   5 1253.27 690.734  10
   3 -21  -5 716.590 369.718  21
  -3  21   4 4405.49 1207.77   3
   3 -21  -4 6508.24 1014.29  21
  -3 -21   4 7470.48 1713.58  10
   3  21  -3 3455.53 1137.25   3
   3 -21  -3 3122.42 740.918  21
  -3  21   3 3651.37 1106.51   3
  -3  21   2 33484.8 3299.82   3
   3  21  -2 32834.6 3373.97   3
   3 -21  -2 32069.5 2155.35  21
   3  21  -1-1260.73 769.144   3
   3  21   0 11158.8 2001.97   3
   3  21   1-1242.12 753.232   3
   3  21   2 119.430 423.692   3
   3  21   3 311.838 542.522   3
   3  21   4 1380.89 776.389   3
   3 -21   5 1619.53 919.546   8
   3  21   5 699.336 699.889   3
   3 -21   6 2487.82 1061.14   8
   3 -21   6 2350.41 1009.55  10
  -3 -21  -6 2139.55 613.718  21
   3  21   6 2282.23 892.547   3
   3 -21   7 984.789 721.705   8
   3  21   7 325.988 492.864   3
  -3 -21  -7-87.6363 230.404  21
   3 -21   7 924.971 584.942  10
   3 -21   8 314.934 518.543   8
  -3 -21  -8-137.243 260.675  21
   3 -21   8 7.57618 350.335  10
   3  21   8-55.1653 342.131   3
  -3 -21  -9 486.002 269.339  21
   3  21   9 332.592 238.005  24
   3  22  -9 470.374 329.178   3
  -3  22   9 175.583 407.070   2
  -3 -22   9 438.295 391.693  10
   3  22  -8 2471.27 719.135   3
  -3 -22   8 3582.99 966.809  10
  -3 -22   7-76.8251 409.631  10
   3  22  -7 225.623 359.877   3
   3 -22  -7 90.5433 257.628  21
  -3  22   6 545.211 456.438   3
  -3 -22   6 190.299 351.806  10
   3 -22  -6-268.656 281.075  21
   3  22  -6-25.1019 432.189   3
   3  22  -5 102.141 434.820   3
   3 -22  -5 37.9845 315.691  21
  -3  22   4 1532.04 715.931   3
   3 -22  -4 1756.48 536.561  21
   3  22  -4 1913.06 850.069   3
  -3  22   3 1604.74 737.639   3
   3 -22  -3 354.650 316.025  21
   3  22  -3 586.986 581.119   3
   3 -22  -2 96.2343 295.447  21
   3  22  -2 81.5429 508.395   3
   3 -22  -1 737.641 620.440   8
   3  22  -1 537.039 610.230   3
   3  22   0 773.609 661.658   3
   3  22   1 783.463 717.658   3
   3  22   2 1055.48 786.502   3
   3  22   3 747.343 534.859   3
   3 -22   4-34.0448 500.844   8
   3  22   4 907.326 618.152   3
   3 -22   5 926.334 568.086   8
   3  22   5 233.310 508.282   3
  -3 -22  -5 633.792 399.791  21
   3 -22   6 4044.14 1214.35   8
   3  22   6 4706.39 1166.73   3
  -3 -22  -6 4576.25 802.003  21
   3 -22   7 437.493 500.492   8
   3  22   7 636.291 447.069   3
  -3 -22  -7 815.094 335.855  21
   3 -22   8 1749.15 601.942   8
   3  22   8 1441.49 625.446   3
  -3 -22  -8 1344.71 409.135  21
  -3  23   8-295.418 349.730   2
   3  23  -8-465.900 325.020   3
   3  23  -7 1217.91 523.843   3
   3  23  -6 1038.82 580.715   3
  -3  23   6 980.855 510.571   3
   3 -23  -6-33.5907 269.379  21
   3 -23  -6 276.246 351.666   5
   3 -23  -5 838.545 372.410  21
  -3  23   5 900.814 408.163   3
   3  23  -5 1131.72 601.156   3
   3 -23  -4 1817.54 528.998  21
  -3  23   4 1912.85 679.580   3
   3  23  -4 2492.50 888.067   3
   3 -23  -3 7210.98 966.971  21
   3  23  -3 8152.00 1536.41   3
   3  23  -2 1104.49 631.732   3
   3 -23  -2 1638.86 484.723  21
   3 -23  -1 197.450 449.554   8
   3  23  -1 267.680 494.683   3
   3 -23   0 585.878 535.500   8
   3  23   0-173.435 478.149   3
   3 -23   1 2378.64 937.844   8
   3  23   1 1352.53 672.323   3
   3 -23   2-246.371 441.430   8
   3  23   2 603.099 509.178   3
   3 -23   3 681.723 620.849   8
   3  23   3 289.352 510.637   3
   3 -23   4 294.342 451.383   8
   3  23   4 61.0193 325.374   3
   3 -23   5 872.002 556.326   8
   3  23   5 175.734 375.867   3
  -3 -23  -5 743.725 371.798  21
   3 -23   6-385.796 486.900   8
  -3 -23  -6-154.917 223.323  21
   3  23   6 106.292 306.474   3
   3 -23   7 1011.40 556.594   8
  -3 -23  -7 630.200 307.812  21
   3  23   7 828.199 516.252   3
  -3 -23  -8 301.528 246.601  21
  -3  24   7 1790.50 680.002   2
   3 -24  -6 560.758 374.882   5
   3  24  -6 1158.71 561.299   3
   3 -24  -5 2374.46 498.791  21
   3  24  -5 1131.40 537.302   3
   3 -24  -5 1760.24 703.031   5
   3 -24  -4 736.847 341.888  21
   3  24  -4 652.241 454.367   3
   3 -24  -3 12.9424 193.592  21
   3  24  -3-987.569 568.251   3
   3  24  -2 517.896 447.462   3
   3 -24  -1 2024.94 780.463   8
   3  24  -1 1642.05 705.009   3
   3 -24   0 208.791 387.959   8
   3  24   0 311.457 318.107   3
   3 -24   1 878.806 709.177   8
   3  24   1 423.816 388.420   3
   3  24   2 1269.00 651.132   3
   3 -24   2 697.199 531.146   8
   3 -24   3 356.888 528.116   8
  -3 -24  -3 88.7945 218.091  21
   3  24   3 685.695 493.503   3
   3 -24   4 516.076 581.923   8
  -3 -24  -4 776.082 357.802  21
   3  24   4 185.667 340.086   3
   3  24   5 3058.40 859.208   3
  -3 -24  -5 3522.24 615.860  21
   3 -24   5 2572.45 864.193   8
  -3 -24  -6 112.942 176.615  21
   3 -24   6-630.836 462.894   8
   3  24   6 46.1262 321.502   3
   3  24   7-295.672 304.609   3
   3  25  -5 3071.41 698.015   3
   3 -25  -4 979.193 494.551   5
   3  25  -4 89.5579 264.627   3
   3  25  -3 169.042 299.551   3
   3 -25  -3-175.963 190.979  21
   3  25  -2 5463.82 1125.19   3
   3  25  -1-79.2364 284.087   3
   3 -25   0 991.612 479.428   8
   3  25   0 656.483 434.177   3
   3 -25   1-818.684 536.230   8
  -3 -25  -1-668.855 303.933  21
   3  25   1 114.558 330.183   3
   3 -25   2-852.817 543.343   8
  -3 -25  -2-384.542 251.953  21
   3  25   2 279.191 357.936   3
   3 -25   3-95.0836 345.307   8
   3  25   3 1027.80 502.765   3
  -3 -25  -3 743.655 303.037  21
   3 -25   4 940.065 569.631   8
  -3 -25  -4 587.641 257.306  21
   3  25   4 1515.74 632.992   3
   3 -25   5-504.269 399.848   8
  -3 -25  -5 266.917 210.733  21
   3  25   5-567.039 370.553   3
   3  26  -2-805.552 418.295   3
   3  26  -1-279.998 405.790   3
   3  26   0 1034.94 519.467   3
  -3 -26  -1-188.119 225.095  21
   3  26   1-217.038 296.552   3
   3  26   2 917.258 527.295   3
  -3 -26  -2 637.275 275.331  21
  -4   0  16-164.947 358.996  11
  -4   0  16 1308.55 685.338  10
  -4   0  15 321.730 461.651  11
  -4   0  15-669.587 683.793  10
  -4   0  14 581.587 672.664  10
  -4   0  14 22.2044 679.267  11
  -4   0  13 1131.79 769.049  10
  -4   0  13-1053.19 778.599  11
  -4   0  12-413.390 625.700  12
  -4   0  12 996.031 746.656  11
  -4   0  11 287.705 526.665  11
  -4   0  11-1376.68 897.300  12
  -4   0  10 1286.30 1007.40  12
  -4   0   9-179.577 591.045  12
  -4   0   8 62079.3 4341.04  12
  -4   0   7-105.098 319.444  16
  -4   0   6 430557. 7374.21  16
  -4   0   5-49.7567 239.809  16
  -4   0   4 51114.1 2254.17  16
  -4   0   4 52969.0 2159.35  18
  -4   0   4 50559.8 1399.35  14
  -4   0   3 61.9729 220.129  16
  -4   0   3 85.0732 180.976  18
  -4   0   3 44.7830 157.469  14
  -4   0   2 42693.7 1463.13  14
  -4   0   1 81.5635 224.546  14
  -4   0   0 5761.60 606.712  16
   4   0   1-486.732 268.249  14
   4   0   2 310576. 3115.10  20
   4   0   2 319665. 5485.75  12
   4   0   2 315647. 4775.81  14
   4   0   3-188.956 284.475  12
   4   0   3-46.1385 142.578  20
   4   0   3-212.794 358.953  14
   4   0   4 204.850 342.652  12
   4   0   4 89.8996 157.063  20
  -4   0  -4-95.5282 214.486  15
   4   0   5-356.630 402.744  12
  -4   0  -5-749.441 328.242  15
   4   0   5 59.6752 183.100  20
   4   0   6 346.703 449.064  12
   4   0   7-13.4474 468.650  12
   4   0   8 2382.05 922.601  12
   4   0   9 692.590 657.948  12
   4   0  10 2812.47 1144.85  12
   4   0  11 803.898 946.314  12
   4   0  11-337.238 408.258  24
   4   0  12 3125.93 1320.78  12
   4   0  12 3380.15 771.846  24
   4   0  13 88.5834 344.516  24
   4   0  13-563.713 476.401  22
   4   0  14 13276.3 1129.95  22
   4   0  14 11029.7 1256.92  24
   4   0  15 74.8508 313.985  22
  -4  -1  16 789.194 432.635  11
  -4   1  16 195.445 345.828  11
  -4   1  16-336.441 550.879  10
  -4  -1  16 1498.34 661.441  10
  -4  -1  15 1621.01 762.742  10
  -4   1  15 2350.53 1002.38  10
  -4   1  15 2240.32 927.107  11
  -4  -1  15 1444.53 787.175  11
  -4  -1  14 3135.54 1156.74  10
  -4   1  14 5460.13 1434.69  10
  -4   1  14 3607.20 1218.63  11
  -4  -1  14 2792.58 1133.39  11
  -4  -1  13-137.532 661.097  11
  -4   1  13-902.116 733.507  11
  -4  -1  13 80.5376 452.870  10
  -4  -1  12 7763.10 1994.71  12
  -4   1  12 8018.05 2052.68  12
  -4  -1  12 8404.48 1884.22  11
  -4   1  12 9720.56 2109.64  11
  -4  -1  12 8854.05 1980.80  10
  -4  -1  11 11898.9 2320.04  12
  -4   1  11 7268.00 1769.93  12
  -4  -1  11 8300.52 1838.07  11
  -4   1  11 9258.29 2007.73  11
  -4  -1  10-215.618 521.761  12
  -4   1  10 123.912 595.080  12
  -4  -1   9 1093.31 790.192  12
  -4   1   9 1183.79 659.549  12
  -4  -1   8 25472.1 2791.34  12
  -4   1   8 25220.9 2086.22  16
  -4   1   7 4525.64 848.485  16
  -4  -1   7 5249.40 891.609  16
  -4   1   6 160183. 4557.81  16
  -4  -1   6 160033. 4522.68  16
  -4  -1   5 6063.10 859.794  16
  -4   1   5 7748.58 962.951  16
  -4  -1   4 5322.48 702.932  18
  -4   1   4 6000.79 752.835  18
  -4   1   4 5885.66 537.357  14
  -4  -1   4 5838.77 764.149  16
  -4   1   4 5466.16 782.555  16
  -4  -1   4 4543.05 402.081  15
  -4  -1   3 188.104 193.415  18
  -4   1   3 246.745 222.599  18
  -4   1   3 374.511 291.094  16
  -4  -1   3 460.682 290.373  16
  -4   1   3 153.678 182.047  14
  -4   1   2 2511.77 403.563  14
  -4  -1   1 1076.18 320.550  14
  -4   1   1 1248.34 312.545  14
   4   1  -1 1126.93 308.115  14
  -4  -1   0 3739.78 537.272  16
  -4   1   0 3559.58 478.093  16
  -4  -1  -1 52579.3 1741.82  16
   4   1   1 51145.1 1851.79  14
   4  -1   1 56246.6 2315.09  12
   4   1   2 185919. 3698.23  14
  -4   1  -2 188074. 3656.85  14
   4  -1   2 186712. 4508.45  12
   4   1   3 132101. 3315.92  14
   4  -1   3 141301. 2337.63  20
   4   1   3 133037. 2137.61  20
   4  -1   3 135082. 4262.72  12
  -4  -1  -3 143781. 3447.09  15
  -4   1  -3 137305. 3261.61  14
   4   1   3 146369. 4029.11  12
   4  -1   4 1638.45 556.484  12
   4   1   4 1040.75 404.751  12
   4  -1   4 896.531 254.158  20
  -4  -1  -4 1065.45 351.941  15
   4   1   4 1191.70 379.410  14
   4   1   4 1598.95 287.341  20
   4  -1   5 34063.2 2504.47  12
   4   1   5 32569.7 2369.75  12
   4   1   5 33490.1 1281.17  20
  -4   1  -5 31577.0 1769.01  15
   4  -1   5 33318.5 1332.13  20
   4   1   5 30344.2 1798.23  14
   4  -1   6 399363. 9320.39  12
   4   1   6 386286. 8688.05  12
   4  -1   6 397921. 4926.07  20
   4  -1   7 17830.8 2154.39  12
   4   1   7 18362.4 2125.60  12
   4  -1   8 40071.4 3567.31  12
   4   1   8 36852.5 3304.50  12
   4  -1   9 4275.77 1276.82  12
   4   1   9 3867.05 1243.40  12
   4  -1  10 13344.8 2464.32  12
   4   1  10 9766.25 1992.97  12
   4  -1  11 5704.29 1691.38  12
   4   1  11 6971.47 1837.67  12
   4   1  11 5930.67 985.661  24
   4  -1  11 5092.36 891.417  24
   4   1  12 33957.4 2289.10  24
   4  -1  12 32089.3 2243.57  24
   4  -1  12 37534.4 4457.99  12
   4   1  12 38692.0 4445.27  12
   4   1  13 896.677 521.935  24
   4  -1  13 879.464 475.376  24
   4  -1  13 512.385 439.470  22
   4   1  13 1524.06 444.049  22
   4   1  14 1479.39 560.054  24
   4   1  14 1916.00 525.237  22
   4  -1  14 1086.56 508.126  24
   4  -1  14 1579.88 603.833  22
   4   1  15 923.441 407.057  22
   4   1  15 1025.30 474.911  24
   4  -1  15 1316.18 469.323  22
   4   1  16 1640.76 499.983  22
  -4  -2  16 40.2041 308.583  11
  -4  -2  16 1331.02 678.011  10
  -4   2  16 1160.11 547.546  10
  -4   2  16 2028.07 761.596  11
  -4  -2  15 1239.52 802.897  11
  -4   2  15 961.015 639.287  11
  -4   2  15-28.6751 451.625  10
  -4  -2  15 158.476 436.321  10
  -4   2  14-1278.80 769.271  11
  -4   2  14-1351.19 844.938  10
  -4  -2  14 1269.26 868.463  11
  -4  -2  14-112.166 624.481  10
  -4  -2  13 194.708 545.623  10
  -4   2  13 1207.37 728.473  11
  -4  -2  13 46.3956 426.269  11
  -4  -2  12-3163.80 1305.70  12
  -4   2  12 747.620 716.033  12
  -4  -2  12-1372.67 891.094  10
  -4  -2  12-1606.97 932.431  11
  -4   2  12-1199.71 785.588  11
  -4  -2  11 2765.94 1067.21  12
  -4   2  11 3994.08 1390.26  12
  -4   2  11 1803.75 941.999   2
  -4   2  11 2413.49 1050.11  11
  -4  -2  11 2437.59 1050.94  10
  -4  -2  11 4290.18 1336.47  11
  -4  -2  10 677.950 838.671  12
  -4   2  10 83.1394 702.752  12
  -4  -2   9 6731.90 1573.13  12
  -4  -2   8 953.653 602.113  12
  -4   2   8 151.783 364.851  16
  -4  -2   7 4532.83 1034.11  12
  -4   2   7 4717.61 862.575  16
  -4  -2   7 6890.74 1028.14  16
  -4  -2   6 61655.8 3588.02  12
  -4   2   6 63420.2 2943.29  16
  -4  -2   6 63203.4 2826.75  16
  -4  -2   5 69147.4 2763.51  16
  -4   2   5 73291.1 2940.31  16
  -4  -2   4 1389.92 219.121  15
  -4  -2   4 1723.35 449.527  18
  -4   2   4 1581.41 345.191  17
  -4   2   4 1719.95 424.718  18
  -4  -2   4 1398.52 409.707  16
  -4   2   4 1768.70 476.750  16
  -4   2   3 101705. 2768.91  18
  -4  -2   3 104282. 2129.36  15
  -4  -2   3 111567. 3095.13  16
  -4   2   3 106098. 3088.59  16
  -4   2   2 5437.91 612.529  18
  -4  -2   2 5404.62 573.330  15
   4   2  -2 5649.49 548.676  14
   4   2  -1 359322. 4498.28  14
  -4   2   1 358651. 4938.17  16
   4   2   0 4499.29 559.525  14
  -4  -2   0 4218.47 570.285  15
  -4   2   0 4546.58 552.287  16
   4  -2   1 14056.3 1315.14  12
   4  -2   1 12984.1 596.175  19
  -4  -2  -1 13261.5 944.648  16
   4   2   1 11365.6 906.118  14
  -4   2  -2 73876.9 2349.32  14
  -4  -2  -2 71122.5 2136.61  16
   4   2   2 68457.2 1358.10  20
   4  -2   2 72817.8 1564.47  19
   4   2   2 74316.7 2389.40  14
   4  -2   2 75895.4 3015.41  12
   4   2   3 21276.2 1498.02  12
   4  -2   3 20852.5 948.530  20
  -4  -2  -3 21571.4 1216.54  16
   4   2   3 23224.2 881.888  20
  -4  -2  -3 22341.9 1390.74  15
   4   2   3 22054.6 1394.44  14
  -4   2  -3 22823.4 1353.89  14
   4  -2   3 24864.5 1916.09  12
   4  -2   4 53.5119 400.136  12
   4   2   4-142.947 283.671  12
   4   2   4 83.5382 156.048  20
  -4  -2  -4 99.8307 221.805  15
  -4   2  -4 265.752 272.693  14
   4   2   4 19.2018 210.571  14
   4  -2   4 148.599 172.366  20
   4  -2   5 2113.11 754.615  12
   4   2   5 2018.25 639.344  12
   4   2   5 2165.92 364.017  20
   4  -2   5 2008.67 400.649  20
   4   2   5 1522.05 435.918  14
   4   2   6 14863.1 1743.66  12
   4  -2   6 14680.0 1005.41  20
   4  -2   6 13961.4 1848.67  12
   4  -2   7-80.3624 586.278  12
   4   2   7 79.8750 399.399  12
   4  -2   8 139.957 586.228  12
   4   2   8-401.414 566.452  12
   4   2   9 2284.99 1003.33  12
   4  -2   9 1876.16 923.055  12
   4  -2  10 3333.80 1287.53  12
   4   2  10 2481.34 1172.06  12
   4  -2  11 1489.46 1016.31  12
   4   2  11 2004.38 1018.34  12
   4   2  11 2298.12 647.517  24
   4  -2  11 1129.37 502.685  24
   4   2  12 7390.20 1950.52  12
   4   2  12 6517.53 1048.48  24
   4  -2  12 6987.98 1926.14  12
   4  -2  12 6030.32 887.945  22
   4  -2  12 6016.84 1003.31  24
   4  -2  13-296.370 498.922  22
   4   2  13 160.101 345.620  24
   4  -2  13 573.491 427.926  24
   4   2  14 3389.06 738.908  24
   4  -2  14 3402.58 606.575  22
   4   2  14 2435.77 567.821  22
   4   2  15 277.812 320.415  22
   4   2  15 391.232 294.821  24
   4   2  16 1382.54 467.553  22
  -4  -3  16 208.348 329.198  11
  -4  -3  16 329.009 348.183  10
  -4   3  16-1.00599 311.987  11
  -4   3  16 136.079 417.210  10
  -4   3  15 762.170 509.834  11
  -4  -3  15 2320.89 879.405  11
  -4  -3  15 1886.82 926.088  10
  -4   3  15 909.102 553.992  10
  -4  -3  14 2276.66 994.718  11
  -4   3  14 874.610 729.921  11
  -4  -3  14 1343.72 888.529  10
  -4   3  13 439.503 550.998  11
  -4  -3  13 1119.09 746.312  10
  -4  -3  13 531.035 633.331  11
  -4  -3  12 1405.23 930.380  12
  -4   3  12-115.663 587.018   2
  -4   3  12 718.865 669.503  11
  -4  -3  12 65.5810 757.853  10
  -4  -3  12-252.919 509.648  11
  -4  -3  11 28967.6 3547.89  12
  -4   3  11 32806.6 3914.62  12
  -4   3  11 38108.7 4166.94   2
  -4   3  11 41523.4 4049.76  11
  -4  -3  11 35332.2 3788.92  10
  -4  -3  11 34763.6 3749.20  11
  -4  -3  10 4126.44 1353.96  12
  -4   3  10 3941.22 1332.88  12
  -4  -3   9 43487.7 3927.86  12
  -4  -3   8 2703.13 888.665  12
  -4   3   8 2365.70 674.649  16
  -4  -3   7 1239.86 687.199  12
  -4   3   7 1069.73 465.607  16
  -4  -3   7 1423.48 498.049  16
  -4  -3   6 12415.7 1646.72  12
  -4   3   6 11681.0 1325.59  16
  -4  -3   6 11391.9 1208.33  16
  -4  -3   5 75.9462 286.637  12
  -4  -3   5 138.166 221.077  18
  -4  -3   5 133.935 344.545  16
  -4   3   5-751.832 383.299  16
  -4   3   4 7407.99 926.760  16
  -4  -3   4 8312.49 959.402  16
  -4  -3   4 8077.42 899.037  18
  -4   3   4 7842.16 880.189  18
  -4   3   4 8697.92 823.919  17
   4   3  -3 18.3723 134.992  14
  -4   3   3-100.295 170.326  18
  -4  -3   3 45.3689 225.608  16
  -4   3   3 119.928 185.712  16
  -4  -3   3 11.6505 155.346  15
  -4   3   2 4105.77 622.189  16
   4   3  -2 4130.59 497.716  14
  -4  -3   2 4040.38 625.657  16
  -4  -3   2 3963.10 503.143  15
  -4   3   2 4340.53 554.776  18
  -4   3   1 21649.2 1274.07  16
  -4  -3   1 20079.7 1165.45  15
   4   3  -1 21511.4 1166.89  14
   4   3   0 18582.2 1198.66   1
   4   3   0 19412.8 1150.84  14
  -4   3   0 17162.0 1055.70  16
  -4  -3   0 20260.8 1196.34  15
   4   3   1 5387.09 627.145   1
  -4  -3  -1 5951.41 703.224  16
   4  -3   1 5878.82 433.499  19
   4   3   1 5550.56 665.542  14
   4  -3   2 11612.0 1314.32  12
   4  -3   2 11658.4 667.131  19
   4   3   2 11266.0 534.134  20
  -4  -3  -2 10961.6 920.957  16
   4  -3   2 12281.9 694.137  20
  -4  -3  -2 12822.7 1052.11  15
   4   3   2 9239.38 824.018   1
   4   3   2 12078.9 1008.20  14
  -4   3  -2 11615.0 1009.47  14
   4   3   3 7985.59 892.483  12
  -4  -3  -3 8250.04 827.468  16
   4   3   3 8713.93 532.014  20
   4  -3   3 8278.99 628.510  20
  -4  -3  -3 9319.56 939.075  15
   4   3   3 8662.53 898.168  14
  -4   3  -3 9178.48 902.445  14
   4  -3   3 7693.38 1151.68  12
   4  -3   4 3654.87 861.423  12
   4   3   4 3019.21 629.594  12
   4   3   4 4026.22 415.340  20
   4   3   4 3078.62 556.577  14
  -4   3  -4 4261.54 647.897  14
   4  -3   4 2999.28 432.019  20
   4   3   5 15940.1 1631.83  12
   4  -3   5 18903.3 1995.95  12
   4  -3   5 17873.8 1040.71  20
   4   3   5 14131.4 1279.71  14
   4  -3   6 5040.02 1191.60  12
   4   3   6 3376.52 877.824  12
   4  -3   6 4580.03 597.282  20
   4  -3   7 3689.97 1122.08  12
   4   3   7 2626.70 843.173  12
   4   3   8-163.420 571.358  12
   4  -3   8-155.681 612.274  12
   4   3   9 22664.9 2755.00  12
   4  -3   9 18630.6 2784.86  12
   4  -3  10 6050.94 1688.05  12
   4   3  10 6297.09 1710.16  12
   4  -3  11 14877.0 2784.30  12
   4   3  11 13685.5 2573.47  12
   4   3  11 14199.7 1505.39  24
   4  -3  11 14450.0 1508.28  24
   4  -3  11 15467.1 1283.21  22
   4   3  12 521.877 759.435  12
   4  -3  12-945.876 493.100  24
   4   3  12-710.096 436.383  24
   4  -3  12-189.617 462.629  22
   4  -3  13 359.749 390.691  24
   4   3  13 358.663 328.672  24
   4  -3  13-532.497 529.296  22
   4   3  14 211.516 290.249  24
   4  -3  14 143.576 357.594  22
   4   3  14-372.623 391.379  22
   4   3  15 1165.89 456.682  22
   4   3  15 1223.10 454.218  24
   4   3  16 946.819 380.321  22
  -4  -4  16 489.417 506.625  11
  -4  -4  16 17.7755 445.105  10
  -4   4  16-377.664 333.201  10
  -4   4  16 831.956 557.064  11
  -4  -4  15 435.696 489.173  11
  -4   4  15 162.056 538.119  10
  -4  -4  15 826.158 665.312  10
  -4   4  15 347.496 481.951  11
  -4  -4  14 173.511 495.553  11
  -4   4  14 936.384 703.073  11
  -4  -4  14 813.834 748.881  10
  -4   4  13 374.565 556.065  11
  -4  -4  13 492.039 642.162  10
  -4  -4  13 613.442 527.150  11
  -4   4  12-70.6224 517.325   2
  -4  -4  12 623.589 798.928  11
  -4   4  12 51.7571 442.589  11
  -4  -4  12-448.593 780.884  10
  -4  -4  11 4545.92 1477.46  12
  -4   4  11 2788.20 1348.06  12
  -4   4  11 3152.16 1209.81   2
  -4  -4  11 1613.28 994.876  10
  -4  -4  11 2372.47 1050.69  11
  -4  -4  10 534.199 522.615  12
  -4   4  10 618.455 659.335  12
  -4  -4   9 25240.1 2951.53  12
  -4   4   8 13330.0 1627.82  16
  -4  -4   8 12218.7 1911.04  12
  -4  -4   7 16153.1 1980.23  12
  -4   4   7 15251.2 1605.88  16
  -4  -4   6 96437.4 4459.24  12
  -4  -4   6 99028.0 3524.13  16
  -4   4   6 102257. 3836.93  16
  -4  -4   5 41277.7 2588.72  12
  -4   4   5 42195.5 2337.07  16
  -4  -4   5 39404.3 2100.40  18
  -4  -4   5 40709.1 2147.62  16
  -4  -4   4 16138.7 1424.84  12
  -4  -4   4 16422.8 1252.56  18
  -4   4   4 16128.9 1223.77  17
  -4  -4   4 15478.0 1293.31  16
  -4   4   4 16878.7 1401.70  16
  -4  -4   3 69426.0 2574.21  16
  -4   4   3 68914.6 2443.78  17
  -4   4   3 69742.7 2667.82  16
  -4  -4   3 62515.6 1864.02  15
   4   4  -3 63907.6 1794.87  14
  -4   4   3 65632.8 2274.67  18
  -4   4   2 4099.45 643.309  16
  -4  -4   2 5601.50 732.150  16
  -4  -4   2 4850.93 576.540  15
   4   4  -2 4730.46 545.412  14
  -4   4   1 4690.77 544.563  18
   4   4  -1 4980.11 607.995  14
  -4   4   1 4417.54 639.934  16
  -4  -4   1 5715.44 690.051  15
   4   4   0 42480.0 1954.48   1
  -4   4   0 40809.3 1715.01  16
  -4  -4   0 46838.5 1920.43  15
   4   4   1 16149.6 1193.36   1
   4  -4   1 20037.3 848.282  19
  -4   4  -1 16895.4 1015.17  16
  -4  -4  -1 20177.5 1309.83  15
  -4  -4  -1 19072.7 1305.86  16
   4  -4   2 92.7793 314.289  12
   4   4   2 776.089 172.343  20
   4   4   2 356.222 228.381   1
   4  -4   2 911.880 254.213  20
   4  -4   2 805.112 226.083  19
  -4  -4  -2 677.602 287.392  16
  -4  -4  -2 409.871 284.948  15
   4  -4   3 903.034 540.956  12
   4  -4   3 491.506 233.330  19
   4   4   3 831.402 321.701  12
   4   4   3 948.741 189.099  20
   4   4   3 421.177 267.250  14
   4  -4   3 820.269 257.221  20
  -4   4  -3 946.784 342.547  14
   4   4   4 8159.95 1020.24  12
   4   4   4 7725.24 545.081  20
   4  -4   4 6995.04 649.390  20
   4  -4   4 6512.40 1178.69  12
   4   4   4 6490.20 869.460  14
  -4   4  -4 6488.25 808.575  14
   4  -4   5 88.3902 441.213  12
   4   4   5 746.412 355.382  12
   4  -4   5 623.238 267.312  20
   4  -4   6 2615.24 887.316  12
   4   4   6 1185.70 606.313  12
   4  -4   6 1392.24 370.628  20
   4  -4   7 6361.33 1482.59  12
   4   4   7 6745.42 1285.21  12
   4  -4   8 1677.99 839.511  12
   4   4   8 622.396 341.015  12
   4   4   9 7770.23 1632.38  12
   4  -4   9 9669.82 2079.17  12
   4  -4  10-646.356 921.150  12
   4   4  10-1341.29 867.504  12
   4  -4  10 137.331 304.201  24
   4   4  10-154.780 401.576  24
   4   4  11 285.742 636.951  12
   4   4  11-224.238 593.635   2
   4   4  11 19.7589 361.731  24
   4  -4  11-624.382 516.659  22
   4  -4  11-231.500 688.873  12
   4  -4  11-49.8292 341.846  24
   4  -4  12 2723.46 607.611  22
   4   4  12 3003.94 757.997  24
   4  -4  12 3463.76 828.482  24
   4  -4  13-447.148 497.823  22
   4   4  13-352.923 359.713  24
   4  -4  14 4953.09 776.041  22
   4   4  14 3756.13 579.717  22
   4   4  14 3538.27 733.493  24
   4   4  15 828.971 335.068  22
   4   4  15 1432.64 463.732  24
   4   4  16 3387.12 574.255  24
  -4  -5  16 1606.86 615.249  11
  -4  -5  16 2019.24 766.387  10
  -4   5  16 1899.33 742.062  10
  -4   5  16 2199.65 823.808  11
  -4   5  15-561.754 585.287  10
  -4   5  15 83.8923 435.555  11
  -4  -5  15 151.600 479.262  10
  -4  -5  15 573.832 522.317  11
  -4  -5  14 25921.7 3044.32  11
  -4   5  14 24869.2 3028.72  11
  -4  -5  14 26856.6 3207.73  10
  -4   5  13 802.068 622.211   2
  -4  -5  13 1554.69 899.027  11
  -4  -5  13 1421.33 889.857  10
  -4   5  13 225.448 439.825  11
  -4   5  12-1336.42 919.474   2
  -4  -5  12-132.331 506.294  10
  -4   5  12 775.162 735.682  11
  -4  -5  12 10.4846 432.238  11
  -4  -5  11-559.762 631.163  11
  -4   5  11 167.348 586.984  12
  -4  -5  11-1209.55 809.217  10
  -4   5  11-408.118 690.510   2
  -4  -5  10 3463.92 1215.17  12
  -4  -5  10 2386.36 944.967  10
  -4  -5  10 3774.06 1208.11  11
  -4   5   9 4950.40 1101.67  16
  -4  -5   9 4847.67 1316.68  12
  -4  -5   8 38816.8 3375.69  12
  -4   5   8 46351.6 2987.63  16
  -4  -5   7 1901.87 741.799  12
  -4   5   7 1981.34 601.154  16
  -4  -5   6 8061.99 1287.13  12
  -4   5   6 7457.84 1116.45  16
  -4  -5   6 6124.02 925.620  16
  -4  -5   5 8391.19 1194.59  12
  -4   5   5 9748.25 1184.78  16
  -4  -5   5 8013.93 1011.04  16
  -4   5   4 7496.11 1002.21  16
  -4  -5   4 6830.42 819.805  18
  -4   5   4 7715.98 941.293  17
  -4  -5   4 7417.32 943.640  16
  -4  -5   3 163.989 259.685  16
  -4   5   3 264.771 228.796  16
  -4   5   3 299.844 264.857  17
  -4  -5   3 266.617 240.672  17
   4   5  -3 199.668 211.152  14
  -4   5   2 5071.70 606.653  18
  -4   5   2 4713.36 744.682  17
  -4  -5   2 6885.07 849.994  16
  -4   5   2 5694.97 787.254  16
  -4  -5   2 4417.77 612.956  15
  -4   5   1-12.4215 134.950  18
  -4  -5   1 77.1935 237.409  16
  -4   5   1 50.9845 198.826  16
  -4  -5   1 75.2849 192.480  15
   4   5  -1 130.915 274.770   1
   4   5   0 6817.53 919.066   1
  -4  -5   0 6518.34 863.806  16
  -4   5   0 6453.22 752.325  16
  -4  -5   0 6428.87 807.807  15
   4   5   1 5529.97 814.579   1
  -4  -5  -1 6389.73 830.199  16
  -4   5  -1 5548.13 640.188  16
  -4  -5  -1 6432.50 817.798  15
   4  -5   2 5948.87 1082.07  12
   4  -5   2 3707.17 427.577  20
   4   5   2 2761.66 597.426   1
   4  -5   2 5056.73 487.935  19
  -4  -5  -2 3958.22 671.565  16
   4  -5   3 5829.42 1093.54  12
   4   5   3 5870.18 406.648  20
   4  -5   3 5548.72 541.935  19
   4  -5   3 6243.79 580.303  20
   4  -5   4 232149. 6930.04  12
   4  -5   4 242899. 3642.90  20
   4  -5   5 762.002 719.549  12
   4   5   5 195.420 312.835  12
   4  -5   5 267.358 210.321  20
   4   5   6 9363.46 1341.71  12
   4  -5   6 9555.86 1681.61  12
   4  -5   6 9332.16 868.550  20
   4  -5   7 1940.99 860.138  12
   4   5   7 2040.83 710.475  12
   4  -5   8 4540.54 1389.44  12
   4   5   8 5033.84 1254.64  12
   4  -5   9 479.160 613.660  12
   4   5   9 1939.15 706.032  12
   4  -5  10 3424.78 1429.20  12
   4   5  10 4815.64 1412.18  12
   4   5  10 6320.47 1771.14   2
   4   5  10 4935.84 921.174  24
   4  -5  10 3612.07 740.948  24
   4  -5  10 4547.10 691.470  22
   4   5  11 884.032 865.082  12
   4   5  11 536.497 825.593   2
   4  -5  11 246.408 412.970  22
   4  -5  11 2830.29 1365.65  12
   4   5  11 397.429 327.436  24
   4  -5  11 1319.21 559.870  24
   4  -5  12 5056.42 831.214  22
   4   5  12 4181.90 834.627  24
   4   5  13-1021.04 468.577  24
   4  -5  13 63.9302 390.400  22
   4   5  14 1548.45 408.583  22
   4   5  14 1492.48 510.848  24
   4   5  15-138.531 258.730  24
   4   5  15-196.814 342.128  22
   4   5  16 828.636 330.516  24
  -4  -6  16 553.133 394.973  11
  -4   6  16 1038.78 531.402  10
  -4   6  16 1719.35 693.916  11
  -4  -6  16 542.456 451.657  10
  -4  -6  15 287.834 423.674  10
  -4  -6  15-236.711 413.123  11
  -4   6  15 591.741 536.488  11
  -4  -6  14 1195.47 809.075  11
  -4  -6  14 175.303 482.471  10
  -4   6  14-497.276 525.949  11
  -4   6  13 1074.07 872.844   2
  -4  -6  13-475.113 601.719  11
  -4   6  13-43.2750 454.250  11
  -4  -6  13 103.118 745.396  10
  -4   6  12 565.654 681.115   2
  -4  -6  12 146.566 650.101  11
  -4  -6  12 188.571 480.893  10
  -4  -6  11 1736.78 903.834  11
  -4   6  11 1741.65 999.301   2
  -4  -6  11 801.285 828.786  10
  -4   6  11-195.734 709.226  12
  -4   6  10-300.239 555.514   2
  -4  -6  10 570.522 602.869  11
  -4   6   9 928.049 493.134  16
  -4   6   8 26548.6 2335.53  16
  -4   6   7 273.082 368.803  16
  -4   6   6 53005.3 2978.55  16
  -4  -6   6 48972.1 2623.87  16
  -4   6   5 137.661 304.623  16
  -4  -6   5 197.418 283.282  16
  -4  -6   4 113492. 3712.15  16
  -4   6   4 115255. 3932.13  16
  -4  -6   4 103185. 3110.30  18
  -4   6   4 111100. 3662.90  17
  -4  -6   3 29377.1 1858.32  16
  -4  -6   3 24955.9 1617.84  17
  -4   6   3 28226.2 1835.10  17
  -4   6   3 26180.9 1826.16  16
  -4  -6   2 26155.2 1724.54  16
  -4   6   2 22990.9 1602.15  16
  -4   6   2 24254.0 1704.31  17
  -4  -6   2 21933.0 1562.31  17
   4   6  -1 45617.8 2451.82   1
  -4   6   1 46214.5 1671.85  18
  -4  -6   1 49169.2 2314.41  16
  -4   6   1 47341.7 2383.40  17
  -4   6   1 46338.2 2152.54  16
   4   6  -1 44529.8 1992.74  15
  -4  -6   0 5331.29 797.101  16
   4   6   0 4932.84 803.599   1
  -4   6   0 5445.44 712.028  16
  -4   6   0 4962.40 502.804  18
  -4  -6   0 4199.76 708.452  15
   4   6   0 3947.73 637.772  15
   4   6   1 3655.31 727.195   1
  -4   6  -1 3684.69 593.892  16
  -4  -6  -1 4111.57 721.752  16
   4   6   1 3114.89 592.249  15
   4  -6   2 5873.84 557.487  19
   4   6   2 4622.65 798.829   1
   4   6   2 4447.90 737.194  15
   4  -6   2 5032.41 493.931  20
  -4   6  -2 3614.59 510.768  16
   4  -6   3 92.4033 471.972  12
   4  -6   3 209.754 180.126  20
   4  -6   3 327.486 225.370  19
   4   6   3 39.5498 353.778   1
   4  -6   4 31095.4 1402.68  19
   4  -6   4 32009.0 1372.50  20
   4  -6   4 31707.7 2755.92  12
   4  -6   5 1852.71 798.920  12
   4  -6   5 1695.67 415.740  20
   4  -6   6 923.558 608.036  12
   4  -6   6 2084.64 435.916  20
   4  -6   7 5418.35 1379.53  12
   4   6   7 4830.10 1142.13  12
   4  -6   8-110.556 837.653  12
   4   6   8 15.6220 333.604  12
   4  -6   9-130.784 941.047  12
   4   6   9-92.9573 647.279  12
  -4  -6 -10 127.255 425.936   4
   4  -6  10 873.998 515.476  24
   4   6  10 2226.65 1135.60   2
   4  -6  10 1576.22 461.915  22
   4  -6  10 789.109 1002.51  12
   4   6  10 1107.13 464.384  24
   4  -6  11 6907.56 1978.82  12
   4   6  11 5035.51 1674.17   2
   4   6  11 5504.28 981.510  24
   4  -6  11 4674.53 750.485  22
   4   6  11 5087.71 1272.04   7
   4   6  12 12835.2 1466.81  24
   4   6  12 12408.2 2629.49   2
   4  -6  12 11967.1 1200.81  22
   4   6  13 1288.48 459.133  24
   4  -6  13 893.990 410.416  22
   4   6  14 4851.69 854.301  24
   4   6  14 5365.76 641.815  22
   4   6  15 2109.22 506.314  24
   4   6  16 770.772 306.060  24
  -4   7  16 993.700 591.974  11
  -4   7  16 1050.21 564.394  10
  -4  -7  16 955.227 523.528  10
  -4   7  15 476.162 398.263  11
  -4  -7  15-344.405 437.711  11
  -4  -7  15-20.2188 421.170  10
  -4   7  14 1417.50 841.455  11
  -4  -7  14 617.800 760.719  10
  -4  -7  14 155.101 482.288  11
  -4   7  13 200.883 640.577   2
  -4  -7  13-1067.81 771.897  11
  -4  -7  13-749.233 712.799  10
  -4   7  13 616.161 587.169  11
  -4  -7  12 154.910 517.663  10
  -4  -7  12 1116.47 960.240  11
  -4   7  12 806.488 887.342   2
  -4   7  11 33106.4 4179.28  12
  -4   7  11 34100.4 3983.06   2
  -4  -7  11 30746.5 3567.99  11
  -4  -7  11 36537.4 3914.25  10
  -4  -7  10 1708.76 859.769  11
  -4  -7  10 1853.47 1106.91  10
  -4   7   9 18541.2 2084.55  16
  -4   7   8 3714.84 917.401  16
  -4   7   7-118.236 344.011  16
  -4  -7   6 20607.8 1810.11  16
  -4   7   6 24789.5 2161.48  16
  -4  -7   5-154.969 371.647  16
  -4   7   5 433.167 329.187  16
  -4   7   4 5768.80 992.314  16
  -4  -7   4 4385.09 850.310  16
  -4   7   3 2314.32 649.494  16
  -4  -7   3 2882.78 655.443  16
  -4  -7   3 2604.47 612.740  17
   4   7  -2 11072.9 1362.80   1
  -4  -7   2 9864.81 1126.85  17
  -4  -7   2 11894.5 1257.16  16
  -4   7   2 12108.5 1257.12  16
   4   7  -2 9906.66 971.766  15
   4   7  -1 16880.5 1604.82   1
  -4  -7   1 16987.3 1511.51  16
  -4   7   1 17294.4 1408.20  16
   4   7  -1 14696.4 1251.84  15
  -4   7   0 4018.39 461.902  18
  -4  -7   0 4642.58 845.016  16
  -4   7   0 4516.14 711.576  16
   4   7   0 4553.43 849.004   1
   4   7   0 4350.37 730.143  15
   4   7   1 645.760 416.467   1
  -4  -7  -1 1129.42 432.354  16
  -4   7  -1 1371.40 405.786  16
   4  -7   2 5760.65 601.096  19
  -4   7  -2 4308.01 637.061  16
   4   7   2 4807.91 856.380   1
   4  -7   2 4670.96 497.929  20
   4  -7   3 5628.24 1212.86  12
   4   7   3 4866.26 909.628   1
   4  -7   3 5809.39 575.971  20
   4  -7   3 5665.61 635.056  19
   4  -7   4 30244.0 1467.94  19
   4  -7   4 32086.4 1418.42  20
   4  -7   4 34492.6 3017.60  12
   4  -7   5 230.680 597.532  12
   4  -7   5 282.423 227.073  20
   4  -7   6 26229.5 1437.33  20
   4  -7   6 24265.9 2815.56  12
   4  -7   7 40498.2 3776.65  12
   4  -7   8 432.287 760.463  12
   4  -7   9 14515.6 2586.99  12
  -4  -7  -9 12961.4 1729.90   4
  -4  -7 -10 3439.83 1005.25   4
   4   7  10 1993.47 643.449  24
   4   7  10 2807.25 1073.72   2
   4  -7  10 2532.26 562.281  22
   4  -7  10 4031.75 1588.69  12
   4   7  10 4013.27 1416.11   9
   4  -7  11 5425.70 1754.89  12
   4   7  11 4118.25 1417.54   2
   4   7  11 3626.59 796.407  24
   4  -7  11 3190.78 653.795  22
   4   7  11 4374.28 1219.36   7
   4   7  12 1327.91 700.332   7
   4   7  12 1523.79 536.245  24
   4  -7  12 1524.49 576.581  22
   4  -7  13 1056.01 647.365  22
   4   7  13-922.081 446.985  24
   4   7  14 387.541 356.148  24
   4   7  15 39.9017 274.996  24
   4   7  16-163.043 193.964  24
  -4   8  16-78.5942 275.950  11
  -4   8  16-336.965 424.726  10
  -4  -8  16 194.572 326.614  10
  -4  -8  15-494.230 435.702  11
  -4   8  15-10.0407 351.951  11
  -4  -8  15-1120.45 657.290  10
  -4   8  14 913.972 698.528   2
  -4  -8  14-592.866 543.764  11
  -4  -8  14 819.287 672.811  10
  -4   8  14 803.259 776.536  11
  -4   8  13 48.6880 599.587   2
  -4  -8  13-73.1897 494.962  11
  -4  -8  13-605.963 755.210  10
  -4   8  13-942.146 843.911  11
  -4  -8  12 676.813 611.913  11
  -4  -8  12 1084.61 823.918  10
  -4   8  12 242.792 590.103   2
  -4  -8  11 1052.02 811.499  11
  -4  -8  11 753.817 808.782  10
  -4  -8  10 427.708 428.617  10
  -4   8  10-395.122 603.476   2
  -4   8   9 993.349 566.703  16
  -4  -8   9 908.882 712.967  11
  -4   8   8 1006.84 602.154  16
  -4   8   7 7000.77 1308.70  16
  -4   8   6 15836.6 1807.25  16
  -4  -8   5 63.1255 332.030  16
  -4   8   5 531.890 327.925  16
  -4  -8   4 1643.55 574.412  16
  -4   8   4 2004.23 619.627  16
  -4   8   3 30507.6 2162.21  16
  -4  -8   3 29287.7 2054.77  16
   4   8  -2 22066.9 2011.76   1
  -4  -8   2 20328.4 1710.70  16
  -4   8   2 20569.3 1713.18  16
   4   8  -2 17115.1 1390.52  15
   4   8  -1 39276.2 2493.16   1
  -4  -8   1 40802.8 2397.43  16
   4   8   0 75195.2 3350.41   1
  -4  -8   0 80224.4 3381.88  16
   4   8   1 48044.9 2719.51   1
   4  -8   1 48025.6 1491.16  20
   4  -8   2 2183.11 366.373  20
   4  -8   2 2702.52 468.562  19
   4   8   2 2850.20 760.008   1
   4  -8   3 55190.2 1774.02  20
   4  -8   3 55430.4 1967.22  19
   4   8   3 55715.1 3066.65   1
   4  -8   3 56632.8 3746.15  12
   4  -8   4 1153.34 325.798  20
   4  -8   4 1216.63 356.692  19
   4  -8   4 1085.02 637.323  12
   4  -8   5 615.539 594.516  12
   4  -8   5 414.687 296.337  19
   4  -8   5 981.353 330.426  20
   4  -8   6 392.110 614.918  12
   4  -8   7 1571.78 852.368  12
  -4  -8  -8-1359.89 659.556   4
   4  -8   8-192.514 729.781  12
   4  -8   9 2646.19 1136.91  12
  -4  -8  -9 3554.43 983.675   4
   4  -8   9 4414.80 647.837  22
   4  -8  10 1752.92 1044.04  12
  -4  -8 -10 214.318 450.409   4
   4   8  10 598.732 439.224  24
   4   8  10 2868.02 1282.64   2
   4   8  10 862.780 827.289   9
   4  -8  10 726.864 412.974  22
   4   8  11 1955.03 1121.77   2
   4  -8  11 416.105 461.297  22
   4   8  11 503.788 379.654  24
   4   8  11 603.326 438.338   7
   4   8  12 202.372 627.481   2
   4   8  12-674.911 574.984   7
   4  -8  12 1535.31 669.706  22
   4   8  12 172.644 384.348  24
   4   8  13-27.4778 324.463   7
   4   8  13 306.713 322.691  24
   4   8  14-67.5448 291.545  24
   4   8  15 3501.20 617.285  24
  -4  -9  15 1660.73 662.621  11
  -4  -9  15 2600.02 893.918  10
  -4   9  15 2344.47 787.238  11
  -4   9  14 4333.98 1354.79   2
  -4  -9  14 4546.21 1170.62  11
  -4  -9  14 4722.67 1367.17  10
  -4   9  14 5612.65 1372.62  11
  -4   9  13 563.751 646.478   2
  -4  -9  13-286.868 656.988  11
  -4  -9  13 57.0256 626.277  10
  -4  -9  12 3470.55 1204.58  11
  -4  -9  12 4622.28 1485.96  10
  -4   9  12 4545.94 1526.24   2
  -4  -9  11 7806.76 1854.36  11
  -4  -9  11 8780.83 1973.07  10
  -4   9  11 9767.76 2125.23   2
  -4  -9  10 577.459 530.460  11
  -4  -9  10 734.681 677.745  10
  -4   9  10 1641.83 977.414   2
  -4  -9   9 3663.67 1231.89  11
  -4  -9   9 4486.06 1287.61  10
  -4   9   9 4087.12 1087.25  16
  -4   9   8-718.299 543.479  16
  -4   9   7 1006.57 560.539  16
  -4   9   6 2930.66 870.419  16
  -4   9   5 1226.77 451.727  16
  -4  -9   5-97.4220 353.648  16
  -4   9   4 2264.47 700.415  16
  -4  -9   4 1843.63 600.588  16
  -4  -9   3 353.599 357.078  16
  -4   9   3 485.834 443.402  16
   4   9  -3 897.703 653.112   1
   4   9  -2 2319.47 793.761   1
  -4  -9   2 2653.49 724.316  16
   4   9  -1 2023.86 748.652   1
  -4  -9   1 3425.09 808.568  16
   4   9   0 18712.5 1852.25   1
   4   9   1 111820. 4443.20   1
   4  -9   1 113544. 2366.17  20
   4  -9   2 2671.26 499.010  19
   4   9   2 1156.94 603.949   1
   4  -9   2 1638.66 352.853  20
   4  -9   3 96970.1 2822.13  19
   4  -9   3 98517.8 2454.29  20
   4   9   3 104839. 4476.17   1
   4  -9   4 40466.2 1659.01  20
   4  -9   4 43365.1 1935.41  19
   4  -9   4 42947.8 3634.74  12
   4  -9   5 328.442 329.539  19
   4  -9   5 390.040 248.251  20
   4  -9   5 1183.73 831.687  12
   4  -9   6 33238.0 3526.41  12
   4  -9   7 2194.79 969.195  12
   4  -9   8-651.256 935.617  12
  -4  -9  -8-261.399 529.347   4
   4  -9   9 1028.66 686.111  12
   4   9   9 1657.59 698.103   3
   4  -9   9 761.675 481.538  22
   4   9   9 1537.13 740.819   9
   4   9   9 2448.60 1183.51   2
   4  -9  10 7546.24 2110.60  12
   4   9  10 8369.20 2147.82   2
   4   9  10 7851.32 1169.66  24
   4   9  10 8769.97 1693.44   7
   4  -9  10 9477.26 1084.07  22
  -4  -9 -10 7316.62 1400.64   4
   4   9  10 8534.73 1933.50   9
   4   9  11 1139.52 674.273   7
   4   9  11 2601.72 1234.14   2
   4   9  11 2289.58 652.338  24
   4  -9  11 3888.71 843.756  22
   4   9  11 1225.23 815.484   9
   4   9  12 924.086 583.049   7
   4   9  12 1419.94 576.484  24
   4   9  12 960.594 956.859   2
   4   9  13 337.238 628.417   2
   4   9  13-254.357 416.053   7
   4   9  13-310.798 315.184  24
   4   9  14-21.9115 281.674  24
   4   9  15 241.718 210.383  24
  -4  10  15-402.380 448.325  11
  -4 -10  15-65.9172 372.811  10
  -4 -10  15 211.016 347.197  11
  -4  10  14 968.188 741.868   2
  -4 -10  14 10.5140 401.440  11
  -4  10  14 244.921 416.724  11
  -4 -10  14-89.4208 394.908  10
  -4 -10  13 1445.35 754.426  11
  -4  10  13 1370.63 1059.07   2
  -4 -10  13 309.035 631.791  10
  -4 -10  12 546.563 529.725  11
  -4 -10  12-693.066 705.948  10
  -4  10  12 1678.04 963.011   2
  -4 -10  11 37.7526 401.807  11
  -4 -10  11 306.014 593.957  10
  -4  10  11-52.1185 691.795   2
  -4 -10  10-1348.38 845.212  11
  -4  10  10-2072.00 1077.77   2
  -4 -10  10-909.349 748.596  10
  -4 -10   9 838.302 802.562  11
  -4 -10   9-613.178 685.587  10
  -4  10   9 560.840 456.725  16
  -4  10   8 6424.05 1369.54  16
  -4  10   7 1503.80 634.954  16
  -4  10   6 18118.4 2069.79  16
  -4 -10   5 2006.05 639.867  16
  -4  10   5 2012.51 645.387  16
  -4 -10   4 64823.0 3498.24  16
  -4  10   4 75451.4 3931.47  16
   4  10  -4 78257.2 4472.06   1
   4  10  -3 13809.3 1872.81   1
  -4 -10   3 13890.4 1610.40  16
  -4  10   3 16295.4 1765.72  16
   4  10  -2 332.836 441.646   1
  -4 -10   2 108.313 338.017  16
   4  10  -1 344.732 561.877   1
   4  10   0 91155.7 4108.56   1
   4  10   1 45886.6 2928.32   1
   4 -10   1 44663.2 1514.56  20
   4 -10   2 7617.67 669.360  20
   4  10   2 8007.70 1305.94   1
   4 -10   3 18176.1 1296.39  19
   4  10   3 16460.5 1903.98   1
   4 -10   3 16878.8 1025.90  20
   4 -10   4 19305.2 1379.20  19
   4 -10   4 19063.2 1151.15  20
   4 -10   5 1161.61 956.541  12
   4 -10   5 276.363 244.034  20
   4 -10   5 230.736 265.432  19
   4 -10   6 428.569 805.897  12
   4 -10   7-1462.97 938.417  12
  -4 -10  -7-241.802 434.434   4
   4 -10   8 912.782 849.591  12
  -4 -10  -8-72.5343 536.693   4
   4  10   9 1521.67 796.635   3
   4  10   9 387.112 700.023   2
   4 -10   9 3489.65 1555.88  12
   4 -10   9 3426.41 780.349  22
  -4 -10  -9 2441.47 909.950   4
   4  10   9 2854.46 1224.91   9
   4 -10  10-865.744 955.619  12
  -4 -10 -10-409.801 565.090   4
   4  10  10-90.4370 352.285  24
   4  10  10-762.445 810.273   2
   4  10  10-1254.20 842.345   9
   4  10  10 176.231 439.402   7
   4  10  11 678.892 532.327   7
   4  10  11-405.634 697.751   2
   4  10  11 1405.75 876.645   9
   4  10  11 279.850 293.124  24
   4  10  12 1090.58 868.426   2
   4  10  12 90.2953 425.258   7
   4  10  12 1644.86 586.829  24
   4  10  13 3264.03 1366.42   2
   4  10  13 1740.07 732.796   7
   4  10  13 1855.32 556.244  24
   4  10  14 1281.19 433.866  24
   4  10  14 1380.22 502.516   7
   4  10  15 174.264 228.036  24
  -4  11  15 1026.46 468.977  11
  -4 -11  15 345.004 427.932  10
  -4  11  14 2426.09 987.538   2
  -4 -11  14 1472.57 829.301  10
  -4 -11  14 1179.45 570.404  11
  -4  11  14 2400.02 835.005  11
  -4  11  13 392.849 650.056   2
  -4 -11  13 1597.57 846.371  11
  -4 -11  13 794.046 620.192  10
  -4 -11  12 8496.91 1854.24  11
  -4  11  12 6508.80 1794.27   2
  -4 -11  12 6885.06 1798.76  10
  -4  11  11-180.465 556.225   2
  -4 -11  11-516.020 753.681  11
  -4 -11  11 294.429 480.695  10
  -4 -11  10 4345.11 1356.93  11
  -4  11  10 4208.24 1521.01   2
  -4 -11  10 4904.83 1468.10  10
  -4 -11   9 199.109 648.515  10
  -4 -11   9 1438.95 867.821  11
  -4 -11   8 337.690 544.449  11
  -4  11   8-1389.03 785.459   3
  -4  11   8 121.406 661.488  16
   4 -11  -8 55.6269 278.438  21
  -4 -11   8 640.509 630.260  10
  -4  11   7 952.125 602.008  16
  -4  11   6 15280.5 2029.30  16
   4  11  -6 14242.2 2206.39   1
   4  11  -5 100.393 508.129   1
  -4  11   5 88.2714 440.763  16
   4  11  -4 9461.97 1688.99   1
  -4  11   4 10754.0 1596.86  16
   4  11  -3-601.797 593.376   1
   4  11  -2 2925.70 835.269   1
   4  11  -1 745.753 491.179   1
  -4 -11   0 2089.28 527.893   4
   4  11   0 2728.09 954.390   1
  -4 -11  -1 104.208 250.384   4
   4  11   1 671.768 556.509   1
   4  11   2 1138.48 568.316   1
   4 -11   3 16119.1 1305.18  19
   4  11   3 13557.9 1789.42   1
   4 -11   4 43843.9 2173.47  19
  -4 -11  -4 46043.0 3003.97   4
  -4 -11  -5 5696.11 1117.80   4
   4 -11   5 5387.25 855.379  19
   4 -11   6 117251. 6833.03  12
  -4 -11  -6 116308. 5211.07   4
   4 -11   7 897.397 734.020  12
  -4 -11  -7 1807.23 727.273   4
  -4 -11  -8-163.964 654.823   4
   4  11   8-246.815 451.642   3
   4  11   8-1120.13 855.993   9
   4 -11   8 837.133 711.449  12
   4  11   8-2056.06 1083.01   2
   4 -11   9 5040.55 1698.69  12
   4  11   9 4117.81 1499.06   2
   4  11   9 4608.90 1435.49   9
  -4 -11  -9 2061.86 806.907   4
   4  11   9 1141.27 946.020   3
   4  11  10 1775.90 801.323   7
   4  11  10 603.728 751.464   2
   4  11  10 1757.65 625.255  24
   4  11  11 1268.27 705.895   7
   4  11  11 115.130 354.785  24
   4  11  11 92.0042 508.474   2
   4  11  12 2968.56 1277.98   2
   4  11  12 5556.34 1213.75   7
   4  11  12 4798.47 931.819  24
   4  11  13 1009.32 800.830   2
   4  11  13 539.227 484.466   7
   4  11  13 225.132 318.179  24
   4  11  14 259.181 245.576  24
   4  11  15 276.220 246.778  24
  -4  12  15-52.1082 300.822  11
  -4 -12  15 791.433 517.352  10
  -4  12  14 411.907 555.315   2
  -4 -12  14 47.9885 320.713  11
  -4  12  14 44.0357 341.969  11
  -4 -12  13 73.1833 382.159  11
  -4  12  13 77.4605 467.367   2
  -4 -12  13 730.622 626.261  10
  -4 -12  12-208.170 471.532  11
  -4 -12  12-40.1462 610.226  10
  -4  12  12 3.63320 601.495   2
  -4 -12  11-94.0458 592.645  11
  -4  12  11 45.6138 769.168   2
  -4 -12  11 1060.16 825.987  10
  -4 -12  10 603.514 519.187  11
  -4 -12  10 524.615 476.254  10
  -4  12  10-801.858 808.570   2
  -4 -12   9-731.662 692.552  11
  -4 -12   9 1370.79 942.618  10
  -4  12   9 1043.55 653.327  16
   4  12  -9 45.0376 502.224   1
  -4 -12   8-147.769 502.694  11
  -4  12   8 629.578 550.278   3
  -4 -12   8-31.9174 734.600  10
   4 -12  -8 187.576 323.394  21
   4  12  -8 136.658 726.470   1
  -4  12   8-359.713 499.864  16
  -4 -12   7 3457.90 1180.71  11
   4 -12  -7 2992.44 683.226  21
  -4 -12   7 2435.87 1116.05  10
   4  12  -7 2683.79 1337.29   1
  -4  12   7 1423.35 795.498  16
   4  12  -6 50301.3 4250.07   1
  -4  12   6 56547.0 3950.50  16
  -4  12   5 2625.26 974.787  16
   4  12  -5 1749.26 816.771   1
   4  12  -4 13051.5 2001.46   1
  -4  12   4 15323.0 1945.24  16
   4  12  -3 61444.2 4072.24   1
   4  12  -2 2073.53 803.585   1
   4  12  -1 39929.3 3089.32   1
   4  12   0 560.405 517.497   1
   4  12   1 16364.7 1951.43   1
  -4 -12  -1 11054.1 1354.91   4
  -4 -12  -2-278.301 430.016   4
   4 -12   2-145.823 341.062  19
   4  12   2-269.233 468.136   1
  -4 -12  -3 14883.6 1713.01   4
   4 -12   3 16660.9 1418.23  19
   4  12   3 14568.8 1999.35   1
   4 -12   4 2366.24 611.916  19
  -4 -12  -4 2263.63 733.045   4
  -4 -12  -5 1389.96 637.102   4
   4 -12   5 1489.31 512.582  19
  -4 -12  -6 4831.28 1201.09   4
  -4 -12  -7-534.266 738.814   4
   4  12   7-58.5541 439.402   3
   4  12   7-619.365 698.199   9
   4 -12   8 1124.30 1262.15  12
  -4 -12  -8-253.897 634.335   4
   4  12   8 81.0052 454.499   3
   4  12   8-6.95619 804.126   9
   4 -12   9 511.457 806.096  12
  -4 -12  -9 1059.12 734.314   4
   4  12   9 1770.93 1031.19   2
   4  12   9 827.172 794.981   9
   4  12   9-30.0844 408.522   7
   4  12   9-290.616 510.045   3
   4  12  10 120.320 628.344   9
   4  12  10-696.646 609.580   3
   4  12  10-379.120 494.493   7
   4  12  10-142.835 393.892  24
   4  12  10 1170.77 923.919   2
   4  12  11 126.454 462.576   7
   4  12  11-625.123 418.339  24
   4  12  11-369.391 640.053   2
   4  12  12 6718.05 1903.80   2
   4  12  12 5834.08 1269.91   7
   4  12  12 6048.15 971.283  24
   4  12  13 677.449 942.897   2
   4  12  13-207.782 537.777   7
   4  12  13 697.236 385.887  24
   4  12  14 5041.40 702.439  24
  -4  13  14 572.412 570.665   2
  -4 -13  14 913.816 554.381  10
  -4  13  14-591.205 463.472  11
  -4  13  13 842.492 794.865   2
  -4 -13  13 510.021 509.002  10
  -4 -13  12 333.840 393.610  11
  -4  13  12-63.9090 589.068   2
  -4 -13  12 897.520 1038.34  10
  -4 -13  11 5243.64 1477.95  11
  -4  13  11 5119.39 1729.12   2
  -4 -13  11 4857.17 1505.76  10
  -4 -13  10 1811.13 979.069  11
  -4 -13  10 1921.47 998.519  10
  -4  13  10 2871.22 1335.96   2
  -4 -13   9 6610.90 1703.94  11
  -4 -13   9 6704.43 1782.58  10
  -4 -13   8 1390.57 988.628  11
  -4  13   8 1836.06 878.637   3
  -4 -13   8 2815.58 1086.91  10
   4 -13  -8 3216.55 768.103  21
   4  13  -8 1783.41 963.701   1
  -4  13   8 581.924 690.716  16
  -4  13   7 84.9976 437.951  16
  -4 -13   7 122.277 709.910  11
   4 -13  -7 844.124 502.553  21
  -4 -13   7 140.941 527.143  10
  -4  13   7 118.372 556.694   3
   4  13  -7-54.6135 562.585   1
   4 -13  -6 3818.59 834.530  21
   4  13  -6 3474.01 1252.05   1
  -4  13   6 4667.08 1264.80  16
  -4 -13   6 5712.51 1581.52  11
   4  13  -5 7170.05 1600.21   1
  -4  13   5 8911.03 1635.51  16
  -4  13   4 2084.64 818.406  16
   4  13  -4 1315.34 749.625   1
   4  13  -3-140.217 822.156   1
   4  13  -2 1244.84 537.856   1
   4  13  -1 10656.7 1795.87   1
   4  13   0 1147.53 788.322   1
  -4 -13  -1 8290.59 1232.43   4
   4  13   1 9851.40 1586.34   1
   4 -13   2 4017.49 764.981  19
  -4 -13  -2 2957.43 802.952   4
   4  13   2 4188.55 1131.67   1
   4 -13   3 19340.1 1533.43  19
  -4 -13  -3 18700.7 2044.70   4
  -4 -13  -4 8432.40 1451.48   4
   4 -13   4 6808.11 975.163  19
  -4 -13  -5 2217.28 742.552   4
   4 -13   5 3525.40 728.167  19
  -4 -13  -6 2670.43 936.627   4
   4  13   6 2537.50 1083.90   9
  -4 -13  -7 9868.05 1700.23   4
   4 -13   7 11842.7 2216.70   8
   4  13   7 8013.66 1781.30   3
   4  13   7 8956.39 1989.49   9
  -4 -13  -8 314.284 644.580   4
   4  13   8 1264.85 768.200   3
   4  13   8-385.990 641.678   9
   4  13   8-2562.90 1239.81   2
   4  13   8-2520.36 962.921   7
   4  13   9 7100.07 1560.35   7
   4  13   9 6432.63 1725.99   9
   4  13   9 10131.4 2009.48   3
   4  13   9 10044.5 2333.79   2
   4  13  10-80.9563 460.953   3
   4  13  10 1573.85 830.264   7
   4  13  10 1301.44 528.813  24
   4  13  10 1681.84 1008.43   2
   4 -13  10 1187.90 747.790  10
   4  13  11 4066.03 1182.85   7
   4  13  11 3919.23 844.822  24
   4  13  11 4158.63 1347.17   2
   4  13  12 854.607 670.804   2
   4  13  12 218.844 505.649   7
   4  13  12-11.6786 298.008  24
   4  13  13 219.312 393.486   7
   4  13  13-342.870 317.243  24
   4  13  14 1091.12 343.946  24
  -4  14  14 315.194 374.021   2
  -4  14  14 612.749 434.966  11
  -4 -14  14 623.985 414.040  10
  -4 -14  13 458.548 445.337  11
  -4  14  13 452.136 456.580   2
  -4 -14  13 218.248 607.676  10
  -4 -14  12-609.743 555.484  11
  -4 -14  12 1357.19 820.631  10
  -4  14  12 270.532 718.840   2
  -4 -14  11 194.909 513.362  11
  -4  14  11-371.786 570.875   2
  -4 -14  11 685.768 663.654  10
  -4 -14  10 665.189 642.277  11
  -4 -14  10-196.480 625.815  10
  -4  14  10-969.461 835.404   2
  -4 -14   9 4422.23 1301.63  11
  -4 -14   9 2554.79 1191.08  10
   4  14  -8 641.450 559.860   1
  -4  14   8-42.0718 444.240   3
   4 -14  -8-109.192 361.911  21
  -4 -14   8 1403.03 877.539  11
  -4  14   8 78.9826 404.160  16
  -4 -14   8 763.989 716.728  10
  -4 -14   7-346.818 657.670  11
  -4 -14   7 526.215 768.933  10
   4 -14  -7-102.748 317.192  21
  -4  14   7-1238.06 731.726   3
  -4  14   7 255.494 533.702  16
   4  14  -7 672.622 588.469   1
  -4 -14   6-1306.96 811.605  11
  -4  14   6 556.583 611.145   3
  -4 -14   6-62.6272 552.160  10
   4  14  -6-431.443 817.849   1
   4 -14  -6 605.077 439.120  21
  -4  14   6 120.946 477.709  16
  -4 -14   5-893.811 721.970  11
   4  14  -5-329.241 752.768   1
   4 -14  -5 310.591 336.374  21
  -4  14   5-171.313 411.958  16
  -4  14   4 3130.16 1077.04  16
   4  14  -4 3941.34 1288.33   1
   4  14  -3 4141.18 1245.34   1
  -4  14   3 3866.49 1071.03  16
   4  14  -2 42415.3 3578.00   1
   4  14  -1 47850.4 3745.99   1
   4  14   0 913.459 662.410   1
   4  14   1 26493.3 2690.55   1
  -4 -14  -2 2149.01 780.337   4
   4  14   2 1415.21 622.314   1
   4 -14   2 2869.02 649.172  19
  -4 -14  -3 1217.06 603.889   4
   4 -14   3 1133.97 489.559  19
  -4 -14  -4-21.7059 460.165   4
   4 -14   4 299.796 379.796  19
  -4 -14  -5 168.974 422.450   4
   4 -14   5 1119.51 498.817  19
   4  14   5 827.200 581.990   3
   4  14   5 286.224 601.476   9
  -4 -14  -6-159.642 443.302   4
   4  14   6-167.261 470.116   3
   4  14   6 667.215 757.087   9
  -4 -14  -7 190.367 495.249   4
   4  14   7-2007.30 882.556   7
   4 -14   7 2717.25 1076.24  10
   4  14   7 1840.25 783.356   3
   4  14   7-214.054 676.806   9
   4 -14   7 1468.93 872.123   8
  -4 -14  -8 2259.36 936.198   4
   4  14   8 1912.05 920.843   3
   4 -14   8 2788.57 1181.74  10
   4  14   8 1202.53 708.782   7
   4  14   9 4128.81 1226.98   7
   4  14   9 2731.27 1095.82   3
   4  14   9 4191.31 1556.10   2
   4 -14   9 5026.39 1396.67  10
   4  14  10 481.008 720.429   3
   4  14  10 312.481 409.047   7
   4 -14  10 1852.31 874.307  10
   4  14  10 206.408 322.458  24
   4  14  10 168.647 533.505   2
   4  14  11 1035.06 665.221   7
   4  14  11 1269.96 515.065  24
   4  14  11 1616.25 961.282   2
   4  14  12 17.0807 326.930   7
   4  14  12-154.729 277.751  24
   4  14  13 110.396 368.602   7
   4  14  13-422.692 321.234  24
   4  14  14 1047.04 326.905  24
  -4  15  13 9.10911 515.953   2
  -4  15  13-202.728 417.574  11
  -4 -15  13 634.377 511.401  10
  -4 -15  12 2510.88 963.299  10
  -4 -15  12 3460.70 1057.67  11
  -4  15  12 1816.86 841.193   2
  -4 -15  11 1487.88 735.750  11
  -4 -15  11 1890.52 968.858  10
  -4  15  11 1004.01 757.050   2
  -4 -15  10 3202.27 1162.19  10
  -4 -15  10 2258.60 1005.97  11
  -4  15  10 467.900 620.145   2
  -4 -15   9 14992.1 2384.64  11
  -4 -15   9 13418.1 2398.67  10
  -4 -15   8 13714.7 2364.78  11
  -4  15   8 17706.9 2564.15   3
  -4 -15   8 18753.0 2877.06  10
   4 -15  -8 16901.2 1715.12  21
  -4 -15   7 3149.47 1198.95  11
   4  15  -7 2130.98 914.269   1
   4 -15  -7 2538.76 705.004  21
  -4  15   7 1824.85 891.949   3
  -4 -15   7 4859.19 1454.22  10
  -4  15   7 2940.28 886.982  16
   4  15  -6 134.787 610.717   1
  -4 -15   6 1140.45 671.542  11
  -4  15   6 378.999 655.063  16
  -4  15   6 856.118 668.483   3
  -4 -15   6 1567.68 875.945  10
   4 -15  -6 289.270 369.551  21
  -4 -15   5 2400.10 1105.18  11
  -4  15   5 1151.84 730.403   3
  -4 -15   5 1863.72 964.306  10
   4 -15  -5 2007.39 617.862  21
  -4  15   5 1835.35 903.328  16
   4  15  -5 3410.38 1172.86   1
  -4 -15   4-729.392 650.716  11
  -4 -15   4 22.2397 416.238  10
   4 -15  -4 555.299 446.046  21
   4  15  -4-73.6118 468.954   1
  -4  15   4 157.014 504.709  16
   4  15  -3-100.362 493.904   1
  -4  15   3-319.456 468.584  16
   4  15  -2 798.129 664.916   1
   4  15  -1 2930.61 1083.21   1
   4  15   0 3988.91 1299.06   1
   4  15   1 462.216 569.880   1
  -4 -15  -2 3042.87 908.963   4
   4 -15   2 3514.16 760.734  19
   4  15   2 3857.18 1157.42   1
  -4 -15  -3 1178.86 605.340   4
   4 -15   3 678.556 477.218  19
  -4 -15  -4 12720.6 1847.04   4
   4  15   4 12881.8 2144.38   3
   4 -15   4 12348.8 1370.73  19
  -4 -15  -5 639.974 664.687   4
   4 -15   5 573.164 618.598  10
   4  15   5-1114.22 698.595   7
   4 -15   5 216.364 303.970  19
   4  15   5-601.402 580.788   3
  -4 -15  -6 191.322 464.283   4
   4  15   6-796.547 626.834   7
   4  15   6 1097.34 807.043   3
   4 -15   6-439.846 562.498  10
  -4 -15  -7 371.760 636.797   4
   4 -15   7 821.481 771.201   8
   4  15   7 1870.74 1039.76   3
   4  15   7 168.774 466.338   7
   4 -15   7 1361.44 849.331  10
   4  15   8 1049.41 849.930   7
   4 -15   8 960.522 742.587  10
   4  15   8-1091.43 823.434   2
   4  15   8 1713.79 989.683   3
   4  15   9 4799.11 1293.25   7
   4 -15   9 4068.20 1267.64  10
   4  15   9 6640.08 1920.25   2
   4  15   9 4679.24 1455.48   3
   4  15  10 673.246 600.492   3
   4  15  10 575.713 511.143   7
   4 -15  10 367.642 523.216  10
   4  15  10 151.268 459.670   2
   4  15  10 549.038 326.415  24
   4  15  11 141.087 460.420   7
   4  15  11 976.242 728.235   2
   4  15  11 31.1650 302.406  24
   4  15  12 3657.16 1191.84   2
   4  15  12 2283.09 829.389   7
   4  15  12 2504.36 592.311  24
   4  15  13 91.0108 196.111  24
  -4  16  13-404.864 508.739   2
  -4  16  13 853.399 494.056  11
  -4 -16  13 39.4495 331.698  10
  -4 -16  12 147.407 382.427  10
  -4  16  12 126.416 426.931   2
  -4 -16  11-447.926 495.686  11
  -4 -16  11-229.036 464.171  10
  -4  16  11-462.217 557.370   2
  -4 -16  10 2128.14 944.140  10
  -4  16  10 333.223 492.558   2
  -4 -16  10 1950.56 875.713  11
  -4 -16   9 236.645 474.427  11
  -4 -16   9 461.062 553.867  10
  -4 -16   8 7396.66 1736.02  11
  -4  16   8 8256.69 1697.44   3
   4 -16  -8 9286.12 1287.69  21
  -4 -16   8 6575.74 1752.57  10
  -4 -16   7-163.276 489.741  11
  -4 -16   7 288.779 553.117  10
   4 -16  -7-219.378 321.894  21
  -4  16   7-811.011 659.183   3
  -4 -16   6 3989.01 1349.60  11
  -4  16   6 4427.02 1344.50   3
   4 -16  -6 5204.66 984.033  21
   4  16  -6 6454.92 1655.84   1
  -4 -16   6 4698.57 1381.31  10
  -4  16   6 4619.25 1200.98  16
  -4 -16   5-220.964 751.374  11
  -4  16   5 44.4651 424.838  16
  -4  16   5 700.801 606.990   3
  -4 -16   5-500.432 609.796  10
   4  16  -5 43.5528 557.957   1
   4 -16  -5 617.558 473.385  21
   4  16  -4 24920.7 3023.04   1
  -4 -16   4 23580.5 3051.27  10
   4 -16  -4 25492.5 2065.48  21
  -4 -16   4 24052.6 3092.44  11
  -4  16   4 21533.2 2677.75  16
  -4 -16   4 21815.9 1910.91  25
  -4 -16   3-2295.41 1002.87  10
   4  16  -3-820.202 825.176   1
  -4 -16   3-838.538 686.615  11
   4 -16  -3 70.3448 248.518  21
  -4 -16   3-273.020 500.088  25
  -4  16   3 46.3751 561.565  16
   4  16  -2 1654.07 903.287   1
  -4 -16   2 548.659 444.911  11
   4 -16  -2 1046.70 452.626  21
  -4  16   2-107.475 562.244  16
  -4 -16   2-124.666 382.009  25
  -4 -16   1 2547.69 1108.37  11
  -4 -16   1 1391.10 595.774  25
  -4  16   1 2067.12 870.774  16
   4  16  -1 1989.12 876.792   1
  -4 -16   0 1571.67 540.028  25
   4  16   0 1363.67 805.059   1
  -4  16   0 1327.94 659.647  16
  -4 -16  -1 8807.70 1255.12  25
   4  16   1 7482.54 1619.34   1
   4  16   1 7630.02 1586.56   3
   4 -16   2 1502.46 840.431  10
   4  16   2 938.730 582.275   1
   4 -16   2 2061.42 617.102  19
   4  16   2 2742.04 1077.85   3
  -4 -16  -3-98.1062 360.305   4
   4 -16   3 866.647 386.915  19
   4  16   3 1287.91 692.921   3
   4 -16   3 107.343 451.685  10
  -4 -16  -4 4183.08 1059.94   4
   4 -16   4 6813.90 1049.02  19
   4  16   4 6505.27 1524.41   3
   4 -16   4 5855.74 1495.33  10
  -4 -16  -5-152.347 485.516   4
   4 -16   5 72.0736 316.195  19
   4  16   5 120.465 446.253   7
   4  16   5-154.490 461.791   3
   4 -16   5-115.182 740.389  10
  -4 -16  -6 1309.91 609.276   4
   4  16   6 2006.56 718.761   7
   4  16   6 1302.35 662.500   3
   4 -16   6 1227.69 851.688  10
   4 -16   7 608.630 685.581   8
   4  16   7 765.744 639.359   7
   4 -16   7 842.195 826.283  10
   4  16   7-927.694 713.713   3
   4 -16   8 1487.78 622.334   8
   4  16   8-582.754 659.403   7
   4  16   8 440.817 577.585   3
   4 -16   8 1026.76 751.221  10
  -4 -16  -8 886.141 387.629  21
   4  16   9 1323.28 784.498   7
   4  16   9 608.440 684.051   3
   4  16   9 1207.11 872.757   2
   4 -16   9 1112.49 657.037  10
   4  16  10 827.680 554.909   7
   4  16  10 415.475 370.025  24
   4 -16  10 1130.39 686.986  10
   4  16  10 429.724 635.452   2
   4  16  11-97.1487 340.677   7
   4  16  11-82.3200 312.493  24
   4  16  11 294.869 451.766   2
   4  16  12 4163.91 1104.52   2
   4  16  12 3376.54 835.866   7
   4  16  12 3754.31 660.098  24
   4  16  13 298.957 188.401  24
  -4  17  12 115.537 435.901   2
  -4 -17  12-108.529 363.978  10
  -4 -17  11 2670.21 895.606  11
  -4 -17  11 3190.34 1055.16  10
  -4  17  11 2555.51 923.112   2
  -4 -17  10 227.207 521.225  11
  -4 -17  10-172.089 460.871  10
  -4  17  10-113.092 707.468   2
  -4 -17   9 92.3299 463.591  10
  -4 -17   9 409.005 517.224  11
  -4 -17   8 6978.21 1617.13  11
  -4  17   8 3342.28 1146.23   3
  -4 -17   8 5778.72 1549.45  10
   4 -17  -8 4745.56 902.033  21
  -4 -17   7-949.002 732.346  11
  -4  17   7 1212.86 812.068   3
  -4 -17   7 712.164 665.258  10
   4 -17  -7 49.6825 325.297  21
  -4  17   6 7471.53 1651.57   3
  -4 -17   6 7029.20 1718.36  11
  -4 -17   6 8562.93 1917.65  10
   4 -17  -6 9989.74 1368.68  21
  -4 -17   5 149.645 754.326  11
  -4  17   5-67.2603 581.532   3
  -4 -17   5 715.953 689.185  10
   4 -17  -5 362.403 374.083  21
  -4 -17   4 718.885 589.562  11
   4  17  -4 244.356 766.304   1
  -4 -17   4 456.397 433.166  25
  -4 -17   4-898.620 707.207  10
   4 -17  -4 935.794 391.798  21
  -4  17   4 316.580 521.046  16
   4  17  -3 147.823 548.930   1
  -4 -17   3-279.139 501.347  11
  -4 -17   3 378.500 600.464  10
  -4 -17   3-354.329 322.023  25
   4 -17  -3 296.724 378.402  21
  -4  17   3 77.0437 395.873  16
  -4 -17   2 1542.96 632.902  25
  -4 -17   2 2330.67 1066.74  10
   4 -17  -2 1878.49 555.606  21
  -4 -17   2 862.476 708.047  11
  -4  17   2 1489.59 684.299  16
   4  17  -2 750.465 787.213   1
  -4 -17   1 2673.88 1097.08  11
  -4 -17   1 723.685 461.128  25
  -4 -17   1 988.933 655.321  10
   4  17  -1 810.546 720.347   1
  -4  17   1 343.711 376.669  16
   4  17   0 503.244 536.483   3
   4  17   0 259.292 629.223   1
  -4 -17   0 201.473 407.213  25
   4 -17   1-305.337 385.712  19
   4  17   1 274.053 626.574   1
   4  17   1-721.260 591.964   3
   4 -17   2 339.098 721.076  10
   4  17   2 471.914 725.767   3
   4 -17   2 202.671 379.369  19
  -4 -17  -3 439.708 461.062   4
   4  17   3 183.795 430.683   3
   4 -17   3 1017.00 816.937  10
   4 -17   3 115.458 289.904  19
   4  17   4 28995.0 3246.97   3
   4 -17   4 28609.2 3301.51  10
   4 -17   4 25684.1 1959.20  19
  -4 -17  -4 27897.1 2777.57   4
  -4 -17  -5 2923.77 1059.06   4
   4  17   5 2416.05 963.759   7
   4 -17   5 945.604 448.659  19
   4 -17   5 1433.79 543.622  10
   4  17   5 3164.24 1127.81   3
   4  17   6 988.537 767.199   7
   4 -17   6 2737.28 1051.78  10
   4  17   6 2517.14 1029.01   3
   4 -17   7 6237.65 1777.01   8
   4  17   7 7497.80 1551.71   7
   4  17   7 5702.93 1523.01   3
   4 -17   7 6933.84 1591.61  10
   4 -17   8 6625.43 1783.06   8
   4  17   8 8774.14 1702.85   7
   4  17   8 6870.64 1595.86   3
  -4 -17  -8 7617.05 1075.16  21
   4 -17   8 9676.46 1876.42  10
   4  17   9 2481.97 891.232   7
   4  17   9 1702.72 849.680   3
   4 -17   9 4776.09 1316.20  10
   4  17  10 1109.04 487.793   7
   4  17  10 868.615 440.180  24
   4  17  10 1165.32 708.956   2
   4  17  11 332.595 269.752  24
   4  17  11-212.020 407.858   2
   4  17  11 405.747 462.403   7
   4  17  12-144.101 192.617  24
  -4 -18  12-189.230 391.623  10
  -4  18  12-195.627 324.386   2
  -4 -18  11 446.700 464.285  10
  -4  18  11 513.843 505.365   2
  -4  18  10-43.1571 677.536   2
  -4 -18  10-570.226 650.584  10
  -4 -18  10 52.5053 345.060  11
  -4 -18   9 987.840 647.934  11
  -4 -18   9 554.011 448.219  10
  -4 -18   8 2833.95 1099.19  11
  -4 -18   8 2415.77 1000.98  10
   4 -18  -8 2702.36 665.540  21
  -4 -18   7 1963.30 837.750  11
  -4  18   7 3224.22 1119.63   3
   4 -18  -7 3322.07 792.927  21
  -4 -18   7 2136.33 990.970  10
  -4 -18   6 5981.74 1559.83  11
   4 -18  -6 5946.30 1024.73  21
  -4 -18   6 5821.51 1558.78  10
  -4  18   6 3880.14 1230.36   3
  -4 -18   5 4318.13 1341.38  11
  -4  18   5 3581.26 1096.64   3
   4 -18  -5 3343.32 785.502  21
  -4 -18   5 2353.01 1071.27  10
  -4 -18   4 1311.22 896.027  11
  -4 -18   4-301.825 637.891  10
   4 -18  -4 91.2896 264.790  21
  -4 -18   4 140.064 406.720  25
  -4 -18   3 11534.1 1447.82  25
  -4 -18   3 13294.2 2385.05  11
  -4 -18   3 14439.5 2458.01  10
   4 -18  -3 14735.5 1565.06  21
  -4  18   3 13393.1 2114.75  16
   4  18  -3 15126.9 2398.76   1
  -4 -18   2 3514.66 1244.20  11
  -4 -18   2 2567.33 1092.49  10
   4 -18  -2 3791.20 774.463  21
  -4 -18   2 2394.04 672.387  25
   4  18  -2 3593.90 1311.41   1
  -4  18   2 3846.93 1121.56  16
   4  18  -1 11360.7 2072.39   1
  -4  18   1 11637.7 1881.02  16
   4  18   0 6726.89 1587.49   1
   4  18   0 6181.59 1496.35   3
   4  18   1 2802.27 1022.29   1
   4 -18   1 2765.36 723.786  19
   4  18   1 2331.92 981.888   3
   4 -18   2-153.517 315.588  19
   4  18   2 20.7482 535.394   3
   4 -18   3 424.691 358.554  19
   4  18   3 580.702 620.843   3
   4 -18   4 1756.09 740.174  10
   4  18   4 1416.17 809.095   3
   4 -18   5 1709.75 991.837  10
   4  18   5 1237.17 736.322   3
   4 -18   6 2272.89 1090.78   8
   4  18   6 1033.56 649.419   7
   4 -18   6 1024.59 535.636  10
   4  18   6 1051.08 757.303   3
   4 -18   7 2528.55 1188.77   8
   4  18   7 957.728 682.938   7
   4  18   7 494.553 647.564   3
   4 -18   7 425.797 542.150  10
   4 -18   8-536.540 642.808   8
   4  18   8 235.039 447.691   7
   4 -18   8 2.78669 564.280  10
  -4 -18  -8-98.4107 250.463  21
   4  18   8-185.366 433.889   3
   4  18   9 5219.41 1177.02   7
   4  18   9 4082.09 1196.87   3
   4 -18   9 5759.21 1327.39  10
  -4 -18  -9 4709.04 803.209  21
   4  18  10 33.9680 339.078   7
   4  18  10 780.014 362.797  24
   4  18  11 558.865 296.118  24
   4  18  12 516.817 266.529  24
  -4 -19  11 1423.31 611.165  10
  -4  19  11 1093.41 614.114   2
  -4 -19  10-90.1122 349.987  10
  -4  19  10 468.265 508.446   2
  -4 -19   9 4782.68 1145.64  11
  -4 -19   9 5027.16 1306.37  10
  -4 -19   8 805.063 622.821  11
  -4 -19   8 660.896 661.045  10
  -4 -19   7 2966.54 1060.80  11
  -4  19   7 3172.79 1088.00   3
  -4 -19   7 1722.26 882.060  10
   4 -19  -7 3442.95 759.425  21
   4 -19  -7 2961.09 1065.61   5
  -4 -19   6 1437.59 699.304  11
  -4  19   6-394.146 502.503   3
   4 -19  -6 857.372 398.563  21
  -4 -19   6 1646.98 937.620  10
  -4 -19   5 2286.29 1003.38  11
  -4 -19   5 2646.47 1111.82  10
  -4  19   5 3437.50 1080.95   3
   4 -19  -5 2276.15 706.980  21
  -4 -19   4 337.095 537.836  11
  -4 -19   4 1046.83 839.077  10
   4 -19  -4 1177.72 465.562  21
  -4 -19   3 1420.95 914.082  11
  -4 -19   3 872.076 750.256  10
   4 -19  -3 1983.28 652.269  21
   4 -19  -2 865.093 419.198  21
  -4 -19   2 518.588 688.818  10
   4  19  -1 1078.42 744.245   3
   4  19   0 721.843 687.458   3
   4  19   1 10057.6 1874.26   3
   4  19   2 718.559 719.034   3
   4  19   3-31.9487 367.853   3
   4 -19   4 180.652 485.912  10
   4  19   4 87.3582 440.539   3
   4 -19   5 10378.2 2133.23   8
   4  19   5 11097.2 2047.98   3
   4 -19   5 12236.7 2177.44  10
   4 -19   6 442.498 464.071   8
   4 -19   6 1205.38 749.451  10
   4  19   6 581.582 596.990   3
   4 -19   7 4565.83 1425.69   8
   4  19   7 3979.00 1066.10   7
   4  19   7 3585.14 1074.99   3
  -4 -19  -7 6955.23 1027.09  21
   4 -19   7 6432.55 1448.25  10
   4 -19   8 819.102 447.348   8
   4  19   8-168.351 451.821   7
   4  19   8-339.802 457.234   3
  -4 -19  -8 205.597 273.115  21
   4  19   9 5973.87 1192.85   7
   4  19   9 6376.77 1365.26   3
  -4 -19  -9 5049.43 769.367  21
   4  19  10 401.812 278.425  24
   4  19  11 1596.41 376.173  24
  -4 -20  10 508.266 393.343  10
  -4  20  10 950.875 563.763   2
  -4 -20   9 646.833 466.146  11
  -4 -20   9 283.154 444.724  10
  -4  20   9 385.074 473.780   2
  -4 -20   8-983.379 597.887  11
  -4 -20   8-101.362 395.763  10
  -4 -20   7 1081.44 666.975  11
  -4  20   7 521.525 544.163   3
   4 -20  -7 1241.42 457.326  21
   4 -20  -7 2083.01 812.171   5
  -4 -20   7 939.035 624.916  10
  -4 -20   6 5913.83 1488.97  10
   4 -20  -6 5947.06 973.620  21
  -4 -20   6 5141.72 1357.55  11
  -4  20   6 8000.94 1570.46   3
  -4 -20   5 4723.92 1332.45  11
  -4 -20   5 4058.12 1371.95  10
   4 -20  -5 3558.04 804.402  21
  -4  20   5 4737.52 1285.20   3
  -4 -20   4 4185.33 1321.95  10
   4 -20  -4 3807.17 816.748  21
  -4 -20   3 3926.37 1289.31  10
   4 -20  -3 2805.94 682.417  21
   4  20  -2 33.8883 384.170   3
   4 -20  -2 1080.77 431.585  21
   4 -20  -1 2674.81 1049.35   8
   4  20  -1 2739.31 1015.75   3
   4  20   0 7.40514 462.709   3
   4  20   1 14292.5 2271.58   3
   4  20   2 5620.91 1498.10   3
   4  20   3 841.202 669.663   3
   4  20   4 1249.29 749.302   3
   4 -20   4 789.026 665.071   8
   4 -20   5-399.149 596.876   8
   4 -20   5-411.497 524.129  10
   4  20   5 68.1062 442.637   3
   4 -20   6 147.706 666.950   8
   4 -20   6 355.310 521.071  10
   4  20   6 330.253 515.068   3
   4 -20   7-574.253 606.647   8
   4  20   7-190.111 477.066   7
   4  20   7 634.445 645.577   3
   4 -20   7-896.960 625.720  10
  -4 -20  -7 162.793 296.670  21
   4 -20   8 1982.69 859.103   8
   4  20   8 1080.19 523.499   7
   4 -20   8 291.928 433.695  10
  -4 -20  -8 1637.98 471.820  21
   4  20   8 2088.84 860.908   3
   4  20   9 121.968 335.369   3
   4  20   9-382.823 307.126  24
  -4 -20  -9 574.820 326.244  21
   4  20  10-49.2143 167.504  24
  -4  21  10 269.425 338.194   2
  -4 -21   9 1492.35 600.005  10
  -4  21   9 824.699 542.227   2
  -4 -21   8 1989.63 808.850  10
   4 -21  -7 824.396 585.549   5
  -4 -21   7-300.192 407.430  10
  -4  21   6 5164.22 1216.62   3
   4 -21  -6 5591.76 898.870  21
  -4 -21   6 4728.13 1306.36  10
  -4 -21   5 110.291 613.526  10
   4 -21  -5 92.1271 277.114  21
   4 -21  -4-15.1670 275.878  21
  -4 -21   4-701.338 644.330  10
   4  21  -3 886.722 621.832   3
   4 -21  -3 14.9488 268.551  21
   4 -21  -2 1489.98 488.715  21
   4  21  -2 1833.77 734.070   3
   4 -21  -1 953.221 724.233   8
   4  21  -1 542.865 472.730   3
   4 -21   0 1640.70 942.276   8
   4  21   0 888.553 772.800   3
   4 -21   1-479.749 520.558   8
   4  21   1-405.885 522.496   3
   4 -21   2 1103.71 635.023   8
   4  21   2 2292.03 884.339   3
   4 -21   3 824.366 687.198   8
   4  21   3 437.998 505.993   3
   4 -21   4 130.419 612.595   8
   4  21   4 475.605 541.501   3
   4 -21   5-63.7509 440.774   8
   4  21   5 8.01271 421.905   3
   4 -21   6 10538.3 2001.41   8
   4  21   6 12232.0 1928.35   3
  -4 -21  -6 12223.0 1287.70  21
  -4 -21  -7 153.788 235.881  21
   4  21   7 723.407 653.990   3
   4 -21   8 4569.44 1131.28   8
   4  21   8 3338.70 930.543   3
  -4 -21  -8 3645.82 649.371  21
  -4 -21  -9 275.935 222.297  21
   4  21   9 326.319 253.050  24
   4  22  -9 538.113 348.230   3
  -4  22   9 264.886 328.886   2
   4  22  -8 539.800 366.681   3
  -4 -22   8 405.049 371.157  10
   4  22  -7 896.209 480.292   3
   4 -22  -7 68.0128 326.269   5
  -4 -22   7 720.998 514.693  10
   4  22  -6 4988.79 1135.20   3
   4 -22  -6 5388.81 825.813  21
   4 -22  -6 6077.70 1270.98   5
   4  22  -5-366.774 531.326   3
   4 -22  -5 326.269 327.926  21
   4 -22  -4-78.9644 235.767  21
   4  22  -4 376.028 562.194   3
   4  22  -3 15295.9 2210.82   3
   4 -22  -3 13463.6 1325.48  21
   4  22  -2 10240.8 1837.82   3
   4  22  -1 1209.52 716.689   3
   4 -22  -1 2865.42 1043.98   8
   4 -22   0 379.843 544.113   8
   4  22   0 640.882 590.603   3
   4 -22   1 662.283 579.928   8
   4  22   1-127.992 462.631   3
   4 -22   2 4726.51 1391.02   8
   4  22   2 2299.86 882.503   3
   4 -22   3 991.887 776.189   8
   4  22   3 1243.59 690.519   3
   4 -22   4 1408.38 758.497   8
   4  22   4 1690.98 772.956   3
   4 -22   5 335.663 416.471   8
   4  22   5 65.5963 420.625   3
   4 -22   6-143.954 379.029   8
  -4 -22  -6 97.4915 232.085  21
   4  22   6-92.7571 321.239   3
   4  22   7 1134.87 669.154   3
  -4 -22  -7 335.172 268.131  21
   4 -22   8 1305.00 543.679   8
   4  22   8 1452.57 597.439   3
  -4 -22  -8 498.405 289.495  21
  -4  23   8-210.124 300.173   2
   4  23  -7 86.8776 291.081   3
   4 -23  -6 177.008 313.849   5
   4  23  -6 18.1402 346.240   3
   4 -23  -5 156.755 209.683  21
   4 -23  -5 232.210 399.237   5
   4 -23  -4 424.427 299.243  21
   4  23  -4 580.708 454.212   3
   4 -23  -3 194.982 209.475  21
   4  23  -3 1015.21 559.028   3
   4  23  -2 393.428 531.818   3
   4 -23  -1 134.752 374.891   8
   4  23  -1 13.5472 470.364   3
   4 -23   0 165.412 519.354   8
   4  23   0 829.511 539.493   3
   4 -23   1 811.563 620.393   8
   4  23   1 1092.51 574.334   3
   4 -23   2 1627.88 782.241   8
   4  23   2 1295.45 680.492   3
   4 -23   3 5074.86 1289.57   8
   4  23   3 6139.85 1338.66   3
   4 -23   4 1170.05 684.662   8
   4  23   4 1521.73 740.813   3
   4 -23   5 697.945 589.056   8
   4  23   5 794.776 530.467   3
  -4 -23  -5 190.898 272.802  21
   4 -23   6-8.99021 437.365   8
   4  23   6-69.5821 256.895   3
  -4 -23  -6 277.493 266.679  21
   4 -23   7 1536.31 636.026   8
   4  23   7 1310.56 545.044   3
  -4 -23  -7 893.193 309.650  21
   4  24  -6 1088.29 504.198   3
   4  24  -5 944.753 481.743   3
   4 -24  -5 1100.33 512.642   5
   4 -24  -4-262.279 392.774   5
   4  24  -4-112.645 310.568   3
   4  24  -3 756.994 504.740   3
   4  24  -2-278.954 395.026   3
   4  24  -1 8592.33 1501.23   3
   4 -24   0 1967.93 727.879   8
   4  24   0 2145.80 801.165   3
   4 -24   1 2085.77 815.955   8
   4  24   1 823.523 581.840   3
   4 -24   2 486.511 475.862   8
   4  24   2 72.8413 353.641   3
   4 -24   3-184.538 372.395   8
   4  24   3-228.760 337.372   3
   4 -24   4-267.908 426.949   8
  -4 -24  -4-70.5294 200.273  21
   4  24   4-259.578 322.365   3
   4 -24   5-53.9221 332.340   8
  -4 -24  -5 623.312 326.068  21
   4  24   5 835.044 472.979   3
   4 -24   6 403.930 396.046   8
   4  24   6-248.682 426.574   3
  -4 -24  -6-19.1387 184.114  21
   4  25  -4-666.739 399.363   3
   4 -25  -4 430.305 354.308   5
   4  25  -3 89.6216 277.412   3
   4 -25  -3 141.823 316.506   5
   4  25  -2 1211.42 578.489   3
   4  25  -1 81.3578 285.071   3
   4 -25   0-1035.13 523.321   8
   4  25   0 410.098 380.737   3
   4 -25   1 430.214 420.879   8
   4  25   1 570.249 397.599   3
   4 -25   2 30.2558 285.867   8
   4  25   2 458.352 354.166   3
  -4 -25  -2-225.163 252.566  21
   4 -25   3 314.853 415.466   8
   4  25   3 221.534 299.083   3
  -4 -25  -3 353.863 228.545  21
   4 -25   4 378.278 371.194   8
   4  25   4 888.461 458.669   3
  -4 -25  -4 101.020 186.973  21
   4 -26  -2 166.180 333.150   5
   4 -26  -1 1680.28 610.420   5
   4  26  -1-531.037 369.920   3
   4  26   0 687.213 398.337   3
   4 -26   0 135.674 261.786   5
   4  26   1 599.855 345.191   3
  -5   0  16 3911.69 999.604  11
  -5   0  16 5158.14 1153.51  10
  -5   0  15 547.416 565.745  11
  -5   0  15-1338.28 724.099  10
  -5   0  14 16735.0 2547.44  11
  -5   0  14 11809.0 2110.33  10
  -5   0  13-995.950 756.004  11
  -5   0  13-65.4243 430.171  10
  -5   0  12 4905.11 1496.91  11
  -5   0  11 118.778 662.919  12
  -5   0  11 44.5956 492.329  11
  -5   0  10 5323.45 1492.62  12
  -5   0  10 4722.51 1376.57  11
  -5   0   9 104.893 466.432  12
  -5   0   8 7061.76 1171.76  16
  -5   0   7-47.3993 278.970  16
  -5   0   6 4933.26 892.093  16
  -5   0   5 121.734 252.222  16
  -5   0   4 9906.74 1126.83  16
  -5   0   3 99.4319 344.825  16
  -5   0   3-132.576 235.637  14
  -5   0   2 2202.39 496.707  16
  -5   0   2 2321.57 430.908  14
  -5   0   1-392.877 270.045  14
  -5   0   1 26.5779 200.638  16
  -5   0   0 102199. 2831.92  14
  -5   0   0 98073.8 2775.33  16
  -5   0  -1-54.3435 182.325  16
  -5   0  -1-96.8238 217.842  14
  -5   0  -2 160339. 3208.02  16
  -5   0  -2 168864. 3837.30  14
   5   0   2 165286. 3905.55  14
   5   0   2 162620. 4287.21  12
   5   0   3-376.691 353.507  12
   5   0   3 319.766 206.758  20
   5   0   3-56.3015 349.415  14
   5   0   4 359852. 4189.50  20
   5   0   4 339106. 7408.46  12
   5   0   5 36.1445 403.419  12
   5   0   5 82.1570 230.630  20
   5   0   6 56621.4 1965.49  20
   5   0   6 51866.9 3493.37  12
   5   0   7 845.896 575.387  12
   5   0   8 7714.91 1597.80  12
   5   0   9-74.5330 659.668  12
   5   0  10 32311.0 2150.99  24
   5   0  10 27488.4 3422.32  12
   5   0  11-331.789 606.572  12
   5   0  11-361.085 502.628  24
   5   0  12 7846.53 1133.23  24
   5   0  13-382.706 349.046  24
   5   0  13-540.596 440.600  22
   5   0  14 8.54809 254.953  24
   5   0  14-208.902 407.430  22
   5   0  15 1185.30 483.445  22
   5   0  16 2252.20 558.039  22
  -5  -1  16 387.380 308.522  11
  -5   1  16 1673.15 775.137  11
  -5   1  16 757.643 538.831  10
  -5  -1  16 1587.49 755.779  10
  -5  -1  15 567.666 575.110  11
  -5  -1  15 154.954 480.675  10
  -5   1  15-223.201 517.974  10
  -5   1  15 1022.69 655.715  11
  -5   1  14 867.743 560.969  11
  -5  -1  14-194.115 563.960  10
  -5   1  14 16.8248 582.700  10
  -5  -1  13 777.456 609.697  11
  -5   1  13-267.323 628.597  11
  -5  -1  13-744.447 656.396  10
  -5   1  13-1216.67 798.740  10
  -5  -1  12-282.198 530.843  10
  -5  -1  12 521.502 642.949  11
  -5   1  12 809.803 760.934  11
  -5  -1  11 2872.93 1235.98  12
  -5   1  11 622.335 831.188  12
  -5  -1  11 1225.63 764.148  11
  -5   1  11 912.469 803.577  11
  -5  -1  10 4003.02 1318.72  12
  -5   1  10 3667.72 1333.87  12
  -5   1  10 4842.00 1360.12  11
  -5  -1  10 2930.14 1051.88  11
  -5  -1   9 481.312 437.435  12
  -5   1   9 289.692 525.917  12
  -5  -1   8 20512.6 2501.35  12
  -5  -1   8 20209.8 1926.33  16
  -5   1   8 25784.3 2218.75  16
  -5   1   7 35704.9 2488.42  16
  -5  -1   7 32328.5 2306.74  16
  -5   1   6 487.946 436.720  16
  -5  -1   6 451.726 437.992  16
  -5   1   5 6358.84 940.158  16
  -5  -1   5 6737.01 962.982  16
  -5  -1   4 29796.1 1866.32  16
  -5   1   4 29221.9 1854.19  16
  -5   1   4 29772.6 1370.11  14
  -5  -1   3 21408.7 1513.92  16
  -5   1   3 23430.4 1566.93  16
  -5   1   3 22388.9 1411.00  18
  -5   1   3 23673.2 1261.57  14
  -5  -1   2 304669. 5350.14  16
  -5   1   2 307898. 5302.13  16
  -5   1   2 311876. 4693.39  14
  -5  -1   1 15461.9 1154.83  16
  -5   1   1 17053.6 1142.99  14
  -5   1   1 15775.9 1151.46  16
  -5   1   0 82338.6 2454.48  16
  -5  -1   0 79720.0 2523.13  16
  -5   1   0 82890.7 2552.01  14
   5   1   0 84885.3 2575.42  14
  -5  -1  -1 122456. 2998.03  16
  -5   1  -1 118640. 2802.13  16
  -5   1  -1 123096. 3211.08  14
   5   1   1 121183. 3216.55  14
   5   1   2 22007.5 911.717  20
  -5  -1  -2 22380.2 1269.03  16
  -5   1  -2 22292.9 1160.65  16
  -5   1  -2 23685.1 1473.66  14
   5   1   2 26376.6 1576.04  14
   5  -1   2 23683.0 1795.95  12
   5   1   2 24659.3 1572.12  12
   5  -1   3 780.799 339.807  12
   5   1   3 153.088 377.638  12
   5   1   3 507.109 180.567  20
  -5  -1  -3 820.231 278.831  16
   5  -1   3 450.159 223.621  20
   5   1   3 576.927 358.560  14
   5  -1   4 14338.1 892.683  20
   5   1   4 13764.2 834.308  20
   5   1   4 13263.5 1265.05  14
   5  -1   4 15435.4 1718.99  12
   5   1   4 12534.7 1421.96  12
   5  -1   5 14587.1 969.324  20
   5   1   5 15254.3 957.639  20
   5  -1   5 14906.7 1798.34  12
   5   1   5 14090.2 1651.97  12
   5  -1   6 1171.63 707.811  12
   5   1   6 1450.50 601.039  12
   5   1   6 1970.51 406.250  20
   5  -1   6 1251.80 374.953  20
   5  -1   7 8056.10 1582.20  12
   5   1   7 7745.35 1442.02  12
   5  -1   8 773.838 563.149  12
   5   1   8 134.453 616.591  12
   5  -1   9 949.988 868.064  12
   5   1   9 43.8208 644.355  12
   5  -1  10 5567.40 1476.79  12
   5   1  10 4680.59 1579.69  12
   5   1  10 5690.45 960.394  24
   5  -1  10 3635.03 804.659  24
   5  -1  11 568.279 628.571  12
   5   1  11-146.909 540.485  12
   5  -1  11 139.682 291.509  24
   5   1  11 102.386 321.890  24
   5  -1  12 1169.92 518.029  24
   5   1  12 1439.73 498.419  24
   5  -1  13 1229.72 503.171  24
   5   1  13 1374.20 505.588  24
   5  -1  13 388.287 370.678  22
   5  -1  14 1132.66 503.792  24
   5  -1  14 198.016 354.205  22
   5   1  14 545.757 323.562  22
   5   1  14 865.861 428.289  24
   5  -1  15 7103.44 771.672  22
   5   1  15 6121.03 723.668  22
   5   1  15 4640.82 769.999  24
   5   1  16 3162.77 550.364  22
  -5  -2  16-25.8749 270.913  11
  -5   2  16 273.056 453.472  11
  -5  -2  16-828.018 538.840  10
  -5   2  16-408.543 432.138  10
  -5  -2  15 3866.06 1127.61  11
  -5   2  15 2513.71 914.836  10
  -5  -2  15 2983.40 1000.05  10
  -5   2  15 3744.13 1178.21  11
  -5   2  14 2504.21 986.329  11
  -5   2  14 2831.18 1077.28  10
  -5  -2  14 3135.11 1177.95  10
  -5  -2  14 3730.45 1238.79  11
  -5  -2  13 9641.59 1974.63  11
  -5   2  13 11988.1 2239.53  11
  -5  -2  13 10289.4 1993.58  10
  -5   2  12-685.117 674.631  11
  -5  -2  12 548.138 808.050  10
  -5  -2  12 949.663 763.077  11
  -5  -2  11-220.401 479.477  12
  -5   2  11 1241.73 859.643  12
  -5  -2  11-643.050 663.178  10
  -5   2  11-1708.48 911.377  11
  -5  -2  11 474.755 585.494  11
  -5  -2  10 6321.26 1504.62  12
  -5   2  10 4586.88 1314.05  11
  -5   2  10 5608.18 1604.55  12
  -5  -2  10 6216.94 1574.06  11
  -5  -2   9 3031.57 1118.85  12
  -5  -2   8 428.552 505.963  12
  -5   2   8 1491.92 550.199  16
  -5  -2   7 6282.13 1299.65  12
  -5   2   7 8763.16 1253.94  16
  -5  -2   7 8054.16 1160.74  16
  -5  -2   6 22064.3 1822.25  16
  -5   2   6 19166.4 1738.63  16
  -5  -2   5 230.567 347.554  16
  -5   2   5-338.303 299.194  16
  -5   2   4 646.142 380.020  16
  -5  -2   4 421.720 321.266  16
  -5   2   4 368.422 199.502  14
  -5   2   3 1549.86 436.703  16
  -5   2   3 1182.46 362.310  18
  -5  -2   3 2340.82 576.173  16
  -5  -2   3 2082.95 392.902  15
  -5   2   3 3022.41 513.014  14
  -5   2   2 1112.65 358.332  16
  -5  -2   2 1228.67 411.496  16
  -5  -2   2 1269.65 322.663  15
  -5   2   2 1101.88 371.993  14
   5   2  -2 1233.10 340.557  14
  -5   2   1 186.265 250.814  16
  -5  -2   1 420.318 222.807  16
  -5  -2   1 172.401 210.547  15
   5   2  -1 88.2903 204.305  14
  -5   2   1 460.813 275.678  14
  -5   2   0 318.006 217.012  16
   5  -2   0 71.2796 95.8491  19
  -5  -2   0 536.694 284.685  16
  -5  -2   0 206.566 214.067  15
   5   2   0-17.1325 208.368  14
  -5   2   0 344.661 227.567  14
   5  -2   1 34459.5 1028.88  19
  -5  -2  -1 35806.4 1708.05  16
  -5   2  -1 32350.4 1488.33  16
  -5  -2  -1 36556.5 1828.42  15
   5   2   1 34823.9 1743.92  14
  -5   2  -1 34865.7 1747.19  14
  -5   2  -2 7384.80 660.896  16
  -5  -2  -2 7815.75 798.391  16
   5   2   2 8199.55 902.106  14
  -5  -2  -2 8130.28 897.616  15
  -5   2  -2 8944.85 921.619  14
   5   2   2 8086.10 547.509  20
   5  -2   2 9074.07 1174.46  12
   5  -2   3 10421.4 719.359  20
   5   2   3 9117.61 606.024  20
  -5  -2  -3 10146.1 905.635  16
   5   2   3 9640.94 1032.15  14
   5  -2   3 8473.98 1222.85  12
   5   2   3 10034.1 1087.89  12
   5   2   4 6859.87 1022.21  12
   5  -2   4 5637.34 592.999  20
   5  -2   4 5130.36 1012.40  12
   5   2   4 5524.84 509.680  20
   5   2   5 551036. 9772.89  12
   5   2   5 565201. 5449.86  20
   5  -2   5 562162. 5942.00  20
   5  -2   5 557642. 10896.2  12
   5  -2   6 5282.51 1236.94  12
   5   2   6 3956.50 886.245  12
   5  -2   6 5506.41 653.368  20
   5   2   7 12342.1 1793.04  12
   5  -2   7 11570.8 1842.00  12
   5  -2   8 11076.9 1945.16  12
   5   2   8 8713.41 1626.93  12
   5  -2   9 3786.70 1322.76  12
   5   2   9 1927.08 895.354  12
   5  -2  10 6509.39 1771.57  12
   5   2  10 5872.98 1588.01  12
   5  -2  10 6715.83 1024.06  24
   5   2  10 6095.76 965.327  24
   5  -2  11 4050.82 1497.79  12
   5   2  11 6198.10 1731.20  12
   5  -2  11 3277.53 752.360  24
   5   2  11 4098.23 826.408  24
   5  -2  12 537.784 328.560  24
   5   2  12 463.281 354.252  24
   5  -2  12 517.455 370.995  22
   5  -2  13 1422.40 561.557  24
   5   2  13 754.077 418.268  24
   5  -2  13 857.057 438.827  22
   5   2  14-219.716 326.487  24
   5  -2  14-315.409 385.020  22
   5   2  14-425.613 430.657  22
   5   2  15 980.402 420.430  24
   5  -2  15 1508.64 511.580  22
   5   2  15 901.396 406.965  22
   5   2  16 1274.71 409.368  22
  -5  -3  16-37.1366 298.008  11
  -5  -3  16 427.650 473.794  10
  -5   3  16 835.175 599.692  10
  -5   3  16 700.450 474.731  11
  -5  -3  15 1796.63 865.583  11
  -5   3  15 274.251 468.577  10
  -5  -3  15 1684.55 795.081  10
  -5   3  15 865.533 658.211  11
  -5  -3  14-4.62566 477.155  11
  -5   3  14-60.9651 519.854  11
  -5   3  14-426.477 573.141  10
  -5  -3  14-85.9249 610.866  10
  -5   3  13 761.548 698.512  11
  -5  -3  13 6.82542 447.075  11
  -5  -3  13 60.5633 559.875  10
  -5  -3  12-249.072 571.929  10
  -5  -3  12 965.168 754.036  11
  -5   3  12-1396.95 819.735  11
  -5  -3  11 3165.76 1310.77  12
  -5   3  11 2939.05 1231.20  12
  -5   3  11 1782.05 977.263  11
  -5  -3  11 2015.61 1076.63  10
  -5  -3  11 4098.30 1363.12  11
  -5  -3  10-2033.41 992.510  12
  -5   3  10 115.458 639.118  12
  -5  -3  10 887.293 706.042  11
  -5  -3  10-1291.81 824.855  10
  -5  -3   9 807.475 411.179  12
  -5   3   9 1167.94 504.147  16
  -5  -3   8 594.493 460.011  12
  -5   3   8 1082.63 466.007  16
  -5  -3   7-14.7898 437.042  12
  -5  -3   7 70.5135 279.289  16
  -5   3   7-20.3918 310.298  16
  -5  -3   6 23338.7 2199.65  12
  -5  -3   6 22140.3 1799.28  16
  -5   3   6 23609.0 1909.17  16
  -5  -3   5 212792. 5919.29  12
  -5   3   5 202855. 5266.70  16
  -5  -3   5 203453. 5156.72  16
  -5   3   4 65286.6 2826.30  16
  -5   3   4 59346.9 2296.83  17
  -5  -3   4 60716.8 2703.42  16
  -5   3   3 59627.6 2572.10  16
  -5   3   3 59290.7 2324.92  18
  -5  -3   3 61786.3 2603.55  16
  -5  -3   3 54701.0 1885.97  15
  -5   3   2 16648.2 1292.93  16
  -5  -3   2 16710.2 1316.54  16
  -5   3   2 16486.6 1146.82  18
  -5  -3   2 16813.2 1111.34  15
   5   3  -2 16950.7 1099.40  14
  -5  -3   1 70934.8 2364.95  15
  -5  -3   1 75587.1 2676.24  16
  -5   3   1 72254.3 2507.97  16
   5   3  -1 71271.0 2320.38  14
  -5   3   0 1960.50 441.049  16
   5  -3   0 1940.45 258.514  19
   5   3   0 1838.77 435.662  14
   5   3   0 2241.83 487.484   1
  -5  -3   0 1780.35 416.286  15
  -5  -3   0 2552.05 505.565  16
  -5   3   0 2114.06 498.442  14
   5   3   1 22014.6 1275.64   1
   5  -3   1 25478.2 931.602  19
  -5  -3  -1 25541.1 1543.01  16
  -5   3  -1 23121.3 1265.48  16
  -5  -3  -1 27597.5 1607.28  15
   5   3   1 24011.2 1489.95  14
  -5   3  -1 26251.3 1579.92  14
   5   3   2 47208.5 1252.86  20
   5  -3   2 47513.5 1392.66  19
  -5  -3  -2 49173.8 2126.32  16
  -5   3  -2 45007.5 1621.27  16
   5   3   2 43334.5 1770.03   1
   5   3   2 49352.4 2212.47  14
  -5   3  -2 49882.8 2230.23  14
   5  -3   2 51948.8 2886.11  12
  -5  -3  -3 33317.7 1744.74  16
   5   3   3 36462.5 1168.46  20
   5  -3   3 37960.8 1383.09  20
   5   3   3 33441.6 1916.95  14
   5  -3   3 37724.2 2630.87  12
   5   3   3 35075.0 1920.16  12
   5   3   4 3543.27 735.999  12
   5  -3   4 1726.51 705.449  12
   5  -3   4 3268.00 460.730  20
   5   3   4 2713.22 368.653  20
   5  -3   5 3306.05 947.717  12
   5   3   5 3751.02 844.166  12
   5  -3   5 3481.07 555.099  20
   5   3   5 3943.50 469.687  20
   5  -3   6 1178.73 693.178  12
   5   3   6 1566.27 664.304  12
   5  -3   6 1644.46 433.213  20
   5  -3   7 4312.12 1201.95  12
   5   3   7 5465.04 1219.87  12
   5   3   8 903.690 786.322  12
   5  -3   8 1115.06 854.004  12
   5  -3   9 754.547 666.597  12
   5   3   9-182.084 412.580  12
   5  -3  10-281.090 520.910  12
   5   3  10 1063.21 841.799   2
   5   3  10 160.648 537.238  12
   5  -3  10-157.970 392.473  24
   5   3  10 856.673 458.230  24
   5  -3  11 453.511 429.916  24
   5   3  11-219.338 373.913  24
   5  -3  12 188.918 310.512  24
   5  -3  12-109.109 517.643  22
   5   3  12-292.654 342.333  24
   5   3  13 6701.93 1042.54  24
   5  -3  13 5663.82 762.537  22
   5  -3  13 6167.31 1014.60  24
   5   3  14 66.3636 293.748  24
   5  -3  14-380.993 370.361  22
   5   3  14 454.833 313.141  22
   5   3  15 11358.7 1144.09  24
   5  -3  15 14186.5 1100.13  22
   5   3  15 12454.7 960.665  22
   5   3  16 859.751 321.890  22
  -5  -4  16 3098.24 881.008  11
  -5   4  16 3208.80 935.880  11
  -5  -4  16 2747.57 830.989  10
  -5   4  16 3663.86 917.106  10
  -5  -4  15 2478.39 909.026  11
  -5  -4  15 2182.88 851.501  10
  -5   4  15 2148.02 814.121  10
  -5   4  15 2806.67 1012.69  11
  -5  -4  14-184.340 694.047  11
  -5  -4  14 848.576 780.126  10
  -5   4  14-297.172 661.597  11
  -5  -4  13 13647.2 2371.00  11
  -5   4  13 14925.6 2446.02  11
  -5  -4  13 13966.9 2396.05  10
  -5   4  12 513.206 498.125  11
  -5  -4  12-31.6445 593.819  11
  -5   4  11 357.110 715.779  12
  -5   4  11-75.7955 539.624  11
  -5  -4  11 642.131 662.481  10
  -5  -4  11 1168.56 805.033  11
  -5  -4  10 15518.2 2431.33  11
  -5  -4  10 15504.3 2427.63  10
  -5   4   9 1994.40 735.820  16
  -5  -4   8 144.160 589.164  12
  -5   4   8 494.448 386.892  16
  -5  -4   7 22284.7 2343.30  12
  -5  -4   7 22156.0 1905.55  16
  -5   4   7 22409.1 2028.75  16
  -5   4   6 3380.19 791.613  16
  -5  -4   6 2656.66 674.264  16
  -5   4   5 10511.9 1296.09  16
  -5  -4   5 10006.3 1217.67  16
  -5   4   4 473.063 314.031  16
  -5   4   4 941.390 341.151  17
  -5  -4   4 818.058 379.688  16
  -5   4   3 1480.35 440.055  16
  -5   4   3 1783.20 444.517  18
  -5  -4   3 1147.43 421.120  16
  -5  -4   3 1191.19 344.338  15
   5   4  -3 1434.70 339.757  14
  -5  -4   2 12199.1 1204.89  16
  -5   4   2 12378.1 1166.72  16
  -5   4   2 11175.3 963.737  18
  -5  -4   2 11571.7 992.295  15
   5   4  -2 11005.1 925.673  14
  -5   4   1 3331.72 581.594  16
  -5  -4   1 3290.66 638.513  16
  -5  -4   1 3172.84 550.442  15
   5   4  -1 3082.15 530.594  14
   5   4   0 2404.62 563.244   1
  -5   4   0 2889.96 519.361  16
  -5  -4   0 2113.47 515.409  15
   5   4   0 2466.51 520.712  14
  -5  -4   0 3175.18 646.405  16
   5   4   1 17681.1 1289.79   1
  -5   4  -1 18441.7 1180.48  16
   5  -4   1 18606.9 852.498  19
  -5  -4  -1 21774.2 1501.34  16
  -5  -4  -1 17946.4 1368.35  15
   5   4   1 18838.8 1351.68  14
  -5  -4  -2 33824.5 1878.43  16
   5  -4   2 37664.2 2609.21  12
   5  -4   2 34929.2 1284.25  20
   5  -4   2 33304.1 1202.81  19
   5   4   2 31109.0 1797.95  14
   5   4   2 30755.4 1690.70   1
   5   4   2 33923.6 1005.89  20
  -5  -4  -3 98704.7 3195.43  16
   5  -4   3 95578.7 2272.39  20
   5  -4   3 92675.7 2155.01  19
   5   4   3 96674.3 1826.75  20
   5  -4   4 9148.62 1522.67  12
   5   4   4 9451.16 638.037  20
   5  -4   4 9888.98 807.359  20
   5   4   5 46610.8 2744.67  12
   5  -4   5 54390.9 1935.62  20
   5  -4   5 50098.7 3557.32  12
   5  -4   6 157.792 495.039  12
   5   4   6 305.980 345.547  12
   5  -4   6 484.351 321.315  20
   5  -4   7 6684.66 1557.34  12
   5   4   7 7559.30 1360.73  12
   5   4   8 30383.4 2942.92  12
   5  -4   8 24838.4 3062.40  12
   5  -4   9-520.260 847.826  12
   5   4   9 349.581 577.128  12
   5   4  10 1217.99 783.226  12
   5   4  10 3696.79 1317.65   2
   5  -4  10 1826.98 570.496  24
   5  -4  10 3035.16 1092.96  12
   5   4  10 2472.90 626.254  24
   5  -4  11 787.141 841.936  12
   5   4  11 3226.69 760.853  24
   5  -4  11 2547.81 576.648  22
   5  -4  11 3163.22 761.268  24
   5   4  12 120.119 281.529  24
   5  -4  12-808.143 593.268  22
   5  -4  12 159.393 397.509  24
   5   4  13 1413.30 573.698  24
   5  -4  13 2215.85 523.059  22
   5   4  14 14.9253 268.561  24
   5  -4  14-214.964 428.937  22
   5   4  14-59.4197 379.630  22
   5   4  15 423.554 284.945  22
   5   4  15 322.207 262.902  24
   5   4  16 490.857 295.312  22
  -5  -5  16 786.772 453.003  11
  -5   5  16 192.090 289.525  10
  -5  -5  16 46.6722 303.418  10
  -5  -5  15 190.450 366.716  11
  -5   5  15 237.744 465.560  11
  -5  -5  15 305.845 535.513  10
  -5   5  15 1011.67 620.455  10
  -5  -5  14-165.931 467.192  11
  -5   5  14 852.848 690.006  11
  -5  -5  14 810.432 771.623  10
  -5  -5  13 40.5326 460.847  11
  -5  -5  13-590.827 536.736  10
  -5   5  13 196.336 529.929  11
  -5   5  12 636.905 680.740   2
  -5  -5  12 888.465 826.549  11
  -5   5  12-160.978 443.580  11
  -5  -5  12 864.667 741.550  10
  -5   5  11 1827.59 993.174   2
  -5   5  11 470.309 678.433  12
  -5  -5  11 2033.93 1043.36  10
  -5  -5  11 1064.66 728.240  11
  -5  -5  10 8310.81 1791.94  10
  -5  -5  10 10504.5 2089.86  11
  -5   5   9 1727.13 643.201  16
  -5   5   8 9067.08 1414.77  16
  -5   5   7 130.508 430.669  16
  -5  -5   7 362.170 264.531  16
  -5   5   6 21677.7 1919.58  16
  -5  -5   6 19343.7 1757.81  16
  -5   5   5 47619.8 2688.85  16
  -5  -5   5 44662.3 2517.25  16
  -5  -5   4 80405.2 3277.70  16
  -5   5   4 76925.1 3028.39  17
  -5   5   4 83629.5 3393.48  16
  -5   5   3 2298.15 602.227  17
  -5  -5   3 2713.66 650.331  16
  -5   5   3 2449.90 583.330  16
   5   5  -3 2226.06 398.144  14
  -5   5   2 102732. 2917.92  18
  -5  -5   2 104176. 3473.77  16
  -5  -5   2 93739.6 2895.57  15
   5   5  -2 96415.9 2802.58  14
  -5   5   2 98365.1 3327.20  16
   5   5  -1 2921.68 509.601  14
  -5  -5   1 3200.58 571.779  15
  -5   5   1 2945.25 490.151  18
   5   5  -1 3483.28 700.696   1
  -5  -5   1 2791.31 598.398  16
  -5   5   1 3243.44 606.202  16
   5   5   0 36148.3 2073.22   1
  -5  -5   0 37741.9 2088.80  16
  -5   5   0 36708.0 1826.85  16
  -5  -5   0 42022.9 2068.36  15
   5   5   0 34319.6 1797.06  14
   5   5   1 14901.8 1298.77   1
   5  -5   1 16114.3 858.485  19
  -5  -5  -1 17142.5 1413.25  16
  -5   5  -1 13759.6 1044.72  16
   5   5   1 14459.2 1218.93  14
   5  -5   2 1536.31 314.793  20
   5  -5   2 1894.47 322.573  19
   5   5   2 1041.08 404.261   1
  -5  -5  -2 1996.19 508.775  16
   5  -5   3 6548.39 645.955  20
   5  -5   3 5758.69 590.906  19
   5  -5   4 1751.81 617.204  12
   5  -5   4 2572.16 467.705  20
   5  -5   5-1140.08 687.217  12
   5  -5   5 188.297 260.413  20
   5  -5   6-32.1484 628.611  12
   5  -5   6 109.164 278.691  20
   5  -5   7-347.745 785.488  12
   5  -5   8 9683.70 2023.64  12
   5  -5   9 5.33736 929.152  12
   5  -5  10 1580.15 847.258  12
   5  -5  10 1964.09 478.043  22
   5  -5  10 1960.32 577.351  24
   5   5  10 2113.31 596.177  24
   5  -5  11 4637.69 1631.10  12
   5   5  11 9570.30 2211.11   2
   5  -5  11 8047.99 1208.70  24
   5   5  11 5634.80 987.256  24
   5  -5  11 4524.68 734.479  22
   5   5  12 322.851 367.044  24
   5  -5  12-191.558 469.161  22
   5  -5  13 1042.87 458.353  22
   5   5  13 1695.25 575.393  24
   5   5  14 5256.48 868.583  24
   5  -5  14 6804.65 859.379  22
   5   5  14 5672.56 681.400  22
   5   5  15 146.914 306.364  22
   5   5  15 226.107 273.238  24
   5   5  16 865.594 341.474  24
  -5  -6  16 2365.06 706.335  11
  -5  -6  16 2614.10 830.822  10
  -5   6  16 3310.69 868.360  10
  -5   6  16 3775.80 929.662  11
  -5  -6  15 1363.29 721.390  11
  -5  -6  15 793.026 593.846  10
  -5   6  15 842.120 568.479  11
  -5   6  15 517.550 497.109  10
  -5  -6  14 669.500 633.834  11
  -5  -6  14 1133.00 763.987  10
  -5   6  14 1252.42 770.846  11
  -5   6  13 4536.37 1400.60   2
  -5  -6  13 7511.93 1795.11  11
  -5   6  13 4750.96 1417.89  11
  -5  -6  13 5910.10 1578.07  10
  -5  -6  12-784.424 697.610  11
  -5   6  12-84.3466 601.865  11
  -5  -6  12 474.993 582.629  10
  -5   6  11 999.828 845.624  12
  -5  -6  11 181.359 541.633  11
  -5  -6  11 1661.21 876.907  10
  -5   6  11 258.278 567.006   2
  -5   6  10 62561.0 5193.03   2
  -5  -6  10 57983.1 4783.63  11
  -5  -6  10 57724.1 4693.54  10
  -5   6   9 962.844 613.060  16
  -5   6   8-55.9052 446.571  16
  -5   6   7 560.135 349.462  16
  -5  -6   6 19480.0 1787.51  16
  -5   6   6 24542.1 2111.12  16
  -5   6   5 152.583 284.225  16
  -5  -6   5-117.753 280.628  16
  -5  -6   4-22.3503 359.624  16
  -5   6   4 703.181 519.518  16
  -5  -6   3 550.242 389.513  16
  -5   6   3 1537.02 532.015  16
  -5  -6   2 550.836 289.228  15
  -5   6   2 838.560 300.959  18
  -5  -6   2 807.719 406.764  16
  -5   6   2 491.007 391.678  16
   5   6  -2 420.540 224.467  14
   5   6  -1 18.9113 327.963   1
  -5   6   1 80.0830 162.587  18
  -5  -6   1 113.030 273.613  16
  -5   6   1-18.8533 223.637  16
   5   6   0 6752.07 958.026   1
  -5   6   0 6337.72 659.266  18
  -5  -6   0 6924.32 971.262  16
  -5   6   0 5743.59 792.991  16
  -5   6  -1 299.843 283.796  16
   5   6   1 849.075 406.154   1
  -5  -6  -1 872.140 408.355  16
   5  -6   2 4050.78 515.729  20
   5  -6   2 3747.81 474.681  19
  -5  -6  -2 2170.28 595.673  16
   5   6   2 2417.91 599.669   1
   5  -6   3 9320.28 1520.60  12
   5  -6   3 8040.48 717.040  20
   5  -6   3 7810.48 699.472  19
   5  -6   4 6093.83 1323.34  12
   5  -6   4 5798.71 669.782  19
   5  -6   4 5809.04 684.888  20
   5  -6   5 1448.84 892.244  12
   5  -6   5 1266.27 404.583  20
   5  -6   6 3992.19 1152.44  12
   5  -6   6 3460.48 573.030  20
   5  -6   7 614.519 677.338  12
   5  -6   8 27852.7 3370.29  12
   5  -6   9 6809.48 1793.14  12
   5   6  10 870.164 725.795   9
   5  -6  10-2531.82 1267.89  12
  -5  -6 -10 1046.10 617.207   4
   5   6  10-1678.48 1019.33   2
   5   6  10-14.7731 332.763  24
   5  -6  10-602.470 522.142  22
   5   6  11 9038.63 2160.86   2
   5   6  11 7007.87 1105.51  24
   5  -6  11 7545.32 926.985  22
   5  -6  11 5772.38 1829.97  12
   5   6  12-613.496 406.089  24
   5  -6  12 141.745 392.676  22
   5  -6  13-406.366 467.055  22
   5   6  13 7.37581 311.357  24
   5   6  14 27.4550 266.635  24
   5  -6  14 1676.82 643.052  22
   5   6  15-158.103 295.542  24
   5   6  15-794.950 374.009  22
   5   6  16 200.858 208.467  24
  -5   7  16 450.499 405.584  10
  -5  -7  16-139.236 318.441  10
  -5   7  16 286.776 368.449  11
  -5  -7  15 712.232 624.612  11
  -5   7  15 288.473 446.339  11
  -5  -7  15 746.242 576.656  10
  -5   7  15 647.093 551.540  10
  -5  -7  14 1091.25 580.569  11
  -5   7  14 1269.16 809.765  11
  -5  -7  14 997.804 745.764  10
  -5   7  13 76.8252 531.880   2
  -5  -7  13-14.7402 466.123  11
  -5  -7  13 960.490 826.234  10
  -5   7  13 140.417 476.346  11
  -5  -7  12-396.452 595.432  11
  -5   7  12-70.7170 469.807   2
  -5  -7  12-399.019 624.128  10
  -5  -7  11-140.586 529.773  11
  -5  -7  11 583.572 675.631  10
  -5  -7  10 6418.47 1694.30  11
  -5   7  10 5295.43 1575.99   2
  -5  -7  10 5728.31 1594.32  10
  -5  -7   9-1207.57 776.650  11
  -5   7   9 939.110 560.890  16
  -5   7   8 1633.73 675.023  16
  -5   7   7 1164.08 590.391  16
  -5  -7   6 32204.7 2348.48  16
  -5   7   6 36708.6 2677.43  16
  -5  -7   5 21631.6 1898.98  16
  -5   7   5 23620.5 2049.30  16
  -5  -7   4 332.015 334.146  16
  -5   7   4 369.995 386.839  16
  -5  -7   3 97066.9 3786.31  16
  -5   7   3 98480.9 3823.72  16
   5   7  -2 42346.1 2672.30   1
  -5  -7   2 43703.4 2477.93  16
  -5   7   2 42404.6 2415.28  16
  -5   7   1 48467.9 2472.43  16
   5   7  -1 49871.7 2772.09   1
  -5  -7   1 53446.7 2761.80  16
  -5   7   1 47043.3 1897.25  18
   5   7   0 47363.3 2650.55   1
  -5   7   0 51465.0 1835.24  18
  -5  -7   0 52429.3 2691.14  16
  -5   7   0 51130.7 2395.71  16
   5   7   1 515.774 438.175   1
  -5  -7  -1 468.718 367.796  16
  -5   7  -1 551.617 276.183  16
   5  -7   2 21316.3 1115.23  20
   5  -7   2 21398.4 1165.45  19
   5   7   2 19865.1 1713.35   1
   5  -7   3 4147.78 1240.22  12
   5  -7   3 2524.72 469.285  19
   5  -7   3 2909.26 469.549  20
   5   7   3 2051.51 629.880   1
   5  -7   4 1432.16 750.934  12
   5  -7   4 1601.12 400.286  19
   5  -7   4 1759.72 405.337  20
   5  -7   5 1221.38 401.680  20
   5  -7   5 1913.66 911.767  12
   5  -7   6 90.1190 575.281  12
   5  -7   6 36.4769 280.510  20
   5  -7   7 636.090 609.077  12
   5  -7   8 2878.04 1402.95  12
   5  -7   9-674.496 1176.53  12
   5   7   9-235.093 323.180  24
   5  -7   9-298.402 459.659  22
   5  -7  10 2240.00 1221.72  12
  -5  -7 -10 1818.68 692.727   4
   5   7  10 5101.54 1624.08   2
   5   7  10 3494.22 1425.80   9
   5  -7  10 1565.34 522.085  22
   5   7  10 1438.90 589.102  24
   5   7  11 2749.06 1268.02   2
   5   7  11 1905.34 621.799  24
   5  -7  11 3182.43 668.216  22
   5   7  11 1646.48 968.142   9
   5   7  12 1303.69 683.388   7
   5   7  12 1692.13 589.676  24
   5  -7  12 2748.50 659.822  22
   5   7  13-556.486 420.231  24
   5  -7  13 775.748 552.994  22
   5   7  14 357.105 296.014  24
   5   7  15 4950.73 713.558  24
   5   7  16 612.433 281.978  24
  -5   8  16-170.746 372.113  11
  -5  -8  15 2398.78 758.807  11
  -5  -8  15 2310.22 852.181  10
  -5   8  15 1121.26 601.943  11
  -5  -8  14 1048.06 674.421  11
  -5  -8  14 970.916 560.464  10
  -5   8  14 1206.81 785.702  11
  -5  -8  13 16684.6 2533.02  11
  -5   8  13 20077.2 2739.07  11
  -5   8  13 16629.3 2597.28   2
  -5  -8  13 18848.6 2703.48  10
  -5   8  12 1168.75 984.759   2
  -5  -8  12 359.285 700.387  11
  -5  -8  12 1461.65 848.083  10
  -5  -8  11 8913.24 1974.60  11
  -5   8  11 11578.0 2362.20   2
  -5  -8  11 10667.8 2117.32  10
  -5   8  10 723.613 709.042   2
  -5  -8  10 1518.01 949.862  11
  -5  -8  10 188.593 696.460  10
  -5  -8   9-20.7557 604.875  11
  -5   8   9-295.395 581.790  16
  -5  -8   9-1395.87 824.195  10
  -5   8   9 433.720 625.956   2
  -5   8   8 5921.99 1210.30  16
  -5   8   7 2989.17 904.652  16
  -5   8   6 2969.97 824.755  16
  -5  -8   6 1691.74 700.154  16
  -5  -8   5 5450.60 1026.19  16
  -5   8   5 8110.50 1292.42  16
  -5  -8   4 142.434 297.536  16
  -5   8   4-247.676 428.236  16
  -5  -8   3 211.552 331.961  16
  -5   8   3 385.186 393.157  16
  -5   8   2 1609.10 559.585  16
   5   8  -2 924.134 439.505   1
  -5  -8   2 805.460 496.417  16
  -5  -8   1 3210.36 785.247  16
   5   8  -1 2829.96 745.186   1
  -5   8   1 3505.04 782.096  16
   5   8   0 4505.21 909.872   1
  -5  -8   0 5130.56 934.691  16
  -5   8   0 4068.41 752.981  16
   5   8   1 14723.6 1593.56   1
  -5  -8  -1 14854.5 1554.85  16
  -5   8  -1 13314.6 1271.44  16
   5  -8   2 37687.9 1672.46  19
   5  -8   2 38187.1 1487.61  20
   5   8   2 34410.0 2397.56   1
   5  -8   3 65591.4 2109.74  20
   5  -8   3 67528.5 2251.76  19
   5   8   3 61585.4 3269.49   1
   5  -8   4 530.241 774.801  12
   5  -8   4-140.639 233.248  20
   5  -8   4-202.477 291.222  19
   5  -8   5 84901.4 2625.20  20
   5  -8   5 86381.8 5323.93  12
   5  -8   6 671.043 681.469  12
   5  -8   6 1027.49 403.867  20
   5  -8   7 90263.7 6026.37  12
   5  -8   8 14031.6 2484.31  12
   5  -8   9-127.868 766.661  12
  -5  -8  -9-509.647 564.847   4
   5  -8   9-237.384 432.119  22
   5   8   9 1569.74 1021.77   9
   5   8   9 404.361 353.587  24
   5  -8  10 1368.56 1030.37  12
  -5  -8 -10 843.337 516.197   4
   5   8  10 2052.39 1046.55   9
   5   8  10 1082.31 859.100   2
   5  -8  10 1188.66 450.789  22
   5   8  10 1104.64 439.407  24
   5   8  11 156.632 439.284   7
   5  -8  11-190.194 441.151  22
   5   8  11 1001.08 771.743   9
   5   8  11-554.865 392.037  24
   5   8  12 1492.77 946.350   2
   5   8  12 147.615 397.648   7
   5   8  12-112.365 339.094  24
   5  -8  12 801.400 553.055  22
   5   8  13 1066.59 525.969   7
   5   8  13 854.444 439.910  24
   5   8  14 168.807 251.940  24
   5   8  15 53.1061 231.045  24
  -5  -9  15-223.779 385.830  10
  -5  -9  15 430.234 450.996  11
  -5   9  15 32.6962 274.849  11
  -5  -9  14-735.482 578.865  11
  -5  -9  14 84.2521 536.201  10
  -5   9  14-158.670 377.944  11
  -5   9  13 1679.48 928.937   2
  -5  -9  13 799.288 826.307  11
  -5   9  13 478.761 599.729  11
  -5  -9  13 327.779 491.083  10
  -5  -9  12-272.869 501.935  11
  -5   9  12-482.897 802.209   2
  -5  -9  12 291.548 537.991  10
  -5  -9  11 709.987 653.076  11
  -5  -9  11-57.7951 464.451  10
  -5   9  11 1880.84 1027.33   2
  -5  -9  10 1309.65 904.785  11
  -5  -9  10 814.951 840.732  10
  -5   9  10 655.366 911.155   2
  -5   9  10 190.289 468.401  16
  -5  -9   9-388.061 608.936  11
  -5  -9   9 1775.79 922.044  10
  -5   9   9 2186.24 945.737  16
  -5   9   8 9837.38 1611.31  16
  -5   9   7 16053.7 1962.62  16
  -5   9   6 5806.32 1177.93  16
  -5  -9   6 6154.21 1191.39  16
  -5   9   5 37895.8 2848.78  16
  -5  -9   5 37059.1 2658.75  16
  -5  -9   4 4146.75 893.559  16
  -5   9   4 4946.45 1105.78  16
   5   9  -3 39792.1 3033.88   1
  -5   9   3 44818.8 2893.44  16
  -5  -9   3 41146.2 2722.09  16
  -5  -9   2 145.294 353.929  16
  -5   9   2 487.069 371.562  16
   5   9  -2 574.936 437.230   1
   5   9  -1 58445.3 3330.92   1
  -5   9   1 66431.1 3220.83  16
  -5  -9   1 61739.4 3324.07  16
   5   9   0 19645.2 1888.63   1
  -5  -9   0 19400.1 1905.85  16
  -5   9   0 18738.1 1654.31  16
   5   9   1 122048. 4660.95   1
   5  -9   1 118617. 2605.80  20
  -5   9  -1 114416. 3811.72  16
   5  -9   2 18342.7 1082.13  20
   5  -9   2 19441.6 1319.57  19
   5   9   2 16050.6 1728.19   1
   5   9   3 1529.33 640.578   1
   5  -9   3 1979.60 506.303  19
   5  -9   3 1832.01 401.043  20
   5  -9   4 8431.58 845.383  20
   5  -9   4 7352.09 885.767  19
   5  -9   5 2511.27 1166.83  12
   5  -9   5 1594.22 439.251  20
   5  -9   6 882.421 990.735  12
   5  -9   6 70.4201 270.282  20
   5  -9   7 665.911 807.807  12
   5  -9   8-152.673 912.977  12
   5  -9   9 1542.83 1016.33  12
  -5  -9  -9 736.060 612.399   4
   5  -9   9-338.712 487.132  22
   5   9   9 771.282 800.683   2
   5   9   9 1323.38 1037.80   9
   5  -9  10 240.414 826.649  12
   5  -9  10 827.111 536.750  22
   5   9  10-508.771 685.202   2
   5   9  10 459.483 651.678   9
  -5  -9 -10-1359.38 735.752   4
   5   9  10 51.0305 344.319  24
   5   9  11 2260.84 1317.37   2
   5   9  11 3872.32 1186.18   7
   5   9  11 2443.95 702.072  24
   5  -9  11 4115.26 809.327  22
   5   9  11 3039.22 1168.78   9
   5   9  12 3131.09 1274.92   2
   5   9  12 4673.64 1156.80   7
   5   9  12 2918.78 742.911  24
   5   9  13 639.421 391.653  24
   5   9  13 150.501 401.261   7
   5   9  14-27.7860 289.379  24
   5   9  15 2967.45 531.366  24
  -5 -10  15 402.081 390.456  10
  -5  10  15 7.83717 298.422  11
  -5  10  14 3103.17 1136.92   2
  -5 -10  14 2955.54 947.582  11
  -5  10  14 2010.50 808.586  11
  -5 -10  14 1472.51 719.528  10
  -5  10  13 1060.29 878.987   2
  -5 -10  13 747.945 614.319  11
  -5  10  13 1100.39 665.079  11
  -5 -10  13 499.593 516.578  10
  -5 -10  12 1391.49 993.113  11
  -5  10  12 1167.16 819.848   2
  -5 -10  12 1929.52 963.696  10
  -5 -10  11 1122.28 880.069  11
  -5  10  11 1086.07 948.914   2
  -5 -10  11 879.965 644.778  10
  -5 -10  10 725.018 821.876  11
  -5 -10  10-71.1502 702.632  10
  -5  10  10 1354.91 1045.31   2
  -5 -10   9 603.186 652.436  11
  -5 -10   9-333.751 583.665  10
  -5  10   9-251.375 495.364  16
  -5  10   8 14196.4 2035.39  16
  -5 -10   8 15076.0 2392.03  11
  -5 -10   8 12411.3 2188.86  10
  -5  10   7 787.031 467.284  16
  -5  10   6 920.980 548.833  16
  -5 -10   5 4908.34 1030.87  16
  -5  10   5 4455.82 1034.99  16
   5  10  -4 458.459 622.408   1
  -5 -10   4-382.340 535.180  16
  -5  10   4-33.6996 407.645  16
   5  10  -3 9.01874 507.862   1
  -5 -10   3 43.2941 519.533  16
  -5  10   3 110.119 441.179  16
   5  10  -2 647.833 615.308   1
  -5  10   2 1429.26 637.939  16
  -5 -10   2 707.827 501.031  16
   5  10  -1 10629.9 1570.17   1
  -5 -10   1 12363.3 1603.72  16
  -5  10   1 11709.7 1452.21  16
   5  10   0 46085.9 3130.04   1
  -5  10   0 47262.5 2720.32  16
   5 -10   1 23942.3 1215.82  20
  -5  10  -1 22482.2 1849.29  16
   5  10   1 23318.6 2213.77   1
   5 -10   2 32263.3 1456.96  20
   5 -10   2 34524.5 1799.80  19
   5  10   2 34949.9 2705.93   1
   5  10   3 1336.48 612.853   1
   5 -10   3 2234.89 432.405  20
   5 -10   3 2314.50 526.748  19
   5 -10   4 78993.6 2864.03  19
   5 -10   4 77543.5 2457.89  20
   5 -10   5 46009.9 2001.38  20
   5 -10   5 48554.3 2307.57  19
   5 -10   6 5243.61 1506.35  12
   5 -10   7 19276.1 2965.64  12
   5 -10   8 25562.1 1535.18  22
   5  10   8 22556.2 3032.06   9
   5 -10   8 24855.0 3494.05  12
  -5 -10  -8 20968.4 2370.26   4
   5 -10   9 608.861 790.018  12
  -5 -10  -9 386.564 496.985   4
   5 -10   9 837.503 532.866  22
   5  10   9-133.071 639.300   9
   5  10  10 1119.99 515.574  24
   5  10  10-677.511 691.993   9
   5 -10  10 2151.94 753.484  22
   5  10  10 1100.55 969.099   2
   5  10  11 507.242 641.742   2
   5  10  11-989.680 631.655   7
   5  10  11 0.70417 335.551  24
   5  10  11 93.7411 507.922   9
   5  10  12 3696.32 1443.76   2
   5  10  12 3763.73 1103.65   7
   5  10  12 4744.66 910.470  24
   5  10  12 3252.89 1116.63   9
   5  10  13 702.252 600.555   7
   5  10  13 463.644 399.458  24
   5  10  14 85.9594 338.762   7
   5  10  14-40.8715 286.634  24
   5  10  15-92.2071 193.883  24
  -5  11  15-139.119 324.538  11
  -5 -11  15 688.554 519.395  10
  -5 -11  14-655.515 499.714  11
  -5  11  14 182.331 410.882  11
  -5 -11  14-643.162 517.029  10
  -5 -11  13 418.729 557.505  11
  -5  11  13-313.196 508.507   2
  -5  11  13-64.7501 462.973  11
  -5 -11  13 447.270 630.095  10
  -5 -11  12 124.652 463.982  11
  -5 -11  12-58.9389 577.843  10
  -5  11  12 1111.95 853.085   2
  -5 -11  11-367.881 494.268  11
  -5 -11  11-351.078 562.042  10
  -5  11  11-1185.81 843.786   2
  -5 -11  10-200.845 693.414  11
  -5 -11  10 306.845 577.557  10
  -5  11  10-1658.12 970.977   2
  -5  11   9-207.759 406.092  16
  -5 -11   9 735.597 633.951  11
  -5 -11   9-34.1220 452.992  10
  -5 -11   8 23102.8 2956.97  11
  -5  11   8 26001.2 2790.64  16
  -5 -11   8 20140.7 2855.59  10
  -5 -11   7 1411.74 861.581  11
   5 -11  -7 593.892 444.953  21
  -5  11   7 914.623 548.617  16
   5  11  -6 3841.59 1200.08   1
  -5  11   6 2936.08 956.624  16
   5  11  -5 567.119 656.402   1
  -5 -11   5 381.701 453.893  16
  -5  11   5 95.6786 558.936  16
   5  11  -4 5318.74 1350.63   1
  -5 -11   4 3698.72 972.505  16
  -5  11   4 5537.16 1160.19  16
  -5 -11   3 8241.98 1353.84  16
  -5  11   3 8977.41 1421.55  16
   5  11  -3 8479.83 1589.54   1
   5  11  -2 3307.64 947.892   1
  -5  11   2 3186.34 775.676  16
  -5 -11   2 3390.93 880.397  16
   5  11  -1-108.405 472.196   1
  -5  11   1 59.9442 327.121  16
   5  11   0 155008. 5770.63   1
  -5  11   0 142402. 4985.15  16
  -5  11  -1 4592.55 901.315  16
   5  11   1 4669.96 1041.29   1
   5 -11   2 24576.7 1641.21  19
   5  11   2 26668.6 2486.02   1
   5  11   3-340.350 487.839   1
   5 -11   3-82.1299 288.970  20
   5 -11   3 251.215 292.368  19
   5 -11   4 4084.67 615.002  20
   5 -11   4 3611.22 699.490  19
   5 -11   5-256.282 377.854  19
   5 -11   5-63.7411 254.196  20
  -5 -11  -6 2166.65 865.831   4
   5 -11   7 1340.41 1289.72  12
  -5 -11  -7 35.8394 513.792   4
   5  11   7-856.006 723.784   9
   5  11   8 777.909 841.462   9
   5 -11   8 1895.57 1243.24  12
  -5 -11  -8 906.455 650.845   4
   5  11   8 1794.23 1021.72   3
   5 -11   9-6.68873 953.047  12
  -5 -11  -9 16.2287 487.030   4
   5  11   9 1212.65 745.369   3
   5  11   9-321.939 743.957   9
   5  11  10-650.277 747.865   2
   5  11  10-171.489 372.985  24
   5  11  10-418.511 755.170   9
   5  11  10 247.447 554.392   7
   5  11  11 7660.11 2009.30   2
   5  11  11 6133.70 1409.15   7
   5  11  11 6534.13 1079.03  24
   5  11  11 4213.28 1345.92   9
   5  11  12 2829.81 1316.25   2
   5  11  12 813.211 568.731   7
   5  11  12 2128.33 652.232  24
   5  11  13 401.871 440.022   7
   5  11  13-21.7624 261.750  24
   5  11  14 873.073 432.712   7
   5  11  14 1552.26 444.439  24
   5  11  15-67.7130 162.605  24
  -5  12  14 3306.81 929.041   2
  -5 -12  14 3170.10 884.533  11
  -5 -12  14 2886.86 923.292  10
  -5  12  14 2422.31 804.936  11
  -5 -12  13 5977.23 1383.00  11
  -5  12  13 5777.20 1423.77   2
  -5  12  13 7249.75 1517.06  11
  -5 -12  13 7255.99 1589.78  10
  -5 -12  12-651.975 622.717  11
  -5  12  12-91.2110 848.857   2
  -5 -12  12 384.126 592.200  10
  -5 -12  11 4431.91 1383.75  11
  -5 -12  11 6255.17 1682.02  10
  -5  12  11 6662.12 1775.87   2
  -5 -12  10 532.340 761.838  11
  -5  12  10 394.795 555.722   2
  -5 -12  10 222.624 564.563  10
  -5 -12   9 5618.03 1545.18  11
  -5  12   9 5126.37 1162.57  16
  -5 -12   9 6920.27 1694.97  10
  -5 -12   8 8315.11 1853.22  11
   5  12  -8 6276.67 1806.70   1
   5 -12  -8 6898.13 1097.70  21
  -5 -12   8 6047.65 1688.52  10
  -5  12   8 7324.24 1565.84  16
  -5  12   7-411.116 529.129  16
   5  12  -7 448.520 844.588   1
  -5 -12   7 384.687 498.467  11
  -5  12   7-1437.65 779.287   3
  -5 -12   7 606.907 462.519  10
   5 -12  -7 864.242 450.350  21
  -5  12   6 169.591 419.818  16
   5  12  -6 167.113 586.546   1
   5  12  -5 1940.82 805.455   1
  -5  12   5 2577.35 903.932  16
   5  12  -4 869.559 673.108   1
  -5  12   4 1417.19 603.662  16
   5  12  -3 113.696 554.844   1
  -5  12   3 72.6330 366.637  16
  -5  12   2 1590.99 591.721  16
   5  12  -2 1081.38 549.671   1
  -5  12   1 11156.9 1551.05  16
   5  12  -1 8557.51 1519.17   1
   5  12   0 7668.53 1465.58   1
  -5  12   0 8806.62 1314.86  16
   5  12   1 14547.2 1906.77   1
  -5 -12  -1 9935.39 1340.44   4
  -5 -12  -2 7403.12 1239.11   4
   5  12   2 8751.27 1500.68   1
   5 -12   2 9720.29 1103.21  19
  -5 -12  -3 955.676 537.905   4
   5 -12   3 1266.27 465.159  19
   5  12   3 642.302 553.489   1
   5 -12   4 13466.3 1335.43  19
  -5 -12  -4 14160.4 1788.04   4
   5 -12   5 34616.0 2122.23  19
  -5 -12  -5 34191.5 2870.20   4
  -5 -12  -6 1702.94 799.127   4
   5  12   7 12786.9 2141.34   3
   5  12   7 16687.4 2665.43   9
  -5 -12  -7 16610.0 2176.52   4
  -5 -12  -8 4911.26 1176.05   4
   5  12   8 3379.53 1239.90   3
   5  12   8 3965.21 1401.70   9
   5  12   9-1146.48 782.441   3
   5  12   9-384.241 575.189   9
   5  12  10 4590.25 1565.34   2
   5  12  10 3671.44 901.169  24
   5  12  10 4065.97 1339.70   9
   5  12  10 4762.02 1256.09   7
   5  12  11 1428.61 907.526   2
   5  12  11 580.309 459.219   7
   5  12  11 844.511 471.879  24
   5  12  12-772.059 699.162   2
   5  12  12-251.883 492.273   7
   5  12  12 52.8465 315.388  24
   5  12  13 805.404 440.867   7
   5  12  13 241.087 288.243  24
   5  12  14-500.497 304.829  24
  -5  13  14-0.83496 230.938  11
  -5 -13  14 152.157 287.833  11
  -5 -13  14-241.504 374.691  10
  -5 -13  13-764.285 561.157  11
  -5  13  13 134.409 390.895   2
  -5 -13  13 679.180 591.056  10
  -5  13  13-169.089 354.381  11
  -5 -13  12 127.211 734.860  11
  -5  13  12-1790.25 896.953   2
  -5 -13  12-82.6322 485.927  10
  -5 -13  11 4040.41 1244.28  11
  -5  13  11 2839.77 1176.08   2
  -5 -13  11 2821.81 1181.71  10
  -5 -13  10 408.143 587.762  11
  -5 -13  10 912.763 737.120  10
  -5  13  10 50.9592 802.198   2
  -5 -13   9 1124.92 692.713  11
  -5 -13   9 2595.95 1234.51  10
  -5 -13   8-1277.83 799.034  11
   5  13  -8 1123.55 979.793   1
  -5 -13   8 341.915 566.403  10
   5 -13  -8 265.466 327.607  21
  -5  13   8 1330.26 758.385  16
   5  13  -7 2525.16 733.536   1
  -5 -13   7 1745.14 900.300  11
  -5  13   7 2654.97 1003.31   3
  -5 -13   7 2738.62 1097.28  10
   5 -13  -7 3259.41 825.801  21
  -5  13   7 2837.86 974.186  16
  -5 -13   6 1609.15 960.516  11
  -5 -13   6-185.163 507.958  10
   5 -13  -6-122.420 310.237  21
  -5  13   6-65.8135 558.685  16
   5  13  -6 48.2002 615.715   1
   5  13  -5 44930.1 3995.80   1
  -5  13   5 52903.6 3926.84  16
   5  13  -4 30165.8 3171.52   1
  -5  13   4 31081.1 2938.99  16
   5  13  -3 54679.9 4094.38   1
  -5  13   3 57051.5 3851.12  16
   5  13  -2 9768.71 1699.41   1
  -5  13   2 9752.36 1589.55  16
   5  13  -1 4411.35 1147.28   1
  -5  13   1 2743.20 852.611  16
  -5  13   0 1682.03 707.364  16
   5  13   0 1676.72 735.321   1
   5  13   1 14050.3 1933.72   1
  -5 -13  -1 10919.5 1408.19   4
  -5 -13  -2 384.981 323.567   4
   5 -13   2-96.1083 315.948  19
   5  13   2-92.6291 467.931   1
  -5 -13  -3 1248.14 457.487   4
   5 -13   3 1924.91 601.090  19
  -5 -13  -4-149.565 528.854   4
   5 -13   4 2.27195 365.387  19
  -5 -13  -5 2856.67 929.628   4
   5 -13   5 3360.45 748.915  19
   5 -13   6 817.888 694.716   8
  -5 -13  -6 570.052 597.213   4
   5  13   6-716.162 656.004   3
   5  13   6 850.893 829.527   9
   5 -13   7 1043.83 786.322   8
  -5 -13  -7 517.410 605.675   4
   5  13   7 2205.83 975.491   3
   5  13   7 1222.99 1020.71   9
  -5 -13  -8 481.411 497.988   4
   5  13   8 475.161 603.411   3
   5  13   8 1369.11 883.823   9
   5  13   9-201.018 710.648   9
   5  13   9-1791.21 847.608   7
   5  13   9-90.8849 655.725   3
   5  13  10 2767.37 1032.53   7
   5  13  10 2376.28 717.926  24
   5  13  11 268.151 536.915   2
   5  13  11 1074.63 586.970   7
   5  13  11 647.846 440.637  24
   5  13  12 3135.17 1124.26   2
   5  13  12 2058.57 816.731   7
   5  13  12 1972.39 596.136  24
   5  13  13-180.639 336.690   7
   5  13  13-161.227 272.854  24
   5  13  14 633.533 284.190  24
  -5  14  14 396.903 316.747  11
  -5 -14  13 7407.97 1385.36  11
  -5  14  13 5428.39 1299.28   2
  -5  14  13 7223.08 1356.80  11
  -5 -14  13 6609.59 1359.82  10
  -5 -14  12 1919.06 824.015  11
  -5 -14  12 1647.83 774.402  10
  -5  14  12 1128.33 657.320   2
  -5 -14  11 1939.56 881.227  11
  -5 -14  11 3928.37 1317.31  10
  -5  14  11 2529.64 1077.69   2
  -5 -14  10 2537.71 1032.44  11
  -5 -14  10 1051.13 773.992  10
  -5  14  10 3711.59 1398.38   2
  -5 -14   9 2260.79 1033.73  11
  -5 -14   9 2973.89 1159.59  10
  -5 -14   8 1295.85 919.570  11
  -5 -14   8-509.952 620.757  10
   5 -14  -8 354.347 387.653  21
  -5 -14   7 814.579 717.054  11
  -5  14   7 2785.55 1040.61   3
  -5 -14   7 2212.84 1113.73  10
   5 -14  -7 1996.59 652.638  21
   5  14  -7 1659.34 839.214   1
  -5  14   7 1187.43 795.092  16
   5 -14  -7-196.775 490.979   5
  -5 -14   6 2496.37 1146.68  11
   5  14  -6 3505.47 1312.15   1
  -5 -14   6 3263.61 1133.28  10
   5 -14  -6 3069.77 739.148  21
  -5  14   6 4193.48 1231.46  16
   5  14  -5 5126.26 1533.76   1
  -5 -14   5 3892.22 1285.31  11
  -5 -14   5 6748.54 1617.73  10
  -5 -14   5 3761.82 842.368  25
   5 -14  -5 3983.37 866.996  21
  -5  14   5 4485.03 1237.36  16
  -5  14   4 369.355 425.387  16
   5  14  -4 668.941 849.270   1
   5  14  -3 667.524 500.977   1
  -5  14   3 1758.01 763.814  16
   5  14  -2 618.143 597.864   1
  -5  14   2-244.512 541.480  16
   5  14  -1 2881.70 1038.59   1
  -5  14   1 3379.27 925.060  16
  -5  14   0 3102.17 854.577  16
   5  14   0 4536.81 1181.69   1
   5  14   1-1630.08 783.889   1
  -5 -14  -2 7114.55 1217.48   4
   5  14   2 7324.38 1487.69   1
   5 -14   2 10902.1 1239.24  19
   5 -14   3 23941.3 1829.32  19
  -5 -14  -3 18893.5 2104.12   4
  -5 -14  -4 2266.00 869.040   4
   5 -14   4 1320.84 531.528  19
   5  14   5 19420.8 2675.26   3
   5 -14   5 20508.0 1748.42  19
   5  14   5 18832.5 2734.59   9
  -5 -14  -5 18174.2 2209.07   4
  -5 -14  -6 1162.08 773.719   4
   5 -14   6 454.933 828.267   8
   5  14   6-1249.16 773.495   3
   5  14   6 5.18120 721.733   9
   5 -14   7 13415.0 2418.37   8
   5  14   7 16580.2 2538.98   3
   5  14   7 16198.7 2721.96   9
  -5 -14  -7 15204.3 2148.62   4
   5  14   8 14431.5 2215.33   7
   5  14   8 12905.1 2250.35   3
   5  14   8 12613.6 2431.24   9
   5  14   9-397.750 673.064   7
   5  14   9-1907.55 917.110   3
   5  14  10 176.611 427.430   7
   5  14  10 372.848 324.872  24
   5  14  11 1089.41 690.280   7
   5  14  11 1461.50 600.262  24
   5  14  12 113.932 361.520   7
   5  14  12 183.260 239.781  24
   5  14  13 543.671 387.404   7
   5  14  13 709.565 355.081  24
  -5 -15  13-50.5153 284.195  11
  -5  15  13-640.271 496.839   2
  -5  15  13-703.457 437.030  11
  -5 -15  13 12.3719 354.108  10
  -5 -15  12 717.268 547.564  11
  -5 -15  12 450.862 554.259  10
  -5  15  12 234.490 458.988   2
  -5 -15  11-193.158 613.658  11
  -5 -15  11-283.920 545.393  10
  -5  15  11-258.275 491.511   2
  -5 -15  10 1082.30 774.432  11
  -5 -15  10 500.638 643.163  10
  -5  15  10 1430.13 882.799   2
  -5 -15   9 393.556 670.714  11
  -5 -15   9 616.755 788.701  10
  -5 -15   8 831.129 721.347  11
  -5 -15   8 2248.82 1035.06  10
  -5 -15   7 4616.11 1405.29  11
  -5  15   7 5343.31 1427.95   3
  -5 -15   7 4818.16 1426.85  10
   5 -15  -7 5049.60 963.621  21
   5 -15  -7 6188.09 1433.34   5
   5  15  -6 14599.9 2406.63   1
  -5 -15   6 12973.2 2378.25  11
  -5 -15   6 13473.3 2351.81  10
   5 -15  -6 16084.8 1680.70  21
  -5  15   6 16290.8 2377.31  16
  -5 -15   5 795.306 722.966  11
  -5 -15   5 692.205 681.675  10
   5 -15  -5 391.033 326.301  21
  -5 -15   5 908.368 521.164  25
  -5  15   5 996.298 698.468  16
   5  15  -5 818.250 734.783   1
  -5 -15   4 225.689 344.767  25
  -5 -15   4 1337.17 832.914  11
   5 -15  -4 224.937 285.554  21
   5  15  -4 1760.92 1016.31   1
  -5 -15   4-413.493 636.218  10
  -5  15   4-202.277 527.899  16
   5  15  -3 18334.3 2518.12   1
  -5 -15   3 20804.0 2930.96  11
  -5 -15   3 18267.1 1788.21  25
   5 -15  -3 20823.8 1794.58  21
  -5  15   3 15704.8 2160.87  16
  -5 -15   3 16346.5 2530.70  10
   5  15  -2 33671.3 3317.36   1
  -5  15   2 32106.0 2969.45  16
  -5  15   1 20.0269 387.962  16
   5  15  -1-164.164 693.068   1
   5  15   0 20950.4 2530.73   1
   5 -15   1 657.057 455.111  19
   5  15   1 744.810 533.861   1
  -5 -15  -2 1684.95 760.373   4
   5  15   2 922.168 642.683   1
   5 -15   2 979.813 517.195  19
  -5 -15  -3 3976.73 1068.59   4
   5 -15   3 2829.47 675.988  19
   5  15   3 2295.56 923.752   3
  -5 -15  -4 1170.99 800.679   4
   5 -15   4 1039.51 508.544  19
   5  15   4-919.361 684.300   3
  -5 -15  -5 1562.75 679.322   4
   5  15   5 1098.64 559.687   3
   5 -15   5 695.924 301.716  19
  -5 -15  -6 396.374 535.191   4
   5 -15   6 772.353 946.576   8
   5  15   6-631.527 658.390   3
   5 -15   7-888.153 788.591   8
   5  15   7-204.897 813.367   3
   5  15   7-85.5946 456.469   7
   5 -15   8 2593.82 1106.50   8
   5  15   8 107.136 465.206   7
   5  15   8 1752.76 863.737   3
   5  15   9 155.453 619.651   7
   5  15   9-1287.75 770.454   3
   5  15  10 486.816 520.452   7
   5  15  10 33.8591 360.154  24
   5  15  11 3211.79 983.177   7
   5  15  11 1968.14 593.142  24
   5  15  12 126.267 299.944   7
   5  15  12 999.415 406.262  24
   5  15  13 988.321 366.785  24
  -5 -16  13 1147.38 542.167  10
  -5 -16  12 854.302 520.115  11
  -5 -16  12 1466.09 631.247  10
  -5  16  12 1173.32 654.148   2
  -5 -16  11 346.362 424.052  11
  -5 -16  11-1037.98 644.454  10
  -5  16  11-490.694 535.140   2
  -5 -16  10 10418.0 1944.21  11
  -5  16  10 9786.38 2049.67   2
  -5 -16  10 10098.6 1910.82  10
  -5 -16   9-74.3323 525.093  11
  -5 -16   9 763.046 610.585  10
  -5 -16   8-21.6112 434.272  11
  -5 -16   8-202.927 483.146  10
  -5 -16   7 2587.48 931.450  11
  -5  16   7 3241.66 1026.46   3
  -5 -16   7 4836.25 1487.50  10
   5 -16  -7 4455.20 916.203  21
   5 -16  -7 4507.03 1243.30   5
  -5 -16   6 589.213 663.324  11
   5 -16  -6 1208.01 578.702  21
  -5 -16   6 1735.90 957.118  10
  -5 -16   5 168.047 516.801  11
   5 -16  -5 1491.49 569.155  21
   5  16  -5 1090.59 792.643   1
  -5  16   5 2735.50 1021.20  16
  -5 -16   5 760.532 333.815  25
  -5 -16   5 669.249 676.946  10
  -5 -16   4-491.931 601.400  11
   5  16  -4 211.574 496.141   1
  -5 -16   4 24.4775 433.835  10
   5 -16  -4-84.8652 380.662  21
  -5  16   4-460.918 546.303  16
  -5 -16   4-133.003 309.881  25
  -5 -16   3-1024.95 756.332  11
   5  16  -3-282.678 473.313   1
  -5 -16   3 62.1323 352.252  25
   5 -16  -3 212.462 373.327  21
  -5  16   3 267.133 475.546  16
   5  16  -2 347.230 604.887   1
  -5 -16   2 851.202 868.686  11
  -5 -16   2 57.8742 483.145  25
  -5 -16   2 457.576 647.831  10
   5 -16  -2 142.913 352.530  21
  -5  16   2 317.399 519.336  16
  -5 -16   1-609.294 406.975  25
  -5 -16   1-1081.67 745.028  11
  -5 -16   1-583.008 593.452  10
   5  16  -1-4.21006 438.081   1
  -5  16   1 61.9695 343.684  16
  -5 -16   0 2743.18 1080.30  11
  -5 -16   0 1507.57 553.717  25
   5  16   0 955.851 921.419   1
  -5 -16  -1 4779.55 955.187  25
   5 -16   1 5208.65 983.629  19
   5  16   1 3913.37 1183.67   1
   5  16   1 3793.10 1143.90   3
   5  16   2 2275.71 957.173   1
   5 -16   2 2195.56 666.962  19
   5  16   2 1064.52 666.853   3
  -5 -16  -3 5829.54 1259.30   4
   5 -16   3 6867.39 1076.45  19
   5  16   3 6871.85 1520.49   3
  -5 -16  -4 3070.93 983.916   4
   5 -16   4 5013.86 912.516  19
   5  16   4 4257.76 1227.50   3
  -5 -16  -5-1664.14 776.279   4
   5 -16   5-1233.21 809.600   8
   5  16   5-981.500 655.188   7
   5  16   5 17.1500 348.071   3
   5 -16   5-161.717 439.722  19
   5 -16   6 1437.55 1000.65   8
   5  16   6 2121.07 899.507   7
   5  16   6 3204.91 1203.18   3
   5 -16   7 9234.17 2085.10   8
   5  16   7 11512.5 1937.95   7
   5  16   7 8167.45 1821.25   3
   5 -16   8 15018.5 2599.59   8
   5  16   8 15494.2 2228.03   7
   5  16   8 13944.5 2349.92   3
   5  16   9 140.696 432.423   7
   5  16   9-299.225 480.539   3
   5  16  10 302.957 462.602   7
   5  16  10 555.847 398.767  24
   5  16  11 177.639 411.293   7
   5  16  11 238.723 243.833  24
   5  16  12 27.0342 353.744   7
   5  16  12-260.167 272.087  24
   5  16  13 79.7116 191.774  24
  -5 -17  12 277.796 465.967  10
  -5  17  12 187.125 294.834  11
  -5  17  12 150.465 353.665   2
  -5 -17  11 216.832 398.076  11
  -5 -17  11 762.528 560.556  10
  -5  17  11 553.267 502.975   2
  -5 -17  10 1315.32 662.729  11
  -5  17  10 716.690 546.377   2
  -5 -17  10 1253.09 800.246  10
  -5 -17   9 1777.09 783.270  11
  -5 -17   9 1573.87 878.506  10
  -5 -17   8-955.368 689.511  11
  -5 -17   8-404.574 559.159  10
  -5 -17   7 1698.52 890.000  11
  -5  17   7 1955.91 919.315   3
  -5 -17   7 987.906 724.475  10
   5 -17  -7 896.877 440.169  21
   5 -17  -7 845.848 661.432   5
  -5 -17   6 1732.54 957.448  11
  -5 -17   6 416.990 579.135  10
   5 -17  -6 966.157 606.222  21
  -5 -17   5 3627.90 1199.38  11
  -5 -17   5 2678.97 1183.26  10
   5 -17  -5 3534.80 828.334  21
  -5 -17   5 3349.84 828.795  25
  -5 -17   4 2021.31 992.003  11
   5  17  -4 2972.22 1072.82   1
  -5 -17   4 2096.20 1026.69  10
   5 -17  -4 1172.03 449.530  21
  -5 -17   4 1664.74 554.388  25
  -5  17   4 1064.71 862.343  16
   5  17  -3 7133.39 1690.81   1
  -5 -17   3 4540.19 1423.37  11
  -5 -17   3 5079.74 1553.56  10
  -5 -17   3 6472.51 1096.17  25
   5 -17  -3 6541.48 1070.69  21
  -5  17   3 4060.76 1196.33  16
  -5 -17   2 12014.6 2267.85  11
  -5 -17   2 11144.9 1423.71  25
   5 -17  -2 11988.6 1323.81  21
  -5 -17   2 10287.8 2067.28  10
  -5  17   2 10011.2 1751.13  16
   5  17  -2 14405.9 2304.25   1
   5 -17  -1 3852.24 1266.76   8
  -5 -17   1 4950.92 1569.99  11
  -5 -17   1 3737.00 843.039  25
  -5 -17   1 5893.71 1551.92  10
   5  17  -1 5269.89 1528.84   1
  -5  17   1 4434.74 1144.22  16
   5  17   0 4811.68 1342.15   3
   5  17   0 5142.98 1375.53   1
  -5 -17   0 4015.58 927.843  25
   5  17   1 4863.62 1341.43   1
   5 -17   1 6797.01 1066.92  19
   5  17   1 4223.70 1201.17   3
   5 -17   2 4735.18 908.859  19
   5  17   2 5960.83 1440.15   3
   5 -17   3 512.574 395.036  19
   5  17   3 525.837 424.754   3
  -5 -17  -4 10.5721 418.829   4
   5 -17   4 729.180 455.834  19
   5  17   4 429.111 376.869   3
   5 -17   5 957.547 758.022   8
   5  17   5-261.303 512.066   7
   5  17   5 190.692 523.993   3
   5 -17   6 452.469 715.148   8
   5  17   6 657.658 571.293   7
   5  17   6-415.693 553.332   3
   5 -17   7 390.048 606.723   8
   5  17   7 1287.36 756.265   7
   5  17   7 1459.43 846.654   3
   5 -17   8 707.638 675.781   8
   5  17   8 1932.82 802.982   7
   5  17   8 2080.53 870.224   3
  -5 -17  -8 1496.93 572.889  21
   5  17   9 158.032 381.072   7
   5  17   9-245.755 468.903   3
   5  17  10 778.322 492.655   7
   5  17  10 972.568 432.633  24
   5  17  11 44.1729 363.657   7
   5  17  11-137.285 207.810  24
   5  17  12 1047.87 336.658  24
  -5 -18  11 1659.33 747.262  11
  -5 -18  11 2601.42 866.700  10
  -5  18  11 322.750 470.089   2
  -5 -18  10-493.166 500.484  10
  -5 -18  10 243.947 332.715  11
  -5  18  10 718.966 707.014   2
  -5 -18   9-99.8706 679.507  11
  -5 -18   9 610.403 560.865  10
  -5 -18   8-259.269 532.387  11
  -5 -18   8 439.529 535.205  10
  -5 -18   7 2414.46 998.456  11
  -5 -18   7 809.285 463.934  10
   5 -18  -7 1924.82 604.744  21
   5 -18  -7 869.651 520.600   5
  -5 -18   6 1012.36 838.010  11
  -5 -18   6 2016.17 943.378  10
   5 -18  -6 1594.04 617.662  21
  -5 -18   5 103.277 410.157  11
  -5 -18   5 82.8367 564.665  10
   5 -18  -5-3.52980 322.605  21
  -5 -18   4 486.007 648.532  11
   5 -18  -4 21.4260 381.902  21
  -5 -18   4 577.200 490.883  10
  -5 -18   4-35.9802 337.080  25
  -5 -18   3 318.765 547.235  11
   5 -18  -3-948.153 466.329  21
  -5 -18   3-705.759 667.306  10
  -5 -18   3 213.295 355.712  25
  -5 -18   2 824.419 746.323  11
  -5 -18   2 303.841 441.674  10
   5 -18  -2 35.4732 293.704  21
  -5 -18   2 143.366 289.237  25
   5 -18  -1-84.6175 404.292   8
  -5 -18   1 8.40557 348.688  25
   5  18  -1 488.543 595.932   1
   5  18   0-366.322 537.386   1
   5 -18   0-79.3320 476.818   8
   5 -18   0 125.466 395.877  19
   5  18   0 1029.57 928.604   3
   5  18   1 4150.59 1354.67   1
   5 -18   1 5118.02 958.693  19
   5  18   1 4255.81 1232.29   3
   5  18   2 5715.54 1528.23   3
   5 -18   3 6969.32 1717.62   8
   5  18   3 8487.87 1787.92   3
   5 -18   4 2520.74 1179.57   8
   5  18   4 3571.05 1191.92   3
   5 -18   5 19733.9 2960.42   8
   5  18   5 19057.7 2677.38   3
   5 -18   6 1932.10 950.742   8
   5  18   6 1749.94 692.413   7
   5  18   6 1431.12 814.019   3
   5  18   7 1148.69 576.537   7
   5  18   7 131.292 414.561   3
   5 -18   8-784.195 686.107   8
   5  18   8 332.795 416.575   7
  -5 -18  -8 558.851 419.234  21
   5  18   8 281.331 456.697   3
   5  18   9 1241.75 662.311   7
   5  18   9 548.870 521.338   3
   5  18  10 9.75268 323.174   7
   5  18  10 178.438 254.315  24
   5  18  11 193.954 333.262   7
   5  18  11-219.008 263.565  24
  -5 -19  11 1635.29 640.493  10
  -5  19  11 252.930 375.849   2
  -5 -19  10 283.590 330.815  10
  -5  19  10 371.418 445.384   2
  -5 -19   9 467.210 496.653  11
  -5 -19   9 301.615 521.589  10
  -5  19   9-956.661 648.955   2
  -5 -19   8 1204.22 671.780  11
  -5 -19   8 427.659 606.784  10
  -5 -19   7 2200.38 959.404  11
  -5 -19   7 2838.23 1019.49  10
   5 -19  -7 2545.66 920.272   5
  -5 -19   6 405.217 532.916  11
   5 -19  -6 564.016 364.372  21
  -5 -19   6-177.776 587.054  10
  -5 -19   5 977.919 660.862  11
  -5 -19   5 31.9651 669.291  10
   5 -19  -5 537.293 377.881  21
  -5 -19   4-248.144 483.873  11
   5 -19  -4 801.405 402.366  21
  -5 -19   4 1387.44 481.198  25
  -5 -19   4-432.067 570.238  10
  -5 -19   3 27376.7 3351.99  11
  -5 -19   3 22799.2 3031.98  10
   5 -19  -3 21354.4 1818.26  21
  -5 -19   3 24245.0 2052.91  25
   5  19  -1 1479.90 805.379   3
   5 -19  -1 1953.77 948.137   8
   5 -19   0 2086.90 1172.38   8
   5  19   0 1905.34 919.712   3
   5 -19   1-1943.85 992.806   8
   5  19   1-503.815 500.161   3
   5 -19   2-1624.41 931.534   8
   5  19   2-190.343 423.955   3
   5 -19   3 4203.08 1373.28   8
   5  19   3 1658.09 826.299   3
   5 -19   4-40.1729 488.806   8
   5  19   4-181.704 453.388   3
   5 -19   5 956.616 553.970   8
   5  19   5 178.340 499.643   3
   5 -19   6-136.554 480.341   8
   5  19   6 110.573 380.908   7
   5  19   6-429.538 527.397   3
   5 -19   7 309.552 582.671   8
   5  19   7 696.772 502.712   7
   5  19   7-424.920 410.366   3
   5 -19   8-851.400 681.275   8
   5  19   8-635.780 480.723   7
   5  19   8-12.1151 367.257   3
  -5 -19  -8 262.466 320.800  21
   5  19   9 1086.41 617.817   7
   5  19   9 1054.35 586.941   3
   5  19  10-255.237 401.160   7
   5  19  10-162.572 257.527  24
   5  19  11 50.0308 185.641  24
  -5 -20  10 435.190 416.491  10
  -5  20  10 1381.69 667.004   2
  -5 -20   9-167.827 418.914  11
  -5  20   9 889.552 557.519   2
  -5 -20   8 220.540 412.864  11
  -5 -20   8 529.215 458.514  10
  -5 -20   7-1132.43 647.188  11
  -5 -20   7-561.931 584.200  10
   5 -20  -7 345.430 442.516   5
  -5 -20   6 328.800 456.405  11
   5 -20  -6 58.0804 268.780  21
   5 -20  -6 1141.41 660.239   5
  -5 -20   6-189.891 539.510  10
  -5 -20   5-116.695 495.853  11
  -5 -20   5 684.370 473.368  10
   5 -20  -5-451.576 354.712  21
  -5 -20   4 1319.07 882.352  10
   5 -20  -4 736.390 419.282  21
   5 -20  -3 364.640 438.987  21
   5  20  -2 528.467 516.690   3
   5 -20  -1 459.168 450.990   8
   5  20  -1-693.812 584.838   3
   5 -20   0 3922.28 1387.01   8
   5  20   0 3016.00 1055.43   3
   5 -20   1 1033.90 727.122   8
   5  20   1 33.2756 428.505   3
   5 -20   2-193.544 644.804   8
   5  20   2 141.788 454.719   3
   5 -20   3 442.004 643.258   8
   5  20   3 146.832 562.501   3
   5 -20   4 4115.63 1333.64   8
   5  20   4 5045.38 1335.35   3
   5 -20   5 22676.1 3021.09   8
   5  20   5 21976.0 2706.18   3
   5 -20   6 2661.92 1114.89   8
   5  20   6 4533.22 1249.80   3
   5 -20   7 2152.47 956.821   8
   5  20   7 2227.31 718.576   7
   5  20   7 654.734 561.786   3
  -5 -20  -7 846.709 442.794  21
   5 -20   8 4379.81 1194.19   8
   5  20   8 4437.26 953.286   7
  -5 -20  -8 4711.67 759.399  21
   5  20   8 3202.70 930.143   3
   5  20   9 903.676 370.332  24
   5  20  10 2424.89 450.580  24
  -5 -21   9-1210.54 553.180  10
  -5  21   9 156.998 403.083   2
  -5 -21   8 1651.27 707.845  10
   5 -21  -7 507.773 440.733   5
  -5 -21   7 401.214 337.128  10
   5 -21  -6 417.380 470.033   5
  -5 -21   6 473.898 655.869  10
  -5 -21   5 1237.87 724.422  10
   5 -21  -5 1467.10 480.552  21
   5  21  -4 607.141 533.884   3
   5 -21  -4 929.218 405.225  21
   5  21  -3 3294.46 1068.36   3
   5 -21  -3 2294.37 586.932  21
   5  21  -2 18383.8 2483.64   3
   5 -21  -1 777.690 716.717   8
   5  21  -1 640.615 513.817   3
   5 -21   0 19759.1 2784.24   8
   5  21   0 18834.7 2525.72   3
   5 -21   1-98.9635 470.560   8
   5  21   1-444.160 604.045   3
   5 -21   2 975.630 827.015   8
   5  21   2 1165.45 648.326   3
   5 -21   3 156.704 452.056   8
   5  21   3-407.130 509.252   3
   5 -21   4 140.536 504.525   8
   5  21   4 242.429 531.370   3
   5 -21   5 555.701 594.553   8
   5  21   5-115.333 346.231   3
   5 -21   6 829.236 648.432   8
   5  21   6 1664.87 816.086   3
   5 -21   7 240.351 578.848   8
  -5 -21  -7-120.800 237.932  21
   5  21   7-522.922 460.317   3
   5  21   8 477.290 395.378   3
  -5 -21  -8-198.523 250.743  21
   5  21   9 230.473 217.652  24
   5  22  -8 286.561 384.889   3
  -5  22   8-62.5656 370.820   2
   5  22  -7 1665.93 631.191   3
   5 -22  -7 3028.71 805.917   5
   5  22  -6-241.738 474.936   3
   5 -22  -6 803.467 569.975   5
   5  22  -5 1355.06 669.515   3
   5 -22  -5 608.396 524.720   5
   5 -22  -4-372.936 362.512  21
   5  22  -4 847.903 625.439   3
   5 -22  -3 1047.05 378.569  21
   5  22  -3 798.010 660.082   3
   5  22  -2-792.546 601.878   3
   5 -22  -1 480.628 537.863   8
   5  22  -1-464.093 485.976   3
   5 -22   0 4534.10 1271.63   8
   5  22   0 4348.53 1273.12   3
   5  22   1 606.108 598.364   3
   5 -22   1 38.3259 379.022   8
   5 -22   2 1663.33 853.272   8
   5  22   2 490.401 474.456   3
   5 -22   3 320.395 518.540   8
   5  22   3-256.846 474.960   3
   5 -22   4 7143.11 1638.21   8
   5  22   4 6967.16 1455.86   3
   5 -22   5 2708.37 1092.18   8
   5  22   5 2970.52 934.781   3
   5 -22   6-414.374 582.123   8
   5  22   6-169.372 440.868   3
  -5 -22  -6 256.952 262.430  21
   5 -22   7-15.1716 355.822   8
   5  22   7 588.840 400.199   3
  -5 -22  -7 652.509 296.751  21
   5 -22   8 3183.92 826.150   8
   5  22   8 2969.91 747.698   3
   5  22   8 2759.18 486.277  24
  -5 -22  -8 3494.61 532.384  21
   5  23  -7-327.797 377.236   3
   5 -23  -6 4151.26 958.194   5
   5  23  -6 3494.63 875.377   3
   5 -23  -5-77.3912 411.960   5
   5  23  -5 438.649 413.651   3
   5 -23  -4 656.766 528.680   5
   5  23  -4-365.276 477.653   3
   5  23  -3 3227.68 963.492   3
   5  23  -2 1118.94 646.463   3
   5 -23  -1-204.253 359.542   8
   5  23  -1-62.1498 486.440   3
   5 -23   0 1521.73 730.499   8
   5  23   0 2590.97 953.881   3
   5 -23   1-55.0048 428.877   8
   5  23   1 152.006 500.116   3
   5 -23   2-252.113 437.250   8
   5  23   2-49.0719 316.812   3
   5 -23   3 2302.43 883.581   8
   5  23   3 1247.21 657.572   3
   5 -23   4 1104.18 623.498   8
   5  23   4 833.818 607.528   3
   5 -23   5 303.043 423.616   8
   5  23   5-547.076 448.618   3
  -5 -23  -5 880.078 391.372  21
   5 -23   6 465.864 495.841   8
  -5 -23  -6 94.5487 198.513  21
   5  23   6 226.168 335.745   3
   5  23   7 271.174 256.146   3
  -5 -23  -7 707.546 284.678  21
   5  24  -6 767.372 349.469   3
   5 -24  -5-329.664 407.270   5
   5  24  -5 542.413 459.718   3
   5  24  -4-112.860 343.851   3
   5 -24  -4 435.972 366.272   5
   5  24  -3-96.9508 410.627   3
   5 -24  -3 75.0169 451.457   5
   5  24  -2 312.276 447.198   3
   5  24  -1 859.408 572.120   3
   5 -24   0 411.155 437.844   8
   5  24   0-551.785 456.494   3
   5 -24   1-11.0662 316.312   8
   5  24   1 442.465 441.194   3
   5 -24   2 836.416 591.800   8
   5  24   2 603.666 490.943   3
   5 -24   3-48.4702 421.984   8
   5  24   3 334.948 462.388   3
   5 -24   4 640.228 466.585   8
   5  24   4 197.222 341.873   3
  -5 -24  -4-42.2508 182.263  21
   5 -24   5 3404.85 913.385   8
   5  24   5 2573.86 736.165   3
  -5 -24  -5 3227.89 560.511  21
   5 -24   6 658.393 439.694   8
   5  25  -4 185.314 278.102   3
   5 -25  -4 287.351 293.642   5
   5  25  -3-98.0126 333.029   3
   5 -25  -3 731.876 434.805   5
   5  25  -2 3758.68 905.199   3
   5 -25  -2 3604.15 938.447   5
   5  25  -1 3158.75 808.690   3
   5 -25  -1 2436.60 823.513   5
   5 -25   0 521.419 402.022   8
   5  25   0-42.8614 280.256   3
   5 -25   0 226.883 328.438   5
   5 -25   1 127.530 294.121   8
   5  25   1 130.748 280.264   3
   5 -25   1 479.555 329.423   5
   5 -25   2 663.309 479.914   8
   5  25   2 5.54833 270.383   3
   5 -25   2 976.567 467.516   5
   5 -25   3 1.74071 253.493   8
  -5 -25  -3-34.0125 186.060  21
   5 -25   4 1143.52 489.434   8
  -5 -25  -4 1013.89 317.422  21
   5  25   4 1884.98 576.042   3
  -6   0  16-213.399 375.736  11
  -6   0  16-282.350 380.071  10
  -6   0  15 212.346 584.896  11
  -6   0  15-670.904 566.494  10
  -6   0  14 562.552 610.818  10
  -6   0  14 570.301 575.414  11
  -6   0  13-1169.34 765.702  10
  -6   0  13-230.715 617.393  11
  -6   0  12 2372.35 1072.97  11
  -6   0  12 623.470 650.245  10
  -6   0  11-952.477 803.988  12
  -6   0  11-491.781 591.345  11
  -6   0  10 5317.26 1686.03  12
  -6   0  10 4430.98 1261.29  11
  -6   0   9 417.665 633.553  12
  -6   0   8 12203.3 1609.52  16
  -6   0   7-136.184 347.652  16
  -6   0   6 1561.79 561.248  16
  -6   0   5 130.427 325.609  16
  -6   0   4 496119. 8129.60  16
  -6   0   3-80.4009 262.327  16
  -6   0   3 121.448 214.753  14
  -6   0   2 74337.2 2867.01  16
  -6   0   2 70771.3 2476.30  14
  -6   0   1 175.121 252.994  16
  -6   0   1-222.527 276.486  14
  -6   0   0 13497.5 1141.90  16
  -6   0   0 13204.3 1124.46  14
  -6   0  -1 117.204 189.733  16
  -6   0  -2 165627. 3694.34  16
   6   0   2 168280. 4725.24  12
   6   0   3-63.1759 347.702  12
   6   0   3-79.8357 211.651  20
   6   0   4-70.5907 425.849  12
   6   0   4 182.306 230.167  20
   6   0   5-190.318 516.577  12
   6   0   5-581.121 305.589  20
   6   0   6 1657.09 789.725  12
   6   0   6 2327.02 500.268  20
   6   0   7-336.567 485.751  12
   6   0   8 2695.87 984.816  12
   6   0   9 1003.20 755.116  12
   6   0  10 1685.95 929.313  12
   6   0  10 3384.73 750.767  24
   6   0  11 2301.91 1230.99  12
   6   0  11-710.035 442.806  24
   6   0  12 2393.72 704.153  24
   6   0  13-298.293 443.786  22
   6   0  13 299.795 365.085  24
   6   0  14 12524.5 1306.46  24
   6   0  14 14360.3 1136.99  22
   6   0  15-513.123 324.881  22
   6   0  16 7355.12 702.751  22
  -6  -1  16 160.572 361.421  11
  -6   1  16 862.979 458.865  11
  -6   1  16 783.165 501.005  10
  -6  -1  16 1373.67 666.094  10
  -6  -1  15 3237.52 1031.42  11
  -6   1  15 2515.92 834.994  10
  -6   1  15 2739.53 952.885  11
  -6  -1  15 2583.83 922.902  10
  -6  -1  14 2674.91 1031.41  10
  -6   1  14 4706.62 1308.82  10
  -6   1  14 5694.15 1471.61  11
  -6  -1  14 3875.76 1246.07  11
  -6  -1  13 283.255 523.820  11
  -6   1  13-1145.88 798.581  11
  -6   1  13-326.324 738.631  10
  -6  -1  13-340.143 685.481  10
  -6  -1  12 1663.29 893.794  11
  -6  -1  12 497.453 607.815  10
  -6   1  12 486.107 788.426  11
  -6  -1  11 819.957 649.552  12
  -6   1  11-431.951 604.143  12
  -6  -1  11-564.592 616.352  10
  -6  -1  11-343.440 579.417  11
  -6   1  11-1391.98 838.031  11
  -6  -1  10 13503.2 2355.95  12
  -6   1  10 11556.2 2245.45  12
  -6   1  10 13025.3 2305.46  11
  -6  -1  10 13545.5 2284.05  11
  -6  -1   9 1476.60 841.225  12
  -6   1   9 963.678 691.627  12
  -6   1   8 12436.7 1649.64  16
  -6  -1   8 12764.9 2031.66  12
  -6  -1   8 13724.9 1705.91  16
  -6  -1   7 25.8578 384.885  16
  -6   1   7 75.7948 448.351  16
  -6  -1   6 187.560 358.416  16
  -6   1   6 193.016 314.751  16
  -6  -1   5 289.052 356.560  16
  -6   1   5 68.0646 315.092  16
  -6  -1   4-320.667 313.049  16
  -6   1   4-161.481 288.105  16
  -6   1   3 1627.39 496.886  16
  -6   1   3 1476.51 433.209  14
  -6  -1   3 1591.32 489.851  16
  -6   1   2 6759.41 907.514  16
  -6  -1   2 7213.87 957.027  16
  -6   1   2 7061.41 832.159  14
  -6   1   1 10744.5 1053.36  16
  -6  -1   1 10160.5 1038.73  16
  -6   1   1 10673.4 1018.98  14
  -6  -1   0 18.6598 294.867  16
  -6   1   0 407.391 304.086  16
  -6   1   0 226.278 229.364  14
  -6  -1  -1 40373.7 1934.49  16
  -6   1  -1 36937.6 1767.59  16
   6   1   1 37881.7 2021.72  14
  -6  -1  -2 75660.8 2603.60  16
  -6   1  -2 75613.2 2399.08  16
   6   1   2 72056.9 2867.51  14
   6  -1   2 74333.4 3352.57  12
   6   1   2 73137.4 2922.94  12
   6  -1   3 24340.3 1158.33  20
  -6  -1  -3 21636.4 1346.67  16
   6   1   3 24884.3 1100.68  20
   6  -1   3 22770.9 1980.48  12
   6   1   3 26720.2 1940.04  12
   6  -1   4 39122.0 1546.08  20
   6   1   4 36890.9 1418.00  20
   6  -1   4 35674.0 2687.45  12
   6   1   4 37024.5 2553.33  12
   6   1   5 21689.2 1162.47  20
   6  -1   5 19475.5 1163.83  20
   6  -1   5 20810.3 2167.21  12
   6   1   5 20934.5 2053.61  12
   6   1   6 187156. 3574.97  20
   6  -1   6 191697. 3796.60  20
   6  -1   6 174169. 6647.67  12
   6   1   6 178230. 6466.77  12
   6  -1   7 999.365 568.010  12
   6   1   7 582.171 542.308  12
   6  -1   7 839.700 315.080  20
   6  -1   8 9216.63 1776.37  12
   6   1   8 10349.8 1798.93  12
   6  -1   9 3815.57 1315.25  12
   6   1   9 4546.20 1274.20  12
   6  -1  10 5647.53 1645.79  12
   6   1  10 4061.50 1349.90  12
   6   1  10 4410.43 838.790  24
   6  -1  10 3511.99 755.670  24
   6  -1  11 1104.69 881.807  12
   6   1  11 1611.98 919.751  12
   6  -1  11-998.741 484.736  24
   6   1  11-760.919 457.608  24
   6  -1  12 283.699 342.431  24
   6   1  12-151.067 323.964  24
   6  -1  13 649.386 410.156  24
   6   1  13 429.297 379.775  24
   6  -1  13-316.689 453.508  22
   6  -1  14 1063.50 460.604  24
   6   1  14 891.201 447.701  24
   6  -1  14 687.626 442.502  22
   6   1  14 402.902 329.336  22
   6   1  15 41.4041 287.419  22
   6  -1  15-476.029 314.397  22
   6   1  15 22.7730 220.746  24
   6   1  16 1645.56 423.626  22
  -6  -2  16 448.896 364.134  11
  -6   2  16-291.029 365.121  11
  -6  -2  16 192.990 341.490  10
  -6   2  16-364.057 379.580  10
  -6  -2  15-316.546 446.576  11
  -6   2  15 232.907 441.102  11
  -6  -2  15 329.346 438.449  10
  -6   2  15 512.657 368.663  10
  -6  -2  14-186.110 533.989  10
  -6  -2  14-1006.35 702.687  11
  -6   2  14-1607.34 814.816  10
  -6   2  14 42.5798 444.623  11
  -6  -2  13 327.372 431.882  11
  -6  -2  13 166.163 509.529  10
  -6   2  13 130.641 490.441  10
  -6   2  13-388.005 466.133  11
  -6   2  12-48.4857 719.731  11
  -6  -2  12 469.055 695.242  11
  -6  -2  12 706.061 654.219  10
  -6   2  11 542.020 664.581  12
  -6  -2  11-1418.97 831.589  10
  -6  -2  11 88.8785 537.221  11
  -6   2  11-634.466 621.262  11
  -6  -2  10 3226.52 1227.13  12
  -6   2  10 5253.30 1529.32  12
  -6   2  10 4850.27 1398.91  11
  -6  -2  10 2430.98 1141.46  11
  -6  -2  10 2398.27 863.738  10
  -6  -2   9-260.266 533.535  12
  -6   2   9-123.832 357.698  16
  -6  -2   8 10175.9 1872.62  12
  -6  -2   8 10040.9 1457.09  16
  -6   2   8 8884.50 1396.16  16
  -6  -2   7 101850. 5198.93  12
  -6   2   7 101559. 4397.65  16
  -6  -2   7 102667. 4372.59  16
  -6  -2   6 22192.0 1953.84  16
  -6   2   6 23587.3 2026.90  16
  -6  -2   5 66026.7 3204.67  16
  -6   2   5 69160.3 3227.56  16
  -6  -2   4 21829.6 1772.06  16
  -6   2   4 22147.8 1754.90  16
  -6  -2   3 1521.38 498.542  16
  -6   2   3 1478.80 511.785  16
  -6  -2   3 1283.23 339.734  15
  -6   2   3 1223.70 408.523  14
  -6   2   2 22642.2 1606.75  16
  -6  -2   2 24934.2 1700.38  16
  -6  -2   2 21838.7 1425.08  15
  -6   2   2 22479.3 1449.61  14
  -6  -2   1 54950.5 2432.67  16
  -6   2   1 55004.5 2347.86  16
  -6  -2   1 55794.0 2332.07  15
  -6   2   1 57355.9 2353.72  14
   6   2  -1 53481.0 2235.06  14
  -6  -2   0 1522.99 462.132  16
   6  -2   0 1218.93 199.988  19
  -6   2   0 1335.26 408.831  16
  -6  -2   0 1452.57 438.418  15
   6   2   0 1400.32 405.628  14
  -6  -2  -1 1135.83 418.536  16
   6   2   1 1096.87 419.583  14
  -6   2  -1 406.783 250.969  16
   6   2   2 694.326 224.850  20
  -6  -2  -2 242.511 305.357  16
  -6   2  -2 549.638 259.194  16
  -6  -2  -3 13745.0 1163.44  16
   6  -2   3 15811.9 958.137  20
   6   2   3 13696.5 800.675  20
   6  -2   3 14158.3 1646.56  12
   6  -2   4 178.624 393.039  12
   6   2   4 942.477 503.974  12
   6   2   4 628.994 249.821  20
   6  -2   4 493.315 268.003  20
   6   2   5 10535.6 820.674  20
   6  -2   5 11939.5 964.780  20
   6  -2   5 10870.9 1653.47  12
   6   2   5 10307.9 1435.01  12
   6  -2   6 551.532 617.544  12
   6   2   6 572.919 624.802  12
   6  -2   6 538.924 290.215  20
   6   2   6 467.296 247.823  20
   6  -2   7-372.323 562.599  12
   6   2   7-35.4261 356.946  12
   6  -2   7 254.887 265.336  20
   6  -2   8 465.144 776.888  12
   6   2   8 1155.32 827.717  12
   6  -2   9 1196.70 873.888  12
   6   2   9 1289.23 877.887  12
   6  -2  10 793.620 696.764  12
   6   2  10 491.221 523.670  12
   6  -2  10-381.281 436.906  24
   6   2  10 834.478 428.701  24
   6  -2  11 6382.07 1826.81  12
   6   2  11 7373.28 1862.49  12
   6  -2  11 8523.86 1157.29  24
   6   2  11 9319.75 1230.11  24
   6  -2  12 380.432 417.890  24
   6   2  12 226.562 287.244  24
   6  -2  12-350.677 496.482  22
   6  -2  13 3812.31 809.327  24
   6   2  13 4068.43 804.932  24
   6  -2  13 3676.95 629.811  22
   6   2  14 7078.50 991.705  24
   6  -2  14 7781.15 874.579  22
   6   2  14 8045.35 849.038  22
   6   2  15 1053.84 407.270  24
   6  -2  15 1531.22 455.404  22
   6   2  15 688.146 320.064  22
   6   2  16 1789.49 396.102  22
  -6  -3  16-19.2563 348.417  11
  -6   3  16-169.657 363.297  11
  -6  -3  16-347.274 504.479  10
  -6   3  16 752.981 378.970  10
  -6  -3  15 4413.51 1157.98  10
  -6  -3  15 4217.92 1152.66  11
  -6   3  15 4741.41 1152.00  11
  -6   3  15 5179.16 1190.21  10
  -6  -3  14-319.560 667.352  11
  -6  -3  14 692.613 627.827  10
  -6   3  14 229.286 416.217  10
  -6   3  14 646.818 550.761  11
  -6  -3  13 1250.68 839.585  11
  -6   3  13 959.440 627.542  11
  -6  -3  13 1415.41 868.955  10
  -6  -3  12 2750.34 997.525  10
  -6   3  12 3030.82 1166.11  11
  -6  -3  12 4157.53 1377.85  11
  -6   3  11 795.165 737.748  12
  -6   3  11 428.826 569.074  11
  -6  -3  11-1200.11 805.793  10
  -6  -3  11 605.547 746.192  11
  -6   3  10 1605.57 925.639  12
  -6   3  10 986.551 584.710  11
  -6  -3  10 1675.22 851.999  10
  -6  -3  10 1733.51 866.980  11
  -6   3   9 9891.92 1574.73  16
  -6  -3   8-214.137 507.294  16
  -6   3   8-77.3835 405.214  16
  -6  -3   7 20912.3 1974.79  16
  -6   3   7 23275.8 2163.20  16
  -6  -3   6 2240.88 663.432  16
  -6   3   6 1687.45 616.834  16
  -6  -3   5 221.430 360.410  16
  -6   3   5 279.385 288.192  16
  -6  -3   4 256.895 295.535  16
  -6   3   4 819.439 388.181  16
  -6  -3   3-66.1340 308.957  16
  -6   3   3 193.517 335.177  16
  -6   3   2 16088.8 1398.11  16
  -6  -3   2 16332.2 1428.61  16
  -6  -3   2 17129.0 1283.38  15
   6   3  -2 14161.0 1151.09  14
  -6  -3   1 20158.2 1524.41  16
  -6  -3   1 17361.6 1337.17  15
   6   3  -1 17916.8 1346.40  14
  -6   3   1 16893.8 1339.14  16
   6   3   0 4075.84 656.501   1
   6  -3   0 4874.95 416.851  19
  -6   3   0 5460.82 737.901  16
  -6  -3   0 4386.64 743.880  16
   6   3   0 5098.39 747.153  14
   6  -3   1 370.234 168.015  19
  -6  -3  -1 433.572 332.880  16
  -6   3  -1 337.061 227.518  16
   6   3   1 329.530 290.898  14
  -6  -3  -2 356.347 248.142  16
  -6   3  -2 521.062 305.256  16
   6   3   2 138.905 146.627  20
   6   3   3 49117.3 1451.62  20
   6  -3   3 51915.1 1745.70  20
  -6  -3  -3 46942.6 2253.69  16
   6  -3   3 52175.7 3284.60  12
   6  -3   4 6137.70 688.051  20
   6  -3   4 5282.04 1133.32  12
   6   3   4 4715.67 504.783  20
   6   3   5-132.336 216.494  20
   6  -3   5 185.796 250.006  20
   6  -3   6 10925.6 1776.25  12
   6  -3   6 10297.4 952.596  20
   6  -3   7-331.663 640.657  12
   6   3   7 488.799 482.039  12
   6  -3   7-64.0685 312.647  20
   6  -3   8 2176.80 916.618  12
   6   3   8 3470.38 1087.34  12
   6  -3   9 125.772 743.204  12
   6  -3  10-1249.92 916.967  12
   6  -3  10-221.681 419.014  24
   6   3  10-169.401 303.876  24
   6   3  10-337.429 532.661   9
   6  -3  11 1387.96 1025.33  12
   6  -3  11 505.374 556.941  24
   6   3  11 1003.15 528.497  24
   6   3  12 1704.66 539.631  24
   6  -3  12 395.176 429.969  22
   6  -3  12 1797.36 596.709  24
   6  -3  13 935.391 490.505  24
   6   3  13 736.418 423.284  24
   6  -3  13 299.293 354.160  22
   6   3  14 911.844 428.892  24
   6  -3  14 1308.32 468.708  22
   6   3  14 628.882 369.889  22
   6   3  15 82.4987 277.755  24
   6   3  15 185.424 277.276  22
   6   3  16 371.953 237.785  22
  -6  -4  16 109.799 284.816  11
  -6   4  16 183.755 292.073  11
  -6  -4  16-483.359 392.796  10
  -6   4  16 393.482 463.449  10
  -6  -4  15-170.684 401.773  11
  -6   4  15 1368.56 699.018  11
  -6  -4  15 204.724 475.617  10
  -6   4  15 1854.18 755.841  10
  -6  -4  14-207.337 513.278  11
  -6   4  14 12.7717 432.985  11
  -6  -4  14 617.926 640.098  10
  -6   4  14-906.534 638.249  10
  -6  -4  13 1072.61 783.388  11
  -6   4  13 115.872 558.357  11
  -6  -4  13 594.498 593.009  10
  -6  -4  12-48.6794 439.704  11
  -6   4  12 115.695 477.407  11
  -6  -4  12 754.926 679.573  10
  -6   4  11 1983.89 1020.53  12
  -6   4  11 427.434 798.550  11
  -6  -4  11-131.669 598.647  10
  -6  -4  11-1.71618 555.988  11
  -6  -4  10 3304.39 1172.13  10
  -6   4  10 6116.31 1620.04  11
  -6  -4  10 7253.53 1799.03  11
  -6   4   9 13616.3 1827.98  16
  -6   4   8 3391.44 960.783  16
  -6   4   7 23266.1 2145.13  16
  -6  -4   7 20289.6 1972.10  16
  -6   4   6 519.724 387.662  16
  -6  -4   6 543.336 366.922  16
  -6  -4   5 73570.1 3382.50  16
  -6   4   5 76387.4 3483.58  16
  -6  -4   4 118943. 4146.09  16
  -6   4   4 121303. 4194.03  16
  -6  -4   3 21129.2 1697.26  16
  -6   4   3 20182.9 1657.70  16
  -6  -4   2 17365.9 1526.84  16
  -6   4   2 17531.6 1463.58  16
  -6  -4   2 14141.7 1188.35  15
   6   4  -2 16021.0 1216.60  14
  -6   4   1 1693.49 472.148  16
   6   4  -1 2668.36 615.672   1
  -6  -4   1 1322.46 455.468  16
   6   4  -1 1580.82 417.512  14
   6   4   0 11043.4 1121.06   1
  -6   4   0 11838.1 1102.49  16
   6  -4   0 13162.0 710.864  19
  -6  -4   0 12915.8 1274.60  16
   6   4   0 10378.0 1058.64  14
   6   4   1 2744.69 531.205   1
  -6  -4  -1 3558.43 675.359  16
   6  -4   1 3136.43 393.147  19
  -6   4  -1 2905.23 543.459  16
   6   4   2 70.8152 136.806  20
  -6  -4  -2-184.554 267.390  16
   6  -4   2 123.117 192.176  19
   6  -4   3 4290.30 1104.81  12
  -6  -4  -3 3175.55 702.900  16
   6   4   3 4647.20 453.513  20
   6  -4   3 4490.62 578.053  20
   6  -4   4 378.612 478.136  12
   6   4   4 457.599 198.003  20
   6  -4   4 431.333 267.052  20
   6  -4   5 1837.61 840.204  12
   6   4   5 2816.85 410.288  20
   6  -4   5 2319.64 486.568  20
   6  -4   6 1569.33 790.946  12
   6  -4   6 1347.27 458.755  20
   6  -4   7 199.542 536.098  12
   6  -4   7 225.120 303.417  20
   6  -4   8 386.871 626.669  12
   6  -4   9 1639.69 1104.67  12
   6  -4  10 660.095 871.978  12
   6   4  10 443.669 370.262  24
   6   4  10 214.874 524.030   9
   6  -4  10 55.4030 292.392  24
   6  -4  11 1181.99 1059.88  12
   6  -4  11 3476.59 803.137  24
   6   4  11 3397.74 804.360  24
   6  -4  11 1913.72 432.625  22
   6  -4  12 321.757 375.934  24
   6   4  12-502.870 399.739  24
   6  -4  12-632.516 536.435  22
   6   4  13 4292.16 836.016  24
   6  -4  13 4937.85 777.345  22
   6  -4  14 1614.13 470.623  22
   6   4  14 1920.89 537.021  24
   6   4  14 818.724 304.184  22
   6   4  15 1276.20 421.388  24
   6   4  15 2125.24 412.668  22
  -6  -5  16 1469.79 571.555  11
  -6  -5  16 22.3593 375.620  10
  -6   5  16 663.487 448.790  11
  -6  -5  15-560.759 503.999  11
  -6   5  15 217.969 443.579  11
  -6  -5  15 6.60892 311.022  10
  -6   5  15 190.544 360.493  10
  -6  -5  14 12613.0 2137.48  11
  -6   5  14 14495.0 2199.16  11
  -6  -5  14 14413.2 2205.34  10
  -6  -5  13-499.819 536.013  11
  -6   5  13 92.1878 567.262  11
  -6  -5  13-310.183 464.399  10
  -6  -5  12 13697.4 2380.45  11
  -6  -5  12 12214.9 2247.82  10
  -6   5  12 13499.7 2323.97  11
  -6   5  11 1690.86 931.897  12
  -6  -5  11 48.6303 597.394  11
  -6   5  11 130.264 748.097  11
  -6  -5  10 16137.3 2535.99  11
  -6  -5  10 15390.3 2404.94  10
  -6  -5   9 8780.76 1802.64  11
  -6   5   9 6439.02 1384.07  16
  -6   5   8 12234.4 1711.39  16
  -6   5   7 535.769 372.255  16
  -6  -5   7-104.764 462.863  16
  -6  -5   6 3858.54 881.795  16
  -6   5   6 5306.79 1039.03  16
  -6   5   5 568.562 448.261  16
  -6  -5   5 467.179 345.421  16
  -6  -5   4 3172.95 746.397  16
  -6   5   4 3137.00 758.836  16
  -6   5   3-17.0407 402.490  16
  -6  -5   3 457.946 338.826  16
  -6  -5   2-226.269 464.346  16
  -6   5   2 5.35165 342.348  16
  -6  -5   2 52.6754 281.626  15
   6   5  -2 53.7433 206.228  14
  -6   5   1-93.2741 234.856  18
   6   5  -1-362.052 322.730   1
  -6  -5   1 185.388 268.585  16
  -6   5   1-205.895 341.336  16
   6   5  -1 294.027 279.640  14
  -6   5   0 1402.13 410.387  16
  -6  -5   0 2406.54 622.783  16
   6   5   0 1754.36 541.740   1
  -6   5  -1 132.468 213.869  16
   6  -5   1 134.312 156.282  19
  -6  -5  -1 347.156 341.521  16
   6  -5   2 12093.0 874.464  20
   6  -5   2 11064.6 804.354  19
  -6  -5  -2 12392.5 1318.25  16
   6   5   2 11147.6 1146.18   1
   6  -5   3 1341.43 696.056  12
   6  -5   3 888.646 323.976  20
   6  -5   3 816.247 291.863  19
  -6  -5  -3 579.566 400.569  16
   6  -5   4 85881.2 2474.43  20
   6  -5   4 80475.8 4567.47  12
   6  -5   5 7769.20 1593.87  12
   6  -5   5 11287.5 983.285  20
   6  -5   6 62985.9 2397.18  20
   6  -5   6 59595.9 4349.09  12
   6  -5   7 3741.25 1237.04  12
   6  -5   7 3288.27 612.217  20
   6  -5   8 8767.18 1958.96  12
   6  -5   9-2777.87 1232.42  12
   6   5   9 559.316 317.592  24
   6   5  10 1272.75 867.765   2
   6  -5  10-292.907 400.010  24
   6   5  10 45.4086 326.552  24
   6  -5  10-365.727 457.150  22
   6   5  10 41.1544 463.841   9
   6  -5  11 1829.63 1059.79  12
   6  -5  11 1084.55 545.319  24
   6   5  11 1124.00 531.427  24
   6  -5  11 370.254 454.890  22
   6   5  11 1687.37 884.501   9
   6  -5  12 19.6466 367.866  22
   6   5  12-16.3466 340.422  24
   6   5  13 178.524 310.966  24
   6  -5  13-11.1575 340.489  22
   6   5  14 576.410 371.433  24
   6  -5  14 860.346 434.704  22
   6   5  15-61.1340 211.583  24
   6   5  15-131.680 338.610  22
  -6   6  16 1035.02 529.033  11
  -6  -6  15-14.2555 473.564  11
  -6   6  15 634.154 569.163  11
  -6  -6  15 363.056 378.064  10
  -6   6  15-33.9085 417.035  10
  -6  -6  14-106.882 458.788  11
  -6   6  14 805.108 649.983  11
  -6  -6  14 1476.95 760.754  10
  -6  -6  13 1645.02 958.861  11
  -6   6  13 676.596 537.768  11
  -6  -6  13 695.618 689.155  10
  -6  -6  12 1021.35 842.178  11
  -6  -6  12 1447.65 911.412  10
  -6   6  12 2277.55 1067.41  11
  -6  -6  11 1634.56 892.404  11
  -6   6  11 1013.17 717.061  11
  -6  -6  11 1132.13 746.802  10
  -6  -6  10 4756.25 1471.77  10
  -6  -6  10 3189.14 1190.83  11
  -6   6   9 338.220 319.092  16
  -6  -6   9 1312.84 905.055  11
  -6   6   8 5708.19 1204.85  16
  -6   6   7 19699.3 2066.45  16
  -6  -6   7 19581.8 2010.78  16
  -6  -6   6 29085.9 2321.37  16
  -6   6   6 31442.7 2477.64  16
  -6  -6   5 53248.6 3049.22  16
  -6   6   5 55668.2 3171.56  16
  -6  -6   4 139932. 4724.84  16
  -6   6   4 147966. 4902.82  16
  -6   6   3 15234.3 1518.47  16
  -6  -6   3 14612.1 1535.29  16
  -6  -6   2 9319.66 1181.59  16
  -6   6   2 10287.4 1195.57  16
   6   6  -2 6915.15 854.118  14
   6   6  -1 625.492 382.546   1
  -6   6   1 188.875 248.676  18
  -6  -6   1 519.631 449.959  16
  -6   6   1 253.705 234.553  16
  -6   6   0 438.054 232.399  18
  -6  -6   0-224.422 337.139  16
   6   6   0 34.0485 343.411   1
  -6   6   0-10.3679 276.045  16
   6  -6   1 1227.35 308.698  19
   6   6   1 1241.57 489.866   1
  -6  -6  -1 823.743 366.143  16
  -6   6  -1 1815.65 454.254  16
   6   6   2 8031.54 1079.50   1
   6  -6   2 9167.01 763.981  20
  -6  -6  -2 7424.90 1101.38  16
   6  -6   2 8147.68 738.848  19
   6  -6   3 32.0203 240.227  20
   6  -6   3-116.260 274.456  19
   6  -6   4 4845.31 1270.10  12
   6  -6   4 3476.00 556.632  20
   6  -6   5 151.919 555.615  12
   6  -6   5 296.853 278.330  20
   6  -6   6 1412.75 945.760  12
   6  -6   6 1455.86 473.013  20
   6  -6   7 4788.22 1432.23  12
   6  -6   7 6274.70 859.499  20
   6  -6   8 4115.49 1354.27  12
   6  -6   9-765.243 909.330  12
   6  -6   9 233.824 342.188  24
   6   6   9-916.156 440.936  24
   6  -6   9-234.260 447.596  22
   6   6   9-498.036 704.112   9
   6  -6  10 5156.06 1755.91  12
   6   6  10 4337.24 876.864  24
   6  -6  10 4740.06 662.652  22
   6   6  10 4512.16 1371.30   9
   6   6  11 68.4013 287.418  24
   6  -6  11 302.911 422.459  22
   6   6  11 452.085 629.528   9
   6   6  12 204.963 319.405  24
   6  -6  12-116.960 494.224  22
   6  -6  13 6638.66 855.585  22
   6   6  13 6780.68 1013.27  24
   6   6  14 7385.63 993.852  24
   6  -6  14 11117.0 1061.00  22
   6   6  15 552.850 292.770  24
   6   6  15 45.6133 295.415  22
   6   6  16 2245.34 419.055  24
  -6  -7  15 5351.21 1205.18  11
  -6   7  15 5546.04 1186.03  11
  -6  -7  15 5011.93 1104.35  10
  -6   7  15 2825.53 866.158  10
  -6  -7  14 2216.67 963.330  11
  -6  -7  14 2249.19 925.319  10
  -6   7  14 2476.98 923.382  11
  -6  -7  13 1090.82 752.389  11
  -6  -7  13 2038.59 907.037  10
  -6   7  13 456.264 549.611  11
  -6  -7  12 5195.62 1499.68  11
  -6   7  12 5288.52 1490.51  11
  -6  -7  12 5332.31 1530.97  10
  -6  -7  11 9094.24 2030.69  11
  -6  -7  11 5618.00 1603.86  10
  -6  -7  10-834.906 729.667  11
  -6  -7  10-976.937 731.050  10
  -6   7  10 1119.41 745.683  16
  -6  -7   9 4911.96 1414.34  11
  -6  -7   9 3956.79 1299.98  10
  -6   7   9 6194.42 1334.25  16
  -6   7   8 248.399 376.027  16
  -6   7   7 16878.3 1983.16  16
  -6  -7   6 1848.89 617.360  16
  -6   7   6 2485.02 802.133  16
  -6  -7   5 941.868 456.920  16
  -6   7   5 2305.66 882.615  16
  -6  -7   4-318.063 449.489  16
  -6   7   4-141.418 364.618  16
  -6  -7   3 797.803 481.237  16
  -6   7   3 739.749 494.237  16
  -6   7   2 1155.42 463.507  16
   6   7  -2 718.624 492.876   1
  -6  -7   2 1105.15 491.289  16
  -6   7   1-105.212 334.019  16
   6   7  -1 777.811 453.611   1
  -6  -7   1 204.505 434.272  16
   6   7   0 14437.9 1521.56   1
  -6  -7   0 17046.8 1654.47  16
  -6   7   0 15280.5 1407.23  16
   6   7   1 2766.52 720.633   1
   6  -7   1 2921.05 476.291  19
  -6  -7  -1 2711.87 725.688  16
  -6   7  -1 1848.72 460.678  16
   6  -7   2 10711.4 853.028  20
   6  -7   2 10922.1 865.638  19
  -6  -7  -2 10127.1 1388.35  16
   6   7   2 10295.4 1301.67   1
   6  -7   3 46551.4 1816.02  20
   6   7   3 43637.2 2671.02   1
   6  -7   3 43981.4 1787.14  19
   6  -7   4 35217.7 1677.12  20
   6  -7   4 33385.5 1655.41  19
   6  -7   4 37221.3 3367.94  12
   6  -7   5 2523.09 1075.16  12
   6  -7   5 2190.86 507.358  20
   6  -7   6 32566.8 1801.18  20
   6  -7   6 34102.9 3527.29  12
   6  -7   7 3748.25 1367.41  12
   6  -7   7 2814.33 601.803  20
   6  -7   8 15297.1 2601.68  12
   6  -7   9 2841.07 1281.58  12
   6  -7   9 1147.13 400.174  22
   6   7   9 2281.49 679.467  24
   6   7   9 2348.28 956.728   9
   6  -7  10 2802.33 1336.81  12
  -6  -7 -10 499.758 435.437   4
   6   7  10 1336.03 571.967  24
   6  -7  10 1785.63 495.195  22
   6   7  10 869.086 770.602   9
   6   7  11 2847.64 1248.92   2
   6   7  11 1890.56 670.186  24
   6  -7  11 2107.17 588.159  22
   6   7  11 4482.61 1361.17   9
   6  -7  12 309.590 365.883  22
   6   7  12-358.640 325.918  24
   6   7  13 501.871 337.995  24
   6  -7  13 1774.97 622.600  22
   6   7  14-124.190 257.799  24
   6   7  15-89.7498 232.024  24
   6   7  15-418.055 294.061  22
  -6  -8  15 989.420 538.225  11
  -6  -8  15-571.096 436.509  10
  -6   8  15-351.030 362.568  10
  -6   8  15 250.943 443.221  11
  -6  -8  14 27.2024 353.061  11
  -6   8  14 421.048 400.784  11
  -6  -8  14 135.943 440.261  10
  -6  -8  13 498.031 587.501  11
  -6  -8  13-125.623 502.883  10
  -6   8  13 717.386 503.903  11
  -6  -8  12 37.7680 547.172  11
  -6   8  12 903.365 729.103  11
  -6  -8  12-1297.43 857.078  10
  -6  -8  11 184.314 523.600  11
  -6  -8  11 1986.87 973.429  10
  -6  -8  10 5547.29 1632.37  11
  -6  -8  10 5531.41 1516.85  10
  -6   8  10 5768.35 1334.85  16
  -6  -8   9 9594.08 2010.48  11
  -6  -8   9 5337.61 1537.84  10
  -6   8   9 6480.07 1411.41  16
  -6   8   8 1243.62 572.532  16
  -6   8   7 50530.5 3468.29  16
  -6   8   6 18118.6 2025.86  16
  -6  -8   6 16419.8 1830.67  16
  -6   8   5 76774.1 4028.49  16
  -6  -8   5 74004.2 3801.98  16
  -6  -8   4-312.088 357.421  16
  -6   8   4 122.690 410.819  16
   6   8  -3 27807.4 2463.99   1
  -6  -8   3 27291.8 2270.99  16
  -6   8   3 28458.8 2266.41  16
   6   8  -2 6179.09 1185.78   1
  -6  -8   2 6826.84 1146.66  16
  -6   8   2 7500.52 1140.04  16
   6   8  -1 71526.6 3571.83   1
  -6  -8   1 67992.1 3463.33  16
  -6   8   1 65734.9 3208.57  16
   6   8   0 9290.89 1328.41   1
  -6  -8   0 9671.45 1345.69  16
  -6   8   0 9245.70 1123.10  16
   6   8   1 163.112 298.500   1
   6  -8   1 679.312 320.627  19
  -6  -8  -1 593.233 409.019  16
  -6   8  -1 360.962 274.867  16
   6  -8   2 27220.5 1367.38  20
   6  -8   2 25464.4 1428.22  19
   6   8   2 24344.2 2117.23   1
   6  -8   3 12569.2 1041.04  19
   6  -8   3 12164.4 983.261  20
   6   8   3 10393.6 1425.71   1
   6  -8   4 3129.95 548.150  20
   6  -8   4 3076.10 551.012  19
   6  -8   5 1681.78 1031.89  12
   6  -8   5 292.241 254.093  20
   6  -8   6 457.798 795.768  12
   6  -8   6 520.112 297.294  20
   6  -8   7 962.285 818.032  12
   6  -8   8 967.682 980.343  12
   6  -8   9 2044.26 1174.72  12
   6   8   9 1958.06 618.652  24
   6  -8   9 2073.00 602.545  22
   6   8   9 1167.31 556.556   9
   6  -8  10-1155.75 982.792  12
  -6  -8 -10 354.287 476.507   4
   6   8  10-651.440 445.542  24
   6  -8  10-277.796 487.150  22
   6   8  10-452.289 513.491   9
   6   8  11 17360.3 2933.41   2
   6   8  11 14767.0 1603.84  24
   6  -8  11 15659.1 1333.96  22
   6   8  11 14639.2 2425.03   9
   6   8  12 792.879 602.944   7
   6   8  12 1390.70 538.856  24
   6  -8  12 1803.58 594.840  22
   6   8  12 408.746 551.022   9
   6   8  13 14041.1 1845.47   7
   6   8  13 17402.9 1568.99  24
   6   8  14-194.597 346.307  24
   6   8  15 119.847 226.602  24
  -6  -9  15 7296.39 1256.84  11
  -6  -9  15 8199.57 1353.01  10
  -6   9  15 4940.11 1026.00  10
  -6   9  15 7173.18 1248.00  11
  -6  -9  14 2254.52 854.057  11
  -6   9  14 2927.64 991.117  11
  -6  -9  14 2600.83 935.570  10
  -6  -9  13 3597.63 1275.37  11
  -6   9  13 4546.51 1245.27  11
  -6  -9  13 3137.02 1018.52  10
  -6  -9  12 2555.29 1121.92  11
  -6   9  12 1901.70 916.527  11
  -6   9  12 3017.57 1158.65   2
  -6  -9  12 1933.68 866.884  10
  -6  -9  11 2327.24 1090.00  11
  -6   9  11 4210.27 1453.23   2
  -6  -9  11 4442.03 1412.67  10
  -6  -9  10 7875.20 1831.96  11
  -6  -9  10 7900.95 1778.50  10
  -6   9  10 10091.2 2171.27   2
  -6   9  10 9969.83 1725.95  16
  -6  -9   9 1461.55 988.063  11
  -6   9   9 3091.23 1038.71  16
  -6  -9   9 1777.99 960.672  10
  -6   9   9 3510.06 1275.65   2
  -6  -9   8-807.429 693.055  10
  -6   9   8-247.762 568.941  16
  -6   9   7 2445.90 879.638  16
  -6   9   6 1271.39 805.564  16
  -6  -9   6 7.46473 388.912  16
  -6  -9   5 844.120 566.534  16
  -6   9   5 591.945 539.245  16
   6   9  -4 2487.72 930.818   1
  -6  -9   4 1822.16 691.073  16
  -6   9   4 1285.65 659.645  16
   6   9  -3 728.841 584.975   1
  -6  -9   3 758.933 543.753  16
  -6   9   3 730.928 495.506  16
  -6   9   2 6255.90 1101.22  16
   6   9  -2 4760.51 1073.13   1
  -6  -9   2 5482.92 1126.60  16
  -6  -9   1 2031.87 663.169  16
  -6   9   1 2044.96 654.778  16
   6   9  -1 2356.94 757.620   1
  -6  -9   0 1624.15 637.475  16
  -6   9   0 1029.48 468.755  16
   6   9   0 420.399 342.472   1
   6  -9   1 6996.63 707.220  20
   6  -9   1 7170.04 826.961  19
  -6  -9  -1 5975.90 1107.15  16
  -6   9  -1 5904.69 926.866  16
   6   9   1 6886.11 1178.26   1
   6  -9   2 2355.42 508.912  19
   6  -9   2 2361.17 454.128  20
   6   9   2 2144.68 729.340   1
   6  -9   3 42749.8 1984.48  19
   6  -9   3 41695.4 1811.32  20
   6   9   3 41791.8 2936.16   1
   6  -9   4 4255.31 627.150  20
   6  -9   4 4165.39 692.041  19
   6  -9   5 13241.3 1133.30  20
   6  -9   6 11487.7 2288.84  12
   6  -9   6 11412.7 1109.70  20
   6  -9   7 1504.68 901.295  12
   6  -9   8 10942.7 2336.15  12
   6   9   8 8947.78 2017.80   9
   6  -9   9 2772.01 1262.61  12
  -6  -9  -9 1921.89 750.447   4
   6  -9   9 1160.18 429.361  22
   6   9   9 1103.27 714.252   9
   6   9   9 1681.06 638.063  24
   6   9  10 3400.60 842.207  24
   6  -9  10 4546.11 826.074  22
   6   9  10 5275.99 1527.13   9
   6   9  11 8584.26 1260.90  24
   6   9  11 9096.97 1710.32   7
   6  -9  11 12013.4 1201.14  22
   6   9  11 10046.8 2051.69   9
   6   9  12 439.548 572.030   7
   6   9  12 289.347 325.982  24
   6   9  12 1108.73 769.356   9
   6   9  13 896.831 595.250   7
   6   9  13 824.445 430.395  24
   6   9  14-267.624 284.173  24
   6   9  15-258.699 259.163  24
  -6 -10  15-1114.92 504.795  11
  -6  10  15-162.426 309.560  11
  -6 -10  14 296.248 560.886  11
  -6 -10  14 1407.18 704.520  10
  -6  10  14 436.504 524.869  11
  -6  10  13-642.424 604.790   2
  -6 -10  13 642.920 692.785  11
  -6 -10  13-107.866 498.290  10
  -6  10  13 202.975 407.264  11
  -6 -10  12 3696.76 1305.95  11
  -6  10  12 3667.98 1189.28  11
  -6 -10  12 2967.88 1044.03  10
  -6  10  12 2577.86 1050.96   2
  -6 -10  11 190.590 488.467  11
  -6  10  11 266.389 516.247   2
  -6 -10  11 82.8140 473.250  10
  -6 -10  10 9380.54 2146.97  11
  -6 -10  10 9484.92 2001.99  10
  -6  10  10 13887.5 2578.31   2
  -6 -10   9 1816.15 937.443  11
  -6 -10   9 1102.99 603.311  10
  -6  10   9-4.99024 549.437  16
  -6  10   8 758.586 582.465  16
  -6 -10   8 210.876 452.592  11
  -6 -10   8-51.2835 780.126  10
  -6 -10   7 1848.77 794.753  11
  -6  10   7 1612.44 735.013  16
  -6 -10   6 560.710 565.035  16
  -6  10   6 823.108 504.550  16
   6  10  -5 5952.16 1484.35   1
  -6 -10   5 7372.94 1316.62  16
  -6  10   5 7014.59 1359.75  16
   6  10  -4 89145.3 5048.46   1
  -6 -10   4 87538.3 4367.28  16
  -6  10   4 100064. 4805.77  16
  -6  10   3 3558.08 956.370  16
  -6 -10   3 3269.85 886.726  16
   6  10  -3 2130.18 840.607   1
   6  10  -2 15267.4 1934.10   1
  -6 -10   2 16709.1 1894.55  16
  -6  10   2 19078.0 1969.76  16
   6  10  -1 169.307 463.275   1
  -6 -10   1-155.707 367.202  16
  -6  10   1 115.580 310.420  16
  -6 -10   0 10514.5 1528.00  16
  -6  10   0 7680.77 1147.50  16
   6  10   0 8911.50 1386.55   1
   6 -10   1 2064.24 427.523  20
   6 -10   1 3062.14 597.553  19
   6  10   1 2055.59 741.908   1
   6  10   2 787.556 573.094   1
   6 -10   2 875.167 305.095  20
   6 -10   2 563.562 287.048  19
   6  10   3-65.7178 414.343   1
   6 -10   3-92.3920 296.432  20
   6 -10   3 137.216 324.819  19
   6 -10   4-279.492 349.429  20
   6 -10   4 107.358 304.110  19
   6 -10   5 107.200 308.239  20
   6 -10   6-120.564 270.920  20
   6 -10   7 2391.67 1332.33  12
   6  10   7 1010.50 833.458   9
  -6 -10  -8 2264.20 800.438   4
   6 -10   8 3981.50 1584.59  12
   6  10   8 2052.96 1129.23   9
   6 -10   9 275.442 718.444  12
  -6 -10  -9 892.220 780.286   4
   6 -10   9 741.036 509.230  22
   6  10   9-211.463 578.082   9
   6  10  10 22169.2 2055.69  24
   6 -10  10 25096.4 1741.66  22
   6  10  10 21523.3 3047.82   9
   6  10  11 2306.11 748.542  24
   6  10  11 1897.68 1051.62   9
   6  10  11 2546.09 951.653   7
   6  10  12 1321.83 623.264   7
   6  10  12 1744.54 958.852   9
   6  10  12 1362.88 538.644  24
   6  10  13 286.433 418.031   7
   6  10  13-69.5112 288.221  24
   6  10  14 5630.27 967.996   7
   6  10  14 5253.85 792.459  24
   6  10  15 281.741 198.616  24
  -6 -11  14 266.658 361.526  11
  -6 -11  14-3.00047 430.661  10
  -6  11  14 450.883 362.182  11
  -6  11  13 1559.84 757.997   2
  -6 -11  13 1575.10 772.739  11
  -6 -11  13 1092.08 589.790  10
  -6  11  13 556.549 519.765  11
  -6 -11  12 10383.4 2030.42  11
  -6  11  12 8615.87 1866.33   2
  -6  11  12 11249.3 1972.43  11
  -6 -11  12 9276.98 1802.05  10
  -6 -11  11 4108.17 1282.94  11
  -6  11  11 3838.70 1443.25   2
  -6 -11  11 4698.00 1419.53  10
  -6 -11  10 5199.59 1582.25  11
  -6 -11  10 4655.93 1396.68  10
  -6  11  10 4418.46 1490.34   2
  -6 -11   9 110.418 544.861  11
  -6  11   9 957.375 578.303  16
  -6 -11   8 640.608 616.757  11
  -6 -11   8 2624.98 973.673  10
  -6  11   8 1107.53 629.356  16
   6  11  -8 1671.47 952.396   1
  -6 -11   7 176.180 474.451  11
  -6 -11   7 892.725 716.140  10
   6  11  -7 765.573 716.071   1
  -6  11   7 298.522 639.361  16
   6  11  -6-230.697 652.226   1
  -6  11   6-418.936 550.581  16
  -6 -11   5 242.605 514.624  16
  -6  11   5 1131.91 658.844  16
   6  11  -5-191.466 629.324   1
   6  11  -4 345.893 494.265   1
  -6 -11   4-85.0635 536.676  16
  -6  11   4-32.7975 358.102  16
   6  11  -3 2023.58 986.305   1
  -6 -11   3 1021.98 586.873  16
  -6  11   3 2510.50 845.787  16
  -6 -11   2 10420.2 1625.15  16
  -6  11   2 11483.4 1649.51  16
   6  11  -2 8170.36 1506.10   1
   6  11  -1 970.850 659.424   1
  -6 -11   1 1355.36 644.335  16
  -6  11   1 911.455 528.515  16
   6  11   0 314.630 419.179   1
  -6  11   0 398.956 322.183  16
   6 -11   1 3500.12 523.382  20
   6 -11   1 5177.29 803.524  19
   6  11   1 3823.20 1005.69   1
   6  11   2 312.551 363.021   1
   6 -11   2 457.322 310.677  19
   6 -11   2 528.145 299.060  20
   6 -11   3 737.864 345.531  20
   6 -11   3 1007.27 467.891  19
   6  11   3 219.279 461.686   1
   6 -11   4 7305.81 1017.46  19
   6 -11   4 5986.68 754.106  20
   6 -11   5 1293.63 438.155  20
  -6 -11  -7 534.383 702.160   4
   6  11   7 1637.05 962.895   9
  -6 -11  -8 8001.72 1572.42   4
   6  11   8 9356.67 1967.31   9
   6  11   9 998.802 893.246   9
   6  11  10 16538.7 1787.60  24
   6  11  10 16481.8 2638.89   9
   6  11  11 1217.35 534.982  24
   6  11  11 1992.22 1070.74   9
   6  11  11 686.580 577.601   7
   6  11  12 948.803 616.280   7
   6  11  12 964.364 508.474  24
   6  11  13 761.691 481.406   7
   6  11  13 641.124 373.355  24
   6  11  14 31.0974 247.954   7
   6  11  14 206.521 268.400  24
  -6 -12  14 317.891 398.981  10
  -6  12  14 161.356 310.807  11
  -6  12  13 613.855 490.713   2
  -6 -12  13-353.147 637.534  11
  -6 -12  13 1109.44 640.409  10
  -6  12  13 623.989 558.474  11
  -6 -12  12 931.317 617.211  11
  -6 -12  12 671.902 767.389  10
  -6  12  12-9.10320 436.061   2
  -6 -12  11 586.986 703.733  11
  -6 -12  11-802.131 677.800  10
  -6  12  11 111.708 461.420   2
  -6 -12  10 1091.13 768.411  11
  -6 -12  10 4644.47 1439.40  10
  -6  12  10 5254.24 1583.41   2
  -6 -12   9 262.647 611.244  11
  -6 -12   9 1116.84 850.280  10
   6  12  -8 2117.53 1103.39   1
  -6 -12   8 2919.37 1161.94  11
  -6 -12   8 682.999 788.009  10
  -6  12   8 2476.08 828.359  16
  -6 -12   7 38503.0 3929.29  11
   6  12  -7 38659.0 3989.02   1
  -6 -12   7 38912.9 3813.50  10
   6 -12  -7 44062.4 3767.26   5
  -6  12   7 44037.3 3698.22  16
  -6 -12   6 8541.29 1801.39  11
   6  12  -6 13345.1 2263.48   1
   6 -12  -6 9579.29 1242.16  21
  -6  12   6 8919.76 1647.14  16
   6 -12  -6 10094.7 1788.35   5
  -6 -12   5-1584.63 723.970  16
  -6  12   5-163.100 524.478  16
   6  12  -5 233.832 582.376   1
   6  12  -4 26937.8 2932.51   1
  -6 -12   4 25186.0 2556.63  16
  -6  12   4 27051.2 2738.18  16
   6  12  -3 22924.9 2583.72   1
  -6  12   3 24169.2 2479.78  16
   6  12  -2 14245.6 2026.35   1
  -6  12   2 13574.8 1780.06  16
   6  12  -1 25990.8 2664.80   1
  -6  12   1 26445.5 2381.59  16
   6  12   0 529.663 524.082   1
  -6  12   0 365.294 288.858  16
   6 -12   1 11508.4 1235.05  19
   6  12   1 13045.6 1822.23   1
   6  12   2 1376.54 617.175   1
   6 -12   2 2225.38 550.782  19
   6 -12   3 667.460 405.831  19
   6 -12   4 1958.81 592.980  19
   6 -12   5 3174.04 708.912  19
  -6 -12  -6-464.565 578.242   4
   6  12   6-366.938 614.760   9
   6 -12   7 1310.09 823.849   8
  -6 -12  -7-245.495 537.081   4
   6  12   7 156.042 653.374   9
  -6 -12  -8 2734.05 830.100   4
   6  12   8 709.643 857.085   9
   6  12   9-305.922 612.990   9
   6  12  10 2539.36 875.526   7
   6  12  10 2335.32 706.538  24
   6  12  10 1809.07 1025.16   9
   6  12  11 12520.2 1950.72   7
   6  12  11 14760.6 1577.33  24
   6  12  11 11440.4 2057.16   9
   6  12  12 62.4980 411.091   7
   6  12  12 348.290 329.495  24
   6  12  13 3533.26 854.211   7
   6  12  13 4898.53 782.418  24
   6  12  14 5915.88 933.386   7
   6  12  14 7814.55 839.722  24
  -6  13  14 355.386 355.842  11
  -6  13  13-24.9095 325.166   2
  -6 -13  13 283.668 352.505  11
  -6 -13  13-36.1901 384.162  10
  -6  13  13 334.984 513.618  11
  -6 -13  12-100.748 439.710  11
  -6  13  12 178.086 415.408   2
  -6 -13  12 691.491 609.755  10
  -6  13  12-692.373 549.303  11
  -6 -13  11 2872.23 1023.01  10
  -6 -13  11 2854.39 1149.33  11
  -6  13  11 1954.26 954.405   2
  -6 -13  10 481.814 715.712  11
  -6  13  10-36.8184 593.247   2
  -6 -13  10 327.876 672.255  10
  -6 -13   9 322.604 452.294  11
  -6 -13   9 534.144 522.287  10
  -6 -13   8 5276.49 1519.27  11
  -6 -13   8 3202.82 1199.01  10
  -6 -13   7 19215.5 2824.56  11
   6  13  -7 22263.0 3094.93   1
  -6 -13   7 19370.3 2782.29  10
   6 -13  -7 21389.3 2708.31   5
  -6  13   7 22817.2 2720.10  16
  -6 -13   6 526.196 699.789  11
  -6 -13   6 869.188 855.954  10
   6 -13  -6 413.882 419.013  21
   6  13  -6-801.824 1098.70   1
  -6  13   6-177.924 477.253  16
   6 -13  -6 1.46262 549.826   5
  -6 -13   5 2078.81 980.832  11
   6  13  -5 2161.93 930.195   1
   6 -13  -5 1621.00 552.931  21
  -6  13   5 2142.81 870.319  16
   6  13  -4 282.534 760.735   1
  -6  13   4-299.230 452.549  16
   6  13  -3-633.526 644.004   1
  -6  13   3-192.647 464.691  16
   6  13  -2-423.167 524.163   1
  -6  13   2 277.005 515.954  16
   6  13  -1 6476.64 1398.03   1
  -6  13   1 6268.94 1239.74  16
  -6  13   0-549.533 433.225  16
   6  13   0 924.554 670.648   1
   6 -13   1 7300.00 1017.51  19
   6  13   1 8100.51 1539.28   1
  -6 -13  -2-159.024 476.413   4
   6 -13   2-169.682 348.473  19
   6  13   2-1107.46 692.089   1
   6 -13   3 29428.7 2046.52  19
  -6 -13  -3 25311.5 2408.28   4
  -6 -13  -4 2106.57 856.843   4
   6 -13   4 3696.16 757.605  19
   6 -13   5 5404.44 1400.09   8
  -6 -13  -5 4741.77 1134.34   4
   6 -13   5 5846.50 960.942  19
   6  13   5 7530.57 1853.59   9
   6 -13   6 589.064 725.229   8
  -6 -13  -6-458.889 610.560   4
   6  13   6-447.468 568.813   3
   6  13   6 765.178 740.104   9
   6 -13   7 2263.52 965.353   8
  -6 -13  -7 3353.23 1077.92   4
   6  13   7 1872.29 1052.21   3
   6  13   7 1668.41 812.325   9
   6  13   8-475.726 893.593   9
   6  13   9 1227.74 597.984   7
   6  13   9 593.693 487.627   9
   6  13  10-748.594 590.406   7
   6  13  10-48.6653 340.596  24
   6  13  11 6143.45 1348.41   7
   6  13  11 5256.77 977.558  24
   6  13  12 216.558 340.538   7
   6  13  12 601.487 361.873  24
   6  13  13-115.191 335.509   7
   6  13  13 255.562 262.816  24
   6  13  14 189.810 192.832  24
  -6  14  13 152.048 331.155   2
  -6 -14  13 1200.08 580.365  11
  -6 -14  13 176.676 343.850  10
  -6  14  13 632.760 404.082  11
  -6 -14  12-169.314 448.131  11
  -6  14  12 433.993 442.775  11
  -6 -14  12 8.37619 344.201  10
  -6  14  12 340.031 493.472   2
  -6 -14  11-68.1735 416.440  11
  -6 -14  11 614.871 583.381  10
  -6  14  11-3.13174 390.479   2
  -6 -14  10 2754.93 1207.88  11
  -6 -14  10 2358.76 1047.00  10
  -6  14  10 1071.00 837.185   2
  -6 -14   9 2268.90 977.947  11
  -6 -14   9 2654.28 1072.57  10
  -6 -14   8 441.515 500.430  11
  -6 -14   8 1424.86 1091.68  10
  -6 -14   7 11744.1 2238.58  11
  -6 -14   7 14170.8 2409.78  10
   6  14  -7 17472.9 2821.24   1
  -6  14   7 17976.1 2456.62  16
   6 -14  -7 13358.1 2126.76   5
  -6 -14   6 2302.84 1067.32  11
   6  14  -6 2492.99 1168.32   1
   6 -14  -6 2560.77 696.382  21
  -6 -14   6 3565.26 864.764  25
  -6  14   6 2085.09 874.431  16
   6 -14  -6 2881.36 995.893   5
  -6 -14   6 4030.88 1249.82  10
  -6 -14   5 26154.9 3312.98  11
   6  14  -5 25826.6 3131.65   1
  -6 -14   5 27090.5 3208.17  10
   6 -14  -5 27845.0 2175.10  21
  -6  14   5 25536.2 2909.04  16
  -6 -14   5 27063.0 2177.65  25
  -6 -14   4 4325.36 1333.55  11
   6 -14  -4 3926.91 797.563  21
   6  14  -4 2948.39 1061.67   1
  -6  14   4 3895.55 1122.17  16
  -6 -14   4 3767.21 824.209  25
  -6 -14   3 191.815 643.533  11
   6  14  -3 901.544 775.499   1
  -6  14   3 715.864 574.309  16
   6  14  -2 10169.6 1810.48   1
  -6  14   2 5930.79 1303.62  16
   6  14  -1 3275.94 1142.87   1
  -6  14   1 1524.45 676.243  16
   6  14   0 3247.97 1070.48   1
   6  14   1 8917.78 1642.86   1
   6 -14   1 8854.96 1137.87  19
  -6 -14  -2 306.467 332.965   4
   6  14   2 145.994 435.737   1
   6 -14   2 44.6561 294.174  19
   6 -14   3 2286.56 950.871   8
  -6 -14  -3 1852.78 755.457   4
   6 -14   3 1551.17 622.498  19
   6 -14   4 866.581 693.005   8
  -6 -14  -4 438.252 387.988   4
   6 -14   4-57.8693 323.185  19
   6  14   4 437.525 487.261   9
   6  14   4-307.492 515.994   3
  -6 -14  -5-36.3169 492.646   4
   6 -14   5-326.611 432.855  19
   6  14   5 673.530 830.785   9
   6 -14   5-544.482 636.286   8
   6  14   5-1.49159 453.952   3
   6 -14   6 1082.79 919.103   8
  -6 -14  -6 1530.21 791.160   4
   6  14   6 1470.82 834.889   3
   6  14   6 2300.08 1018.58   9
   6 -14   7-388.986 638.730   8
  -6 -14  -7 1101.67 781.407   4
   6  14   7 168.649 471.644   3
   6  14   7 109.717 793.679   9
   6  14   8 3501.08 1167.50   3
   6  14   8 1348.01 933.990   9
   6  14   9-169.527 459.488   3
   6  14   9-1224.20 865.703   9
   6  14   9 1130.41 646.226   7
   6  14  10 1548.56 791.037   7
   6  14  10 1174.01 502.876  24
   6  14  11 723.536 528.195   7
   6  14  11 509.340 404.621  24
   6  14  12-119.246 327.138   7
   6  14  12-6.08286 240.591  24
   6  14  13 5059.50 924.574   7
   6  14  13 6496.67 788.909  24
  -6 -15  13-214.100 326.890  11
  -6  15  13 647.164 398.707  11
  -6 -15  13 503.103 293.583  10
  -6 -15  12 5020.18 1154.86  10
  -6 -15  12 6418.06 1336.51  11
  -6  15  12 6142.41 1331.63   2
  -6  15  12 6136.36 1224.55  11
  -6 -15  11-27.1752 418.424  11
  -6  15  11 35.9449 370.036   2
  -6 -15  11-101.593 462.673  10
  -6 -15  10 2778.46 1096.70  11
  -6 -15  10 4392.29 1276.97  10
  -6  15  10 3441.78 1244.04   2
  -6 -15   9 486.174 512.984  11
  -6 -15   9 412.610 575.132  10
  -6 -15   8 70.7099 584.501  11
  -6 -15   8-363.244 717.180  10
  -6 -15   7 1559.74 921.050  11
  -6 -15   7 642.291 878.681  10
   6 -15  -7 1781.27 837.055   5
  -6 -15   6 2671.89 1077.33  11
  -6 -15   6 1996.07 578.099  25
  -6  15   6 2026.86 932.681  16
  -6 -15   6 2062.68 1096.64  10
   6 -15  -6 2584.68 717.986  21
   6 -15  -6 4010.60 1276.78   5
   6  15  -6 2694.83 1021.49   1
  -6 -15   5 689.864 655.440  11
  -6 -15   5 1246.47 867.304  10
   6 -15  -5 1448.18 556.434  21
  -6  15   5 1028.89 625.690  16
   6  15  -5 31.1524 502.547   1
  -6 -15   5 2641.72 739.936  25
  -6 -15   4 278.704 558.034  11
  -6 -15   4 616.676 406.444  25
  -6 -15   4-200.865 664.211  10
   6 -15  -4 1194.08 535.064  21
   6  15  -4-201.905 790.723   1
  -6  15   4 1378.45 758.502  16
  -6 -15   3 69.0716 433.483  11
   6  15  -3-263.893 469.668   1
  -6 -15   3 196.127 357.122  25
   6 -15  -3 548.260 360.952  21
  -6  15   3-113.271 391.516  16
  -6 -15   2 1264.36 865.358  11
   6  15  -2 593.453 641.838   1
  -6 -15   2 2088.01 674.323  25
  -6  15   2 1550.13 867.138  16
  -6 -15   1 138.953 522.133  11
  -6 -15   1 170.771 321.493  25
  -6  15   1 924.545 498.141  16
   6  15  -1-16.1484 559.309   1
  -6 -15   0 5718.45 1650.52  11
   6 -15   0 5336.26 1413.44   8
  -6 -15   0 6775.66 1124.23  25
   6  15   0 7664.15 1613.29   1
   6 -15   1 1223.14 543.145   8
  -6 -15  -1-344.649 441.115  25
   6  15   1 280.875 423.796   1
   6 -15   1 561.116 425.025  19
   6  15   1 1151.01 802.189   3
   6 -15   2-57.9416 610.883   8
   6  15   2-641.887 584.367   1
  -6 -15  -2 329.899 357.517  25
   6 -15   2-49.2269 314.595  19
  -6 -15  -3 1830.68 822.670   4
   6 -15   3 2788.84 1224.50   8
   6 -15   3 1751.41 576.613  19
   6  15   3 3152.79 1072.32   3
  -6 -15  -4 2742.25 966.035   4
   6 -15   4 3349.83 1208.90   8
   6 -15   4 3164.68 774.225  19
   6  15   4 3499.97 1311.33   9
   6  15   4 3387.08 1099.91   3
   6 -15   5 252.812 529.157   8
  -6 -15  -5 1032.72 675.330   4
   6  15   5 1926.25 914.937   3
   6  15   5 246.368 571.016   9
   6 -15   6 13550.0 2455.32   8
  -6 -15  -6 12750.8 1961.03   4
   6  15   6 14590.8 2413.50   3
   6  15   6 11280.1 2260.26   9
   6 -15   7 5487.68 1564.34   8
   6  15   7 4193.03 1415.90   9
   6  15   7 3613.95 1234.03   3
   6 -15   8-810.873 723.375   8
   6  15   8 1206.52 756.009   3
   6  15   8 458.493 629.267   7
   6  15   9-1086.37 685.247   3
   6  15   9 674.600 602.295   7
   6  15  10 94.7004 403.831   7
   6  15  10-343.835 424.237  24
   6  15  11 483.219 508.720   7
   6  15  11 639.869 378.999  24
   6  15  12-179.654 407.567   7
   6  15  12 658.816 334.908  24
   6  15  13-127.467 283.284   7
   6  15  13 177.544 235.488  24
  -6 -16  12 1614.21 701.776  11
  -6  16  12 987.967 499.396  11
  -6 -16  12 1386.21 679.189  10
  -6  16  12 2245.78 748.221   2
  -6 -16  11-284.869 382.053  11
  -6  16  11 244.743 320.261   2
  -6 -16  11 98.5188 426.258  10
  -6 -16  10 5182.73 1376.19  11
  -6 -16  10 6019.35 1444.35  10
  -6  16  10 4324.56 1337.78   2
  -6 -16   9 18.8211 570.831  11
  -6 -16   9-1257.31 765.324  10
  -6 -16   8 2660.28 1037.08  11
  -6 -16   8 1842.07 941.371  10
  -6 -16   7 1771.12 1010.68  11
  -6 -16   7 3925.75 1238.27  10
   6 -16  -7 3658.11 1205.76   5
  -6 -16   6 673.362 642.247  11
  -6 -16   6 977.248 541.305  25
  -6 -16   6 481.787 582.136  10
   6 -16  -6 161.245 324.923  21
   6 -16  -6-346.300 527.761   5
  -6 -16   5 6977.78 1675.82  11
  -6 -16   5 7113.11 1707.80  10
   6 -16  -5 7349.14 1142.58  21
  -6 -16   5 7726.18 1187.86  25
   6  16  -4 22521.5 2951.26   1
  -6 -16   4 20647.4 3006.57  11
  -6 -16   4 20906.7 1953.09  25
  -6 -16   4 21174.3 2805.76  10
   6 -16  -4 21963.9 1921.65  21
  -6  16   4 22976.2 2712.22  16
  -6 -16   3 805.677 669.626  11
   6  16  -3 1489.97 1005.10   1
  -6 -16   3 1522.61 603.978  25
  -6 -16   3 1808.61 913.204  10
   6 -16  -3 889.417 411.410  21
  -6  16   3 111.240 464.584  16
   6  16  -2 3667.07 1223.99   1
  -6 -16   2 3872.82 1560.73  11
  -6 -16   2 3531.59 1058.42  10
  -6 -16   2 3714.28 849.592  25
  -6  16   2 3149.64 1032.66  16
   6  16  -1-190.828 533.763   1
  -6 -16   1 1116.84 807.563  11
   6 -16  -1 1036.68 789.907   8
  -6 -16   1 178.281 441.111  25
   6 -16   0 6581.50 1700.18   8
  -6 -16   0 6152.84 1112.40  25
   6 -16   0 5954.16 995.668  19
   6  16   0 4202.32 1182.13   1
   6 -16   1-1327.38 835.171   8
   6 -16   1 645.800 426.965  19
  -6 -16  -1 149.083 353.521  25
   6  16   1-587.082 639.908   1
   6  16   1 968.980 657.436   3
   6 -16   2 331.414 373.960  19
  -6 -16  -2-254.270 389.846  25
   6  16   2-277.564 431.607   3
   6  16   2 723.511 642.407   1
   6 -16   3-461.574 624.120   8
   6 -16   3 994.507 497.655  19
   6  16   3-1.44035 348.527   3
  -6 -16  -4 3785.39 1066.79   4
   6 -16   4 3397.03 1357.02   8
   6 -16   4 4026.09 894.045  19
   6  16   4 4380.26 1438.21   3
  -6 -16  -5 197.065 488.230   4
   6 -16   5 2708.06 1167.93   8
   6  16   5 2506.14 1009.47   3
   6 -16   6-556.946 663.991   8
   6  16   6-302.433 506.709   7
   6  16   6 143.468 770.817   3
   6 -16   7 14.6849 446.611   8
   6  16   7 378.221 436.986   7
   6  16   7-693.165 628.319   3
   6 -16   8 1550.47 919.031   8
   6  16   8 2579.17 960.154   7
   6  16   8 1992.58 902.990   3
   6  16   9-729.147 578.331   3
   6  16   9-154.226 492.055   7
   6  16  10 1352.56 734.063   7
   6  16  10 1247.16 490.009  24
   6  16  11 423.190 452.548   7
   6  16  11-594.966 370.300  24
   6  16  12-124.663 273.095   7
   6  16  12 390.757 267.261  24
  -6 -17  11 1125.29 591.966  11
  -6 -17  11 395.814 412.052  10
  -6  17  11 381.925 561.194   2
  -6 -17  10 787.992 595.938  11
  -6 -17  10 916.445 670.560  10
  -6  17  10 1584.89 894.227   2
  -6 -17   9 3480.88 1151.97  11
  -6 -17   9 2482.89 941.924  10
  -6 -17   8 2103.41 888.854  11
  -6 -17   8 1266.54 799.349  10
  -6 -17   7 4265.72 1320.61  11
  -6 -17   7 4167.80 1246.23  10
   6 -17  -7 1197.44 739.051   5
  -6 -17   6-858.843 698.200  11
   6 -17  -6 57.7803 255.437  21
  -6 -17   6-336.131 534.103  10
   6 -17  -6 567.640 544.547   5
  -6 -17   5-492.686 646.369  11
  -6 -17   5 932.758 761.810  10
   6 -17  -5 1251.07 551.822  21
  -6 -17   5 285.898 320.675  25
  -6 -17   4 185.656 401.215  25
   6 -17  -4-25.4991 394.752  21
  -6 -17   4-156.408 481.649  10
   6  17  -3 142.236 614.824   1
  -6 -17   3 162.599 524.687  11
  -6 -17   3 324.191 386.021  25
  -6 -17   3-19.0322 485.051  10
   6 -17  -3 296.912 320.662  21
  -6  17   3 780.368 581.533  16
  -6 -17   2 862.889 731.126  11
  -6 -17   2 1537.74 587.553  25
  -6 -17   2 589.997 624.497  10
  -6  17   2 1583.75 849.042  16
   6  17  -2 1279.44 785.676   1
  -6 -17   1-1794.38 970.788  11
   6 -17  -1-1067.34 788.948   8
  -6 -17   1 28.6050 269.439  25
   6  17  -1 833.444 685.960   1
   6  17   0 987.494 683.199   3
   6 -17   0 953.247 818.965   8
  -6 -17   0 693.024 450.289  25
   6  17   0 913.994 646.101   1
   6 -17   0-179.882 313.716  19
   6 -17   1 1982.49 1131.47   8
   6  17   1 3144.70 1164.66   1
  -6 -17  -1 3259.50 822.475  25
   6 -17   1 3998.55 879.132  19
   6  17   1 2379.78 934.574   3
   6 -17   2 515.124 727.176   8
   6 -17   2-256.396 451.076  19
   6  17   2-436.029 488.586   3
   6 -17   3-274.032 541.265   8
   6 -17   3 432.006 335.337  19
   6  17   3 556.091 557.690   3
   6 -17   4 21895.5 3138.96   8
   6  17   4 32487.4 3401.17   3
   6 -17   5 1784.54 1065.14   8
   6  17   5 146.780 372.501   7
   6  17   5 1353.25 766.831   3
   6 -17   6 674.777 801.344   8
   6  17   6 1207.61 711.152   7
   6  17   6 157.533 481.654   3
   6  17   7 155.328 460.325   7
   6  17   7 1408.18 757.471   3
   6 -17   8 12089.6 2221.20   8
   6  17   8 11180.3 1764.86   7
   6  17   8 12175.0 2032.51   3
   6  17   9 452.205 396.373   7
   6  17   9 1242.07 726.958   3
   6  17  10-786.639 516.264   7
   6  17  10 423.050 339.406  24
   6  17  11-329.315 430.176   7
   6  17  11 188.143 232.581  24
   6  17  12 37.5665 177.396  24
  -6 -18  11 380.698 452.237  11
  -6 -18  11 247.494 294.435  10
  -6  18  11 1120.67 601.888   2
  -6 -18  10 255.289 612.703  11
  -6 -18  10 55.0095 329.653  10
  -6  18  10-1013.01 624.455   2
  -6 -18   9 2574.37 975.341  11
  -6 -18   9 1066.60 602.334  10
  -6  18   9 1581.28 860.009   2
  -6 -18   8-497.270 535.391  11
  -6 -18   8 430.586 533.963  10
  -6 -18   7 7657.58 1718.93  11
  -6 -18   7 8905.87 1772.21  10
   6 -18  -7 8303.69 1671.53   5
  -6 -18   6 1003.75 720.825  11
  -6 -18   6 76.2903 438.159  10
   6 -18  -6 1607.82 834.693   5
  -6 -18   5 16192.2 2555.39  11
  -6 -18   5 13913.5 2306.35  10
   6 -18  -5 15850.6 1617.22  21
  -6 -18   5 15959.8 1644.58  25
  -6 -18   4-766.230 681.473  11
  -6 -18   4 287.470 472.136  10
  -6 -18   4 13.1268 331.891  25
   6 -18  -4 284.815 359.746  21
  -6 -18   3 894.330 711.329  11
  -6 -18   3-71.4675 445.926  10
  -6 -18   3 1596.72 652.065  25
   6 -18  -3 2721.05 709.625  21
  -6 -18   2 1375.71 834.463  11
  -6 -18   2 1284.00 456.957  25
   6  18  -1 1513.59 902.566   3
   6 -18  -1 2865.48 1161.43   8
  -6 -18   1 1781.29 603.991  25
   6 -18   0 1809.90 933.310   8
  -6 -18   0 1027.58 503.821  25
   6  18   0 2115.72 872.048   3
   6 -18   1 7546.39 1831.09   8
   6  18   1 4509.57 1315.32   3
   6 -18   2 319.555 569.499   8
   6  18   2-478.073 512.666   3
   6 -18   3-321.337 526.472   8
   6  18   3-974.520 684.674   3
   6 -18   4 4422.84 1582.16   8
   6  18   4 3778.73 1214.72   3
   6 -18   5-1802.24 947.059   8
   6  18   5-33.8662 589.185   3
   6 -18   6-238.634 691.069   8
   6  18   6 360.264 387.333   7
   6 -18   7 92.0633 593.461   8
   6  18   7-777.747 578.970   7
   6  18   7 950.459 698.831   3
   6  18   8 783.796 513.440   7
   6  18   8 534.836 583.230   3
   6  18   9 1757.24 766.260   7
   6  18   9 2850.18 890.285   3
   6  18  10 662.442 519.899   7
   6  18  10-538.083 344.214  24
   6  18  11-32.0820 325.434   7
   6  18  11 1497.38 404.751  24
  -6 -19  10-370.201 409.088  11
  -6 -19  10 1328.57 544.620  10
  -6  19  10 904.066 587.622   2
  -6 -19   9 339.967 307.079  11
  -6 -19   9-245.047 399.076  10
  -6  19   9 412.973 357.806   2
  -6 -19   8 651.790 565.656  11
  -6 -19   8-301.989 576.933  10
  -6 -19   7-110.223 412.120  11
   6 -19  -7-182.031 394.281   5
  -6 -19   7-48.0944 393.919  10
  -6 -19   6 217.909 612.282  11
  -6 -19   6 9.98590 359.826  10
   6 -19  -6 1409.54 848.266   5
  -6 -19   5 213.032 435.789  11
  -6 -19   5-75.2584 322.065  25
   6 -19  -5 519.112 439.733  21
  -6 -19   5 482.309 586.313  10
   6 -19  -5 575.906 581.045   5
  -6 -19   4-632.966 601.139  10
  -6 -19   4-201.495 268.198  25
   6 -19  -4 86.0274 321.712  21
  -6 -19   3 878.729 723.270  11
  -6 -19   3 546.238 502.081  10
  -6 -19   3-446.374 444.378  25
   6 -19  -3 243.990 308.287  21
  -6 -19   2-87.6626 345.406  25
   6 -19  -1 1018.65 894.544   8
   6  19  -1-99.4880 389.223   3
   6 -19   0 5.08846 520.915   8
   6  19   0 114.835 383.207   3
   6 -19   1 8219.11 1915.80   8
   6  19   1 8567.72 1732.95   3
   6 -19   2 663.367 751.855   8
   6  19   2 932.798 547.993   3
   6 -19   3 731.227 810.380   8
   6  19   3 62.8596 390.901   3
   6 -19   4 834.175 677.540   8
   6  19   4 326.652 588.360   3
   6 -19   5 411.833 565.919   8
   6  19   5-382.401 483.253   3
   6 -19   6-328.855 741.003   8
   6  19   6 273.377 487.538   7
   6  19   6-136.753 409.830   3
   6 -19   7 143.122 449.796   8
   6  19   7-105.436 524.192   7
   6  19   7-215.582 424.827   3
   6 -19   8-1091.52 686.275   8
   6  19   8 207.478 354.097   7
  -6 -19  -8 18.5154 295.849  21
   6  19   8-750.313 538.763   3
   6  19   9 848.617 504.369   7
   6  19   9 1624.42 459.623  24
   6  19  10 475.098 363.090   7
   6  19  10 119.576 253.777  24
  -6 -20   9-682.769 462.244  11
  -6 -20   9 406.199 387.220  10
  -6  20   9 397.357 416.424   2
  -6 -20   8 1330.13 626.301  11
  -6 -20   8 997.042 514.517  10
  -6 -20   7 3740.10 1111.32  11
  -6 -20   7 4180.66 1144.84  10
   6 -20  -7 2904.58 979.634   5
  -6 -20   6 4298.13 1303.12  11
  -6 -20   6 3047.09 1015.78  10
   6 -20  -6 4001.05 1137.36   5
  -6 -20   5 102.788 445.486  11
  -6 -20   5 135.321 372.834  10
   6 -20  -5 711.527 607.578   5
   6 -20  -4 2076.34 604.906  21
   6  20  -3 1117.73 713.799   3
   6 -20  -3 1292.05 473.396  21
   6  20  -2 9543.13 1813.81   3
   6 -20  -1 672.335 687.736   8
   6  20  -1-543.918 538.922   3
   6 -20   0 837.993 792.911   8
   6  20   0-109.715 515.827   3
   6 -20   1 10573.8 2036.19   8
   6  20   1 9852.78 1834.03   3
   6 -20   2 1511.31 818.638   8
   6  20   2 162.607 693.515   3
   6 -20   3 1268.59 1101.00   8
   6  20   3 407.586 495.516   3
   6 -20   4 752.377 692.762   8
   6  20   4 874.507 626.509   3
   6 -20   5 498.956 518.178   8
   6  20   5 841.601 773.858   3
   6 -20   6-462.548 691.719   8
   6  20   6 404.491 473.934   3
   6 -20   7 71.5607 404.601   8
   6  20   7-330.560 364.298   7
  -6 -20  -7-6.40255 215.902  21
   6  20   7 82.5597 368.615   3
   6 -20   8 438.006 420.370   8
   6  20   8 457.900 373.104   7
   6  20   8 244.668 301.641   3
  -6 -20  -8 141.979 229.083  21
   6  20   9-223.848 308.022   7
   6  20   9-99.3397 208.065  24
   6  20  10-95.8018 177.775  24
  -6  21   9 752.849 465.998   2
  -6 -21   8 205.156 300.209  10
   6 -21  -7 1601.39 567.789   5
  -6 -21   7 1479.81 703.453  10
   6 -21  -6-960.237 582.139   5
   6 -21  -5 204.208 511.324   5
   6  21  -4 1221.16 742.681   3
   6 -21  -4-6.78745 413.970   5
   6  21  -3 1716.33 776.193   3
   6  21  -2 1003.17 546.702   3
   6 -21  -1 803.201 612.275   8
   6  21  -1 407.835 465.794   3
   6 -21   0 695.823 637.415   8
   6  21   0 431.321 632.727   3
   6 -21   1 1818.39 900.730   8
   6  21   1 1641.87 869.126   3
   6 -21   2 100.673 477.209   8
   6  21   2-299.532 484.841   3
   6 -21   3-179.691 469.406   8
   6  21   3 617.522 488.771   3
   6 -21   4 6116.33 1544.19   8
   6  21   4 6864.05 1435.29   3
   6 -21   5 26.1589 472.334   8
   6  21   5 1784.83 741.147   3
   6 -21   6 4943.39 1291.88   8
   6  21   6 4762.05 1142.35   3
   6 -21   7 157.812 392.311   8
  -6 -21  -7 2.12837 193.136  21
   6  21   7 763.102 537.299   3
   6 -21   8 980.928 551.731   8
   6  21   8 1366.07 584.919   3
  -6 -21  -8 633.947 271.573  21
   6  21   9-180.064 160.220  24
  -6  22   8 1166.80 541.735   2
   6  22  -8 999.533 516.281   3
   6  22  -7-224.578 331.253   3
   6 -22  -7 845.813 425.515   5
   6  22  -6 1571.84 668.605   3
   6 -22  -6 1618.81 665.448   5
   6 -22  -5 1786.65 729.664   5
   6  22  -5 1648.68 703.574   3
   6 -22  -4 1733.12 800.541   5
   6  22  -4 1520.90 748.084   3
   6 -22  -3 2993.75 1026.49   5
   6  22  -3 3637.31 1033.43   3
   6  22  -2 4586.47 1191.95   3
   6 -22  -1 1347.70 701.530   8
   6  22  -1 1050.77 587.867   3
   6 -22   0-444.427 508.260   8
   6  22   0-401.176 412.453   3
   6 -22   1-271.661 547.636   8
   6  22   1-433.146 488.890   3
   6 -22   2-563.745 566.650   8
   6  22   2 783.710 614.240   3
   6 -22   3-648.124 406.831   8
   6  22   3-234.618 411.410   3
   6 -22   4 785.309 576.831   8
   6  22   4 239.702 380.314   3
   6 -22   5 728.914 596.971   8
   6  22   5-76.9726 317.033   3
   6 -22   6-51.1361 485.392   8
   6  22   6 396.042 445.029   3
  -6 -22  -6 609.925 315.581  21
   6 -22   7-246.092 381.373   8
   6  22   7-142.637 338.570   3
  -6 -22  -7 137.489 243.631  21
   6  22   8 623.954 255.400  24
   6  23  -7 1193.49 485.283   3
   6 -23  -6 521.190 312.058   5
   6  23  -6 282.699 343.659   3
   6 -23  -5 833.460 507.711   5
   6  23  -5-17.0308 331.449   3
   6 -23  -4-67.7778 386.607   5
   6  23  -4 343.954 366.920   3
   6  23  -3 121.716 367.680   3
   6 -23  -3 693.831 561.573   5
   6  23  -2-399.975 436.867   3
   6 -23  -2-219.819 501.671   5
   6  23  -1-931.133 568.112   3
   6 -23   0 1453.89 734.437   8
   6  23   0 384.757 406.158   3
   6 -23   1 736.319 557.545   8
   6  23   1 400.543 487.484   3
   6 -23   2 657.182 531.793   8
   6  23   2 455.743 361.297   3
   6 -23   2-841.876 545.681   5
   6 -23   3 5226.47 1230.37   8
   6  23   3 4106.70 1029.51   3
   6 -23   4 756.596 639.135   8
   6  23   4 1508.53 624.235   3
   6 -23   5-430.854 446.734   8
   6  23   5 692.882 439.131   3
  -6 -23  -5 654.660 290.233  21
   6 -23   6 1875.60 720.483   8
  -6 -23  -6 1560.02 397.282  21
   6  23   6 1066.14 507.456   3
   6 -24  -5 174.606 270.636   5
   6  24  -5 591.811 375.867   3
   6 -24  -4 338.705 368.373   5
   6  24  -4-279.522 374.817   3
   6  24  -3-895.058 497.710   3
   6 -24  -3-384.774 368.158   5
   6  24  -2 232.897 271.076   3
   6 -24  -2 509.251 448.517   5
   6  24  -1 2036.73 711.415   3
   6 -24  -1 2004.66 746.487   5
   6 -24   0 756.121 546.668   8
   6  24   0 75.3498 301.453   3
   6 -24   0 45.6250 386.605   5
   6 -24   1 281.336 385.294   8
   6  24   1 585.095 356.935   3
   6 -24   2 340.708 396.676   8
   6  24   2 16.6318 259.640   3
   6 -24   2 20.5283 450.519   5
   6 -24   3-891.785 549.626   8
   6  24   3 906.400 512.688   3
   6 -24   4 98.2763 338.548   8
   6  24   4-366.385 333.646   3
  -6 -24  -4-64.2679 174.686  21
   6 -24   5 436.819 426.843   8
  -6 -24  -5 90.8434 159.655  21
   6  25  -3 377.327 328.003   3
   6 -25  -3-624.678 385.039   5
   6  25  -2 445.489 352.217   3
   6 -25  -2 130.229 313.936   5
   6  25  -1 499.343 434.526   3
   6 -25  -1 297.645 293.694   5
   6  25   0 360.948 389.740   3
   6 -25   0 167.640 296.549   5
   6  25   1-381.209 400.514   3
   6 -25   1 838.937 436.623   5
   6 -25   2-35.1440 269.257   8
   6  25   2 609.040 384.582   3
  -6 -25  -3-138.616 215.871  21
  -7   0  16 6984.99 1179.19  11
  -7   0  15 411.668 444.703  11
  -7   0  15 799.827 502.632  10
  -7   0  14 16452.7 2367.05  11
  -7   0  14 14012.6 2054.92  10
  -7   0  13 95.5718 442.261  11
  -7   0  13-1587.40 812.265  10
  -7   0  12-635.918 599.276  10
  -7   0  12 444.606 616.623  11
  -7   0  11-2283.33 982.678  10
  -7   0  11-1238.78 836.272  11
  -7   0  10-2150.11 1046.72  12
  -7   0  10-940.141 701.390  11
  -7   0   9-37.9324 418.187  12
  -7   0   9-374.776 389.427  16
  -7   0   8 8445.45 1439.85  16
  -7   0   7 12.3437 354.543  16
  -7   0   6 12705.4 1567.14  16
  -7   0   5-471.063 451.840  16
  -7   0   4 3555.57 814.506  16
  -7   0   3-205.074 375.741  16
  -7   0   2-106.306 310.681  16
  -7   0   1 249.298 251.626  16
  -7   0   0 3646.10 674.025  16
  -7   0  -1 209.198 270.033  16
  -7   0  -2 9338.29 990.600  16
   7   0   3 445.804 518.515  12
   7   0   3 93.0244 214.877  20
   7   0   4 369000. 4913.25  20
   7   0   4 345085. 8381.24  12
   7   0   5-183.957 556.175  12
   7   0   5 126.832 227.816  20
   7   0   6 23803.0 1389.55  20
   7   0   6 22979.7 2493.40  12
   7   0   7-2442.90 935.811  12
   7   0   7-38.2850 236.286  20
   7   0   8-100.483 605.550  12
   7   0   9-929.469 783.103  12
   7   0  10 4368.75 1273.55  12
   7   0  10 6272.41 1006.06  24
   7   0  11 234.238 616.205  12
   7   0  11-565.143 526.457  24
   7   0  12-229.024 348.130  24
   7   0  13-31.9352 284.261  24
   7   0  13-576.705 469.563  22
   7   0  14 264.398 307.347  24
   7   0  14-111.963 317.508  22
   7   0  15-262.131 286.298  22
   7   0  16 1071.96 389.973  22
  -7  -1  16 789.544 469.301  11
  -7   1  16-112.277 298.049  11
  -7  -1  15 198.465 390.961  10
  -7  -1  15 420.318 538.398  11
  -7   1  15 974.394 649.760  11
  -7   1  15 796.859 548.810  10
  -7  -1  14 203.133 484.583  11
  -7   1  14-118.926 494.215  11
  -7  -1  14-386.328 513.318  10
  -7   1  14-474.006 699.790  10
  -7   1  13-215.922 645.060  11
  -7  -1  13 86.4979 587.442  10
  -7   1  13 223.033 444.274  10
  -7  -1  13-321.542 548.714  11
  -7  -1  12-307.625 386.028  11
  -7   1  12-742.173 656.235  11
  -7  -1  12 172.308 715.131  10
  -7   1  12-88.2147 692.422  10
  -7   1  11 1538.15 903.405  12
  -7  -1  11 1552.97 807.343  11
  -7   1  11 1657.62 824.028  11
  -7  -1  11 1045.28 822.005  10
  -7   1  10 2100.04 1261.90  12
  -7   1  10 474.087 573.410  11
  -7  -1  10 1295.67 741.361  11
  -7   1   9 2098.37 824.430  16
  -7  -1   8 3805.89 1158.18  12
  -7  -1   8 4480.83 1009.75  16
  -7   1   8 4552.11 1137.04  16
  -7   1   7 2999.75 827.135  16
  -7  -1   7 2229.34 721.408  16
  -7  -1   6 77815.3 3820.49  16
  -7   1   6 78410.2 3839.66  16
  -7  -1   5 1925.25 630.929  16
  -7   1   5 1317.48 486.399  16
  -7  -1   4 299551. 6812.41  16
  -7   1   4 297962. 6775.42  16
  -7  -1   3 45292.2 2578.54  16
  -7   1   3 44808.2 2530.37  16
  -7  -1   2-5.58296 319.473  16
  -7   1   2 737.133 446.113  16
  -7  -1   1 16957.8 1468.91  16
  -7   1   1 16094.8 1408.01  16
  -7   1   0 4235.53 720.937  16
  -7  -1   0 5595.81 822.425  16
  -7  -1  -1 3881.34 693.470  16
  -7   1  -1 3924.92 660.627  16
  -7  -1  -2 260.203 239.997  16
  -7   1  -2 120.517 246.200  16
   7  -1   3 764.718 682.008  12
   7   1   3 287.524 218.830  20
   7  -1   3 124.491 222.621  20
   7  -1   4 1031.98 621.402  12
   7   1   4 847.825 633.583  12
   7   1   4 1322.66 372.308  20
   7  -1   4 1994.14 453.074  20
   7  -1   5 1649.66 755.809  12
   7   1   5 2046.62 761.358  12
   7   1   5 2142.44 429.479  20
   7  -1   5 2196.75 471.018  20
   7  -1   6-228.814 560.841  12
   7   1   6-329.359 558.097  12
   7   1   6-18.8537 227.031  20
   7  -1   6 80.5400 263.935  20
   7  -1   7 1640.69 752.193  12
   7   1   7 2704.35 936.973  12
   7  -1   7 3164.43 568.524  20
   7  -1   8-594.060 846.366  12
   7   1   8-771.149 833.708  12
   7  -1   9-1167.59 852.592  12
   7   1   9-198.726 697.710  12
   7  -1  10 440.161 632.892  12
   7   1  10 1372.31 874.784  12
   7   1  10 2077.49 664.562  24
   7   1  10 3551.54 1044.52   9
   7  -1  10 2168.86 619.491  24
   7  -1  11 947.993 797.193  12
   7  -1  11 843.364 424.564  24
   7   1  11 29.6721 344.646  24
   7  -1  12 6537.86 1009.23  24
   7   1  12 5750.06 982.035  24
   7  -1  13 9.47038 336.317  24
   7   1  13 161.497 300.150  24
   7  -1  13-479.127 429.947  22
   7   1  14 5226.18 862.374  24
   7  -1  14 6381.32 741.873  22
   7   1  14 5430.08 684.701  22
   7   1  15 1252.18 370.057  22
   7  -1  15 745.074 330.189  22
   7   1  16 1352.62 380.518  22
  -7  -2  16 513.076 399.250  11
  -7   2  16 2304.43 728.546  11
  -7  -2  15-876.585 581.425  11
  -7   2  15 328.107 535.330  11
  -7  -2  15 332.938 409.704  10
  -7   2  15-280.680 372.422  10
  -7   2  14 25.9394 403.234  11
  -7  -2  14 487.373 575.573  11
  -7  -2  14 146.580 417.396  10
  -7   2  14 170.270 428.008  10
  -7  -2  13 4828.26 1358.49  11
  -7   2  13 7743.87 1720.94  11
  -7  -2  13 6457.12 1573.94  10
  -7   2  13 5218.25 1422.61  10
  -7  -2  12 708.370 757.514  11
  -7  -2  12-247.567 690.758  10
  -7   2  12 414.987 620.630  11
  -7   2  11 15050.1 2708.57  12
  -7   2  11 13096.0 2302.29  11
  -7  -2  11 11005.7 2014.69  10
  -7  -2  11 12813.3 2282.47  11
  -7   2  10 4565.39 1389.91  12
  -7  -2  10 3632.94 758.529  26
  -7   2  10 4545.92 1485.17  11
  -7  -2  10 3129.31 1167.85  11
  -7  -2   9 11528.1 2053.43  11
  -7   2   9 13921.8 1935.02  16
  -7  -2   8 733.762 337.452  16
  -7   2   8-78.9885 406.227  16
  -7  -2   7 1910.61 768.154  16
  -7   2   7 492.940 297.358  16
  -7  -2   6 240.321 371.857  16
  -7   2   6-294.366 497.220  16
  -7  -2   5-282.849 452.431  16
  -7   2   5 5.78280 329.398  16
  -7  -2   4-73.0744 303.846  16
  -7   2   4-113.167 410.277  16
  -7  -2   3 17736.4 1619.08  16
  -7   2   3 17261.3 1609.49  16
  -7  -2   2 238.376 337.020  16
  -7   2   2-399.905 339.191  16
  -7   2   1 98244.0 3489.81  16
  -7  -2   1 94232.0 3550.84  16
  -7  -2   0 2772.07 630.379  16
  -7   2   0 1413.71 466.560  16
  -7   2  -1 2197.55 520.428  16
  -7  -2  -1 2762.40 623.013  16
   7   2   2 1742.76 349.235  20
  -7  -2  -2 1502.25 454.970  16
  -7   2  -2 1103.59 378.340  16
   7  -2   3 2422.21 813.636  12
   7   2   3 2719.30 421.387  20
   7  -2   3 2062.97 391.731  20
  -7  -2  -3 2886.80 619.535  16
   7   2   4 76733.0 2130.68  20
   7  -2   4 77091.6 2373.12  20
   7  -2   4 77617.7 4289.28  12
   7   2   5 14157.2 989.085  20
   7  -2   5 15006.8 1146.86  20
   7  -2   5 13360.4 1928.73  12
   7  -2   6 3400.82 1065.17  12
   7   2   6 5252.97 642.382  20
   7  -2   6 4501.38 656.190  20
   7  -2   7 47078.6 2130.47  20
   7  -2   7 46661.7 3926.92  12
   7  -2   8 309.665 561.474  12
   7  -2   9 3188.78 1252.65  12
   7   2   9 5243.35 930.175  24
   7  -2  10 536.620 685.242  12
   7  -2  10-75.6225 339.676  24
   7   2  10 777.870 525.767  24
   7   2  10 141.396 491.942   9
   7  -2  11-166.602 295.033  24
   7   2  11-235.968 335.447  24
   7  -2  12 1042.55 461.919  24
   7   2  12 433.531 338.357  24
   7   2  13 60.9836 273.722  24
   7  -2  13 83.4819 335.766  24
   7  -2  13-293.067 429.123  22
   7   2  14-80.3362 289.024  24
   7   2  14-447.550 387.978  22
   7  -2  14-211.810 357.087  22
   7   2  15 1808.69 515.270  24
   7  -2  15 1703.42 399.961  22
   7   2  15 1050.05 359.547  22
   7   2  16 583.392 358.022  22
  -7  -3  16 1112.37 531.614  11
  -7   3  16 264.005 314.594  11
  -7  -3  15 171.276 328.259  11
  -7  -3  15 467.649 588.429  10
  -7   3  15 71.0132 351.289  10
  -7   3  15-89.0330 330.121  11
  -7  -3  14 395.623 616.494  11
  -7  -3  14 437.550 488.766  10
  -7   3  14 95.2752 414.329  10
  -7   3  14 242.745 455.582  11
  -7  -3  13 171.244 658.959  11
  -7  -3  13-711.967 651.018  10
  -7   3  13-94.7304 693.783  10
  -7   3  13-919.797 703.036  11
  -7  -3  12 347.160 516.967  10
  -7   3  12-398.737 578.437  11
  -7  -3  12 555.529 678.460  11
  -7   3  11 3599.90 1256.58  11
  -7  -3  11 4144.16 1229.08  10
  -7  -3  11 6350.16 1607.51  11
  -7   3  10 536.090 433.109  12
  -7   3  10-540.301 568.925  11
  -7  -3  10 139.871 577.982  11
  -7  -3   9 9373.29 1897.56  11
  -7   3   9 9330.69 1774.33  11
  -7   3   9 8881.06 1554.54  16
  -7  -3   8 7164.05 1265.03  16
  -7   3   8 6805.48 1320.51  16
  -7  -3   7 3.58312 333.470  16
  -7   3   7 36.5908 406.972  16
  -7  -3   6 14003.6 1694.67  16
  -7   3   6 13676.5 1636.76  16
  -7  -3   5 7061.08 1173.03  16
  -7   3   5 6404.17 1121.61  16
  -7  -3   4 17842.6 1732.50  16
  -7   3   4 21126.0 1865.44  16
  -7  -3   3 76178.3 3421.46  16
  -7   3   3 76309.2 3354.35  16
  -7  -3   2 9606.55 1193.40  16
  -7   3   2 10380.6 1203.32  16
  -7  -3   1 73427.8 3129.12  16
  -7   3   1 72481.8 2999.52  16
   7  -3   0 7373.35 533.077  19
  -7  -3   0 6956.42 973.204  16
  -7   3   0 7193.16 914.895  16
   7  -3   1 24287.9 1032.28  19
  -7  -3  -1 24816.3 1775.31  16
  -7   3  -1 25445.9 1633.40  16
   7   3   2 8819.72 687.397  20
  -7  -3  -2 9034.61 1077.55  16
  -7  -3  -3 3722.95 704.158  16
   7   3   3 3373.82 450.611  20
   7  -3   3 3364.44 538.263  20
   7  -3   4 2742.37 976.916  12
   7   3   4 3295.82 471.173  20
   7  -3   4 3263.49 575.096  20
   7  -3   5 4927.89 1304.50  12
   7   3   5 5683.98 618.336  20
   7  -3   5 5774.32 747.588  20
   7  -3   6-284.336 721.781  12
   7   3   6-13.7940 232.081  20
   7  -3   6-238.155 306.708  20
   7  -3   7 3059.63 1063.27  12
   7  -3   7 3883.98 673.862  20
   7  -3   8-187.748 896.903  12
   7  -3   9 9248.79 2003.52  12
   7   3   9 13424.1 1418.34  24
   7  -3   9 9336.91 1172.21  24
   7   3   9 10683.8 2012.32   9
   7  -3  10 365.149 324.773  24
   7   3  10-0.64288 268.316  24
   7   3  10 43.2992 847.224   9
   7   3  11 2419.79 992.378   9
   7  -3  11 1937.86 645.227  24
   7   3  11 2126.32 683.207  24
   7  -3  12-381.632 362.327  24
   7   3  12 360.832 372.104  24
   7  -3  12-558.842 526.729  22
   7   3  13 1907.72 578.134  24
   7  -3  13 1532.88 456.589  22
   7   3  14 69.1103 249.036  24
   7  -3  14-632.354 372.605  22
   7   3  14-636.648 449.892  22
   7   3  15 3377.05 612.560  24
   7  -3  15 4351.05 613.133  22
   7   3  15 2707.17 463.095  22
  -7  -4  16 1683.56 619.947  11
  -7   4  16 2379.95 678.312  11
  -7  -4  15 1025.87 638.086  11
  -7   4  15 162.930 350.468  11
  -7   4  15 918.475 582.542  10
  -7  -4  15-99.1235 316.310  10
  -7  -4  14 2134.19 903.867  11
  -7   4  14 5902.64 1378.82  11
  -7  -4  14 3581.16 1082.34  10
  -7   4  14 2876.16 877.334  10
  -7  -4  13 7126.39 1665.09  11
  -7   4  13 6002.64 1550.13  11
  -7  -4  13 7539.07 1643.46  10
  -7  -4  12 2004.47 1024.48  11
  -7   4  12 2488.07 1117.16  11
  -7  -4  12 2463.72 1036.77  10
  -7  -4  11 13327.8 2349.56  11
  -7   4  11 10079.8 2034.10  11
  -7  -4  11 11478.1 2129.85  10
  -7   4  10 5654.85 1561.57  11
  -7  -4  10 6178.66 1502.05  10
  -7  -4   9-215.784 473.714  11
  -7   4   9 343.620 498.781  11
  -7   4   9 265.089 526.154  16
  -7  -4   8 19244.2 2129.99  16
  -7   4   8 18037.2 2128.98  16
  -7  -4   7-172.742 345.007  16
  -7   4   7 468.774 463.830  16
  -7  -4   6 1933.24 632.692  16
  -7   4   6 1790.68 677.911  16
  -7  -4   5 300.730 320.074  16
  -7   4   5 429.469 456.672  16
  -7  -4   4-30.3706 343.367  16
  -7   4   4 335.070 428.665  16
  -7  -4   3 3454.65 787.178  16
  -7   4   3 3738.06 732.993  16
  -7  -4   2 4514.38 900.356  16
  -7   4   2 4429.35 811.228  16
   7   4  -1 230.964 322.993   1
   7  -4  -1 675.105 203.199  19
  -7  -4   1 273.378 278.484  16
  -7   4   1 176.790 292.004  16
  -7   4   0 1625.90 482.889  16
   7  -4   0 1784.59 306.343  19
  -7  -4   0 989.711 424.480  16
   7  -4   1 18380.2 945.088  19
  -7  -4  -1 19671.9 1646.60  16
  -7   4  -1 18043.7 1409.00  16
   7   4   2 14561.8 826.851  20
  -7  -4  -2 14006.3 1441.13  16
   7   4   3 24565.0 1090.99  20
   7  -4   3 25337.9 1375.53  20
  -7  -4  -3 24865.4 1845.16  16
   7  -4   4 14766.1 1092.91  20
   7   4   4 13059.1 842.139  20
   7  -4   4 13732.9 1975.25  12
   7  -4   5 6403.91 1485.90  12
   7   4   5 8132.17 713.196  20
   7  -4   5 8461.77 921.345  20
   7  -4   6 2680.74 982.303  12
   7  -4   6 4494.27 699.187  20
   7  -4   7 32845.2 1906.07  20
   7  -4   7 34732.7 3618.05  12
   7  -4   8 354.033 796.581  12
   7  -4   9 10955.8 2347.35  12
   7  -4   9 8064.36 1092.62  24
   7   4   9 10886.0 1325.02  24
   7   4   9 11093.6 1989.81   9
   7  -4  10 2110.83 983.610  12
   7  -4  10 3616.36 800.017  24
   7   4  10 1807.12 1016.93   9
   7   4  10 2822.48 767.672  24
   7  -4  11 1014.61 445.759  24
   7   4  11 109.604 347.314  24
   7  -4  11 432.630 357.411  22
   7   4  12 345.117 381.330  24
   7  -4  12 172.235 384.648  22
   7   4  13-891.577 435.548  24
   7  -4  13-369.401 447.435  22
   7   4  14 416.464 350.403  24
   7  -4  14 280.030 312.357  22
   7   4  14-551.022 422.595  22
   7   4  15 167.016 253.512  24
   7   4  15-429.293 315.865  22
  -7  -5  15 527.879 468.937  11
  -7   5  15 256.771 473.965  11
  -7  -5  15 337.456 379.247  10
  -7   5  15-115.967 472.167  10
  -7  -5  14-1062.90 680.404  11
  -7   5  14 476.371 479.842  11
  -7  -5  14 233.609 408.893  10
  -7   5  14-425.346 452.780  10
  -7  -5  13 614.216 662.274  11
  -7   5  13 115.698 403.184  11
  -7  -5  13 1076.65 893.335  10
  -7  -5  12 2862.86 1285.55  11
  -7  -5  12 2638.46 1048.68  10
  -7   5  12 3524.38 1190.56  11
  -7  -5  11 575.768 741.185  11
  -7   5  11-200.209 421.150  11
  -7  -5  11 264.296 501.235  10
  -7  -5  10 12160.0 2269.67  11
  -7   5  10 13774.5 1951.37  16
  -7   5  10 14680.7 2408.06  11
  -7  -5  10 12641.0 2249.16  10
  -7  -5   9-135.006 767.232  11
  -7   5   9 531.551 495.215  16
  -7   5   8 20293.7 2298.09  16
  -7  -5   7 248.104 332.207  16
  -7   5   7-107.819 434.973  16
  -7   5   6 47151.4 3096.58  16
  -7  -5   6 45644.1 3055.40  16
  -7   5   5-291.648 503.688  16
  -7  -5   5-43.0241 432.614  16
  -7  -5   4 183740. 5653.09  16
  -7   5   4 184569. 5628.02  16
  -7  -5   3 332.472 341.387  16
  -7   5   3 89.5195 295.626  16
  -7  -5   2 335.264 333.496  16
  -7   5   2 191.344 354.650  16
  -7  -5   1-185.284 340.877  16
  -7   5   1 330.718 310.484  16
   7   5  -1 182.109 292.093   1
   7  -5   0 2322.63 359.322  19
   7   5   0 1387.78 442.866   1
  -7  -5   0 2321.61 625.006  16
  -7   5   0 2553.20 583.660  16
   7  -5   1 1909.57 359.162  19
  -7   5  -1 1390.84 478.142  16
  -7  -5  -1 1071.18 490.210  16
   7  -5   2 17122.3 1099.34  20
   7  -5   2 18069.9 1038.08  19
  -7  -5  -2 18666.3 1700.11  16
   7  -5   3 317.387 266.140  20
  -7  -5  -3 409.782 273.675  16
   7  -5   4 8672.21 882.396  20
   7  -5   4 9483.15 1728.10  12
   7  -5   5 986.565 756.774  12
   7  -5   5 1062.70 346.751  20
   7  -5   6 3366.25 1205.74  12
   7  -5   6 5439.02 781.517  20
   7  -5   7 1398.65 943.645  12
   7  -5   7 2953.46 646.197  20
   7  -5   8 1845.40 990.418  12
   7  -5   9 903.942 1129.96  12
   7  -5   9-50.9648 373.018  24
   7   5   9 204.965 341.014  24
   7   5   9-827.553 733.769   9
   7  -5  10 6013.41 1909.61  12
   7   5  10 6687.06 1612.48   9
   7  -5  10 5857.19 1008.94  24
   7   5  10 6833.10 1080.17  24
   7  -5  10 6461.36 830.437  22
   7   5  11 154.461 289.608  24
   7  -5  11-799.315 557.784  22
   7   5  12 3098.82 765.325  24
   7  -5  12 4354.90 696.291  22
   7   5  13 181.120 310.862  24
   7  -5  13 1059.60 423.636  22
   7   5  14 3476.99 694.547  24
   7  -5  14 5091.73 703.364  22
   7   5  15 784.892 307.481  24
   7   5  15 64.6335 327.128  22
  -7  -6  15-101.061 391.634  11
  -7   6  15 44.7828 321.644  11
  -7   6  15-482.851 392.017  10
  -7  -6  15 470.563 396.641  10
  -7  -6  14 3895.20 1217.36  11
  -7   6  14 3615.82 1082.19  11
  -7  -6  14 4651.11 1128.09  10
  -7   6  14 4678.79 1123.79  10
  -7  -6  13 3321.01 1161.52  11
  -7   6  13 2255.58 972.112  11
  -7  -6  13 5325.44 1371.39  10
  -7  -6  12 2208.89 947.188  11
  -7  -6  12 2230.06 963.293  10
  -7   6  12 2408.48 1115.16  11
  -7  -6  11 1577.72 967.697  11
  -7   6  11 2564.78 1193.43  11
  -7  -6  11 1530.29 746.283  10
  -7  -6  10 22264.9 3016.19  11
  -7   6  10 18858.6 2713.51  11
  -7  -6  10 21248.2 2837.67  10
  -7   6  10 20236.7 2385.55  16
  -7  -6   9 10718.4 2026.69  11
  -7   6   9 9503.37 1634.77  16
  -7   6   8 136.392 376.019  16
  -7  -6   7 1703.09 610.900  16
  -7   6   7 1716.58 608.442  16
  -7   6   6 3981.29 1023.36  16
  -7  -6   6 3059.11 846.147  16
  -7  -6   5 2000.35 748.829  16
  -7   6   5 1861.50 639.188  16
  -7   6   4 1787.00 612.238  16
  -7  -6   4 2141.94 736.232  16
  -7   6   3-398.606 475.241  16
  -7  -6   3 63.7772 374.633  16
   7   6  -2 1740.43 607.495   1
  -7  -6   2 2352.90 703.040  16
  -7   6   2 2526.09 687.728  16
   7   6  -1 826.220 482.135   1
  -7  -6   1-99.7940 306.651  16
  -7   6   1 509.742 381.415  16
   7  -6   0 15.2956 159.040  19
  -7  -6   0-143.051 343.198  16
  -7   6   0-139.067 274.295  16
   7   6   0 84.9578 271.681   1
   7  -6   1 29722.1 1336.45  19
  -7  -6  -1 31252.7 2303.46  16
  -7   6  -1 27049.8 1777.62  16
   7   6   1 25151.7 1950.18   1
   7  -6   2 33986.6 1473.18  19
  -7  -6  -2 35196.7 2434.35  16
   7  -6   2 36695.4 1623.66  20
   7  -6   3 5112.68 646.869  20
   7  -6   3 4637.40 582.555  19
  -7  -6  -3 4802.00 937.385  16
   7  -6   4 25424.7 1500.01  20
   7  -6   5 9424.51 1915.41  12
   7  -6   5 9205.44 978.745  20
   7  -6   6 4636.52 1439.47  12
   7  -6   6 5731.75 800.814  20
   7  -6   7 1921.49 1017.00  12
   7  -6   7 2451.57 584.329  20
   7  -6   8 10053.6 2217.66  12
   7  -6   9 2543.61 1281.48  12
   7   6   9 1893.66 605.372  24
   7  -6   9 1129.42 389.837  22
   7   6   9 1151.49 763.155   9
   7  -6  10 968.438 1032.16  12
   7   6  10 1319.84 509.675  24
   7  -6  10 583.555 388.955  22
   7   6  10 1814.92 921.426   9
   7   6  11-349.690 371.622  24
   7  -6  11-454.202 537.199  22
   7   6  11 205.616 523.855   9
   7   6  12 986.587 515.906  24
   7   6  12 1272.84 705.013   7
   7  -6  12 937.881 400.405  22
   7   6  12 745.141 570.790   9
   7   6  13-343.655 434.852  24
   7  -6  13-197.265 365.101  22
   7  -6  14 1592.15 549.680  22
   7   6  14 430.518 273.304  24
   7   6  15 78.5148 196.921  24
   7   6  15-473.594 321.123  22
  -7  -7  15 855.508 514.160  10
  -7   7  15 937.762 370.698  10
  -7   7  15 788.961 465.178  11
  -7  -7  14 987.739 646.717  11
  -7   7  14 571.489 474.260  11
  -7  -7  14-899.479 580.994  10
  -7   7  14-773.284 532.941  10
  -7  -7  13 306.924 580.595  11
  -7  -7  13 391.531 450.054  10
  -7   7  13 1413.59 814.723  11
  -7  -7  12-371.202 556.879  11
  -7   7  12 28.9164 520.565  11
  -7  -7  12 22.3144 497.941  10
  -7  -7  11 2362.39 1087.76  11
  -7   7  11 2528.76 1053.05  11
  -7  -7  11 1357.74 810.382  10
  -7  -7  10 2534.83 1110.71  11
  -7  -7  10 2893.08 1126.34  10
  -7   7  10 2287.37 902.753  16
  -7  -7   9 39004.4 3970.94  11
  -7   7   9 47923.7 3652.03  16
  -7  -7   8-1889.19 928.738  11
  -7   7   8 148.505 389.021  16
  -7   7   7 3493.08 1055.82  16
  -7  -7   7 2892.33 827.239  16
  -7  -7   6 41443.1 3044.09  16
  -7   7   6 43066.2 3116.59  16
  -7  -7   5 5641.99 1113.23  16
  -7   7   5 5271.40 1066.56  16
  -7  -7   4-63.2993 335.201  16
  -7   7   4 249.924 405.635  16
  -7   7   3 42407.1 2775.16  16
  -7  -7   3 42041.9 2850.61  16
   7   7  -3 39743.8 2901.63   1
   7   7  -2 10740.4 1460.63   1
  -7  -7   2 13848.1 1588.36  16
  -7   7   2 11059.2 1362.78  16
  -7   7   1 21597.0 1829.92  16
   7   7  -1 21336.2 1983.57   1
  -7  -7   1 21763.4 1972.50  16
   7   7   0 209.733 365.769   1
   7  -7   0 459.178 246.639  19
  -7  -7   0 264.955 316.112  16
  -7   7   0 247.055 318.591  16
   7  -7   1 31923.4 1466.72  19
  -7   7  -1 27292.5 1843.88  16
  -7  -7  -1 33130.0 2454.93  16
   7   7   1 27647.8 2156.22   1
   7  -7   2 12899.1 997.055  19
  -7  -7  -2 12638.8 1588.06  16
   7   7   2 13440.5 1534.32   1
   7  -7   2 12609.4 990.376  20
   7  -7   3 10285.3 932.936  20
   7  -7   3 11073.1 951.581  19
   7  -7   4-49.4327 262.364  20
   7  -7   5 2529.37 1234.89  12
   7  -7   5 657.396 330.571  20
   7  -7   6 2522.04 1174.65  12
   7  -7   6 1641.05 462.976  20
   7  -7   7 8334.11 2078.82  12
   7  -7   7 7220.34 962.720  20
   7  -7   8 3862.28 1492.75  12
   7   7   8 5593.28 974.485  24
   7   7   8 4902.74 1427.31   9
   7  -7   9 10143.6 2301.20  12
   7   7   9 11074.2 1357.90  24
   7  -7   9 9102.40 967.171  22
   7   7   9 9760.29 2034.69   9
   7  -7  10 1086.36 862.744  12
   7   7  10 666.247 459.071  24
   7  -7  10 1139.35 463.123  22
   7   7  10 667.595 791.532   9
   7   7  11 336.336 731.322   9
   7  -7  11-558.909 553.842  22
   7   7  11-323.211 373.110  24
   7   7  12 2016.85 799.029   7
   7   7  12 1080.57 527.947  24
   7  -7  12 1232.78 437.613  22
   7   7  12 1763.00 886.359   9
   7   7  13 105.862 283.981  24
   7  -7  13 1311.82 541.658  22
   7   7  14-271.842 312.540  24
   7   7  15 2501.07 512.810  24
   7   7  15 2634.25 367.902  22
  -7  -8  15 286.081 368.195  11
  -7   8  15-672.420 433.538  11
  -7  -8  14-313.221 478.351  11
  -7   8  14 170.800 299.761  11
  -7  -8  14-28.4927 330.035  10
  -7  -8  13 4301.69 1307.03  11
  -7  -8  13 1746.01 830.050  10
  -7   8  13 4199.59 1242.32  11
  -7  -8  12 1654.12 888.666  11
  -7   8  12 1441.40 775.670  11
  -7  -8  12 1006.04 727.581  10
  -7  -8  11 7274.94 1822.39  11
  -7   8  11 6226.99 1564.14  11
  -7  -8  11 6803.40 1631.95  10
  -7  -8  10 1357.98 831.881  11
  -7  -8  10 587.063 568.340  10
  -7  -8   9 7774.46 1883.51  11
  -7  -8   9 7787.94 1668.36  10
  -7   8   9 7960.12 1536.02  16
  -7  -8   8 1193.73 800.930  11
  -7  -8   8 1768.13 579.658  26
  -7   8   8 1519.48 674.285  16
  -7  -8   7-80.0703 607.560  16
  -7   8   7-145.397 408.142  16
  -7  -8   6-167.983 464.788  16
  -7   8   6 1183.31 666.485  16
  -7  -8   5 2103.69 747.660  16
  -7   8   5 2666.66 853.876  16
  -7  -8   4 153.317 347.965  16
  -7   8   4 10.6448 339.031  16
   7   8  -3 3296.98 936.620   1
  -7  -8   3 2299.22 717.099  16
  -7   8   3 2799.37 784.922  16
   7   8  -2 1272.73 588.570   1
  -7   8   2 951.824 426.875  16
   7   8  -1 30010.7 2407.42   1
  -7  -8   1 30706.4 2530.58  16
  -7   8   1 31514.1 2291.27  16
   7   8   0 603.559 416.424   1
   7  -8   0 738.988 310.695  19
  -7  -8   0 712.919 507.030  16
  -7   8   0 208.120 283.265  16
  -7  -8  -1 9526.25 1381.11  16
   7  -8   1 11031.9 952.707  19
   7   8   1 8859.29 1364.15   1
   7  -8   2-133.712 259.955  20
   7   8   2 247.869 298.199   1
   7  -8   2 34.0547 239.709  19
  -7  -8  -2 128.973 369.294  16
   7  -8   3 18283.7 1235.88  20
   7  -8   3 16539.6 1208.80  19
   7  -8   4 2776.09 564.883  20
   7  -8   5 16288.0 1311.50  20
   7  -8   6 1911.63 1149.39  12
   7  -8   6-96.3561 307.083  20
   7  -8   7 62775.4 2694.27  20
   7  -8   7 64141.4 5367.87  12
   7  -8   8 6137.21 1804.22  12
   7   8   8 6612.19 1735.48   9
   7  -8   9 3658.34 1655.77  12
   7   8   9 2605.61 732.563  24
   7   8   9 2548.84 1150.75   9
   7  -8   9 2578.57 597.002  22
   7   8  10 393.719 468.109  24
   7  -8  10-246.209 527.338  22
   7   8  10-694.398 529.048   9
   7   8  11 302.649 386.633  24
   7  -8  11 817.472 363.747  22
   7   8  12 58.1501 373.520   7
   7   8  12 183.453 336.040  24
   7  -8  12 874.000 537.303  22
   7   8  12-179.706 478.712   9
   7   8  13 154.359 400.051   7
   7   8  13-147.897 310.488  24
   7   8  14-686.582 379.048  24
   7   8  15 367.337 248.275  24
  -7  -9  15-292.020 404.203  11
  -7   9  15 262.086 322.030  11
  -7  -9  14 403.099 413.885  10
  -7  -9  14 348.430 449.589  11
  -7   9  14-736.236 614.557  11
  -7  -9  13-158.813 569.977  11
  -7  -9  13-512.138 542.704  10
  -7   9  13-184.573 392.482  11
  -7  -9  12 1772.44 965.802  11
  -7   9  12 1774.40 920.028  11
  -7  -9  12 451.168 547.321  10
  -7  -9  11 5804.02 1652.22  11
  -7   9  11 6735.63 1677.47  11
  -7  -9  11 6318.68 1535.93  10
  -7  -9  10 906.965 898.777  11
  -7  -9  10 14.1654 416.483  10
  -7  -9   9 2552.76 1096.74  11
  -7  -9   9 2143.96 1057.81  10
  -7   9   9 4987.97 1289.14  16
  -7  -9   8 2023.23 911.808  11
  -7   9   8 3343.27 1076.30  16
  -7  -9   7 1524.54 994.700  11
  -7   9   7 475.285 611.880  16
  -7   9   6 38248.1 3165.74  16
  -7  -9   6 36316.7 3015.90  16
  -7  -9   5 59553.2 3731.26  16
  -7   9   5 65960.2 4004.51  16
   7   9  -4 2747.85 1002.70   1
  -7  -9   4 1210.36 600.329  16
  -7   9   4 1345.01 619.670  16
   7   9  -3 748.545 572.726   1
  -7  -9   3-139.695 388.090  16
  -7   9   3-102.141 411.877  16
   7   9  -2 2911.37 863.783   1
  -7  -9   2 3277.26 892.007  16
  -7   9   2 3168.63 829.714  16
   7   9  -1 32445.9 2601.14   1
  -7  -9   1 33167.8 2665.90  16
  -7   9   1 30808.2 2342.89  16
   7   9   0 18202.5 1985.52   1
  -7  -9   0 18758.9 2012.50  16
  -7   9   0 20371.8 1816.18  16
   7  -9   1-222.535 254.539  20
   7  -9   1 196.960 270.385  19
  -7  -9  -1-156.772 359.060  16
   7   9   1 313.565 319.569   1
   7  -9   2 364.185 268.138  19
   7   9   2 78.1756 460.535   1
   7  -9   2 280.155 244.355  20
   7  -9   3 1327.79 411.551  20
   7  -9   3 1671.94 458.834  19
   7  -9   4 240.600 262.089  20
   7  -9   4 722.443 381.675  19
   7  -9   5 2511.70 570.040  20
   7  -9   6 443.206 338.126  20
   7  -9   7 18952.7 3094.76  12
   7   9   7 16204.9 2551.85   9
   7  -9   8-4.22619 1013.08  12
   7   9   8 191.577 561.663   9
   7  -9   9 639.547 1028.88  12
   7   9   9 1416.25 1035.48   9
   7   9   9 262.707 416.088  24
   7  -9   9 385.039 466.309  22
   7   9  10 5435.96 1049.42  24
   7  -9  10 4696.50 804.756  22
   7   9  10 5515.30 1636.08   9
   7   9  11 1512.42 583.608  24
   7  -9  11 2455.00 694.991  22
   7   9  11 945.522 692.590   9
   7   9  12 718.130 536.807   7
   7   9  12 1524.32 575.974  24
   7   9  12 421.907 531.204   9
   7   9  13 1947.22 669.279   7
   7   9  13 3411.84 979.773   9
   7   9  13 2448.99 633.135  24
   7   9  14 1037.52 391.866  24
   7   9  15 2869.66 482.133  24
  -7 -10  14 2742.07 909.712  11
  -7 -10  14 1068.60 587.983  10
  -7  10  14 1918.84 701.831  11
  -7 -10  13 1028.54 720.438  11
  -7 -10  13 1084.51 553.703  10
  -7  10  13 127.836 434.937  11
  -7 -10  12 883.824 785.254  11
  -7  10  12 1175.37 740.643  11
  -7 -10  12 694.969 569.060  10
  -7 -10  11 490.795 632.120  11
  -7  10  11 1285.29 729.610  11
  -7 -10  11 115.336 466.031  10
  -7 -10  10 125.475 504.199  11
  -7 -10  10 381.872 545.192  10
  -7 -10   9 499.031 804.945  11
  -7 -10   9-783.741 761.118  10
  -7  10   9 917.730 644.472  16
  -7 -10   8 655.310 862.273  11
  -7  10   8 911.369 696.565  16
  -7 -10   7 1467.46 885.999  11
  -7  10   7 2704.97 868.428  16
  -7 -10   6 992.437 665.064  16
  -7  10   6-61.8104 495.032  16
   7  10  -5 143.900 639.732   1
  -7 -10   5 719.577 599.363  16
  -7  10   5 194.681 380.301  16
   7  10  -4 1205.84 588.989   1
  -7 -10   4 1395.48 688.491  16
  -7  10   4 663.549 500.683  16
   7  10  -3 576.492 459.793   1
  -7 -10   3 1176.42 639.671  16
  -7  10   3 1539.51 681.239  16
   7  10  -2 975.207 696.655   1
  -7  10   2 2211.28 775.054  16
  -7 -10   2 971.845 569.032  16
   7  10  -1 21329.9 2265.45   1
  -7 -10   1 23270.4 2372.46  16
  -7  10   1 24522.2 2231.07  16
   7  10   0 7335.88 1355.93   1
  -7 -10   0 7843.55 1367.76  16
  -7  10   0 5751.92 1036.00  16
   7  10   1 7407.87 1377.67   1
   7 -10   1 7176.43 778.556  20
   7 -10   1 8619.40 961.369  19
   7  10   2 9647.64 1538.91   1
   7 -10   2 7957.67 839.943  20
   7 -10   2 8665.13 1001.29  19
   7 -10   3-67.4254 239.304  20
   7 -10   3 197.538 269.725  19
   7 -10   4 27593.2 1677.68  20
   7 -10   4 26169.2 1747.89  19
   7 -10   5 2851.62 571.666  20
   7 -10   6 6360.08 862.581  20
   7  10   7 11012.6 2155.29   9
   7  10   8 6738.18 1706.44   9
   7  10   9 4629.81 960.463  24
   7  10   9 3490.50 1455.15   9
   7  10  10 6722.74 1153.96  24
   7 -10  10 7915.94 1038.96  22
   7  10  10 7178.51 1823.28   9
   7  10  11-778.229 466.815  24
   7  10  11-270.331 610.499   7
   7  10  11 1029.10 1248.31   9
   7  10  12 711.327 543.889   7
   7  10  12 2308.82 665.300  24
   7  10  12 807.371 495.038   9
   7  10  13-82.2499 382.514   7
   7  10  13-94.1115 244.532  24
   7  10  14-446.129 371.472   7
   7  10  14-558.695 345.760  24
  -7 -11  14-80.8344 461.488  11
  -7 -11  14 496.733 444.532  10
  -7  11  14-1140.46 526.124  11
  -7 -11  13 326.133 404.395  11
  -7 -11  13 20.5652 420.388  10
  -7  11  13-118.345 329.437  11
  -7 -11  12-46.5133 556.125  11
  -7  11  12 1058.22 686.311  11
  -7 -11  12 601.210 565.767  10
  -7 -11  11-193.452 719.761  11
  -7 -11  11 1505.82 799.654  10
  -7 -11  10 208.745 516.726  11
  -7 -11  10 87.6237 451.199  10
  -7 -11   9 86.8403 642.366  11
  -7 -11   9 3334.41 1166.84  10
   7  11  -8 14843.6 2570.81   1
  -7 -11   8 14243.6 2449.83  11
  -7 -11   8 15863.5 2477.12  10
  -7  11   8 17196.4 2338.56  16
  -7 -11   7-406.875 604.433  11
   7 -11  -7-1401.02 819.355   5
  -7  11   7 76.0172 429.154  16
  -7 -11   6 24146.8 3078.62  11
   7  11  -6 21731.8 2889.67   1
   7 -11  -6 23375.1 2758.33   5
  -7 -11   6 23420.4 2523.96  16
  -7  11   6 27581.2 2854.18  16
   7  11  -5 4211.91 1222.07   1
  -7 -11   5 3249.51 948.501  16
  -7  11   5 6857.53 1407.80  16
   7  11  -4 21363.9 2610.09   1
  -7 -11   4 24256.2 2495.44  16
  -7  11   4 27075.7 2664.22  16
  -7  11   3 1330.48 528.242  16
   7  11  -3 2817.53 950.293   1
  -7 -11   3 2276.10 694.374  16
  -7  11   2 23228.5 2331.42  16
   7  11  -2 22568.1 2469.85   1
  -7 -11   2 22389.9 2378.25  16
   7  11  -1 3484.25 1055.50   1
  -7 -11   1 2327.95 889.402  16
  -7  11   1 2905.31 796.305  16
   7  11   0 7608.01 1416.42   1
   7 -11   0 8573.82 865.092  20
  -7  11   0 8005.98 1248.11  16
   7 -11   1-178.281 243.993  20
   7 -11   1 235.706 285.518  19
   7  11   1 19.3641 491.777   1
   7  11   2-4.23518 586.786   1
   7 -11   2 7.38305 241.673  20
   7 -11   2 424.494 349.353  19
   7 -11   3 863.083 354.349  20
   7 -11   3 1146.55 466.437  19
   7 -11   4-148.590 319.689  20
   7 -11   4-10.8560 340.367  19
   7 -11   5 52.3259 336.829  20
   7 -11   6-2012.30 954.816   9
   7 -11   6-2386.90 1021.57   8
   7 -11   6 735.430 390.604  20
   7  11   6 327.860 681.924   9
   7 -11   7 903.993 714.808   8
   7  11   7 335.284 677.732   9
  -7 -11  -8 2185.23 882.474   4
   7  11   8 1884.22 1015.68   9
   7  11   9 2157.80 711.254  24
   7  11   9 1972.52 973.910   9
   7  11  10 3970.02 1441.70   9
   7  11  10 4338.40 983.863  24
   7  11  11-557.293 412.580  24
   7  11  11-469.109 607.348   9
   7  11  11 397.964 612.039   7
   7  11  12 6140.19 1282.02   7
   7  11  12 7411.79 1109.08  24
   7  11  12 4890.92 1198.40   9
   7  11  13 1102.16 563.391   7
   7  11  13 395.270 331.810  24
   7  11  14 1358.39 509.538   7
   7  11  14 2084.83 455.188  24
  -7 -12  14 904.166 551.845  11
  -7  12  14 1138.06 482.346  11
  -7 -12  13-123.906 505.918  11
  -7  12  13 530.572 500.568  11
  -7 -12  12 1243.25 752.448  11
  -7  12  12 1747.96 783.511  11
  -7 -12  12 1482.50 875.471  10
  -7 -12  11 3557.26 1228.12  11
  -7 -12  11 4708.66 1276.50  10
  -7 -12  10 884.962 706.472  11
  -7  12  10 1291.00 848.329   2
  -7 -12   9-67.2932 571.013  11
  -7 -12   9-213.791 575.778  10
  -7 -12   8 5368.02 1648.65  11
  -7 -12   8 3865.62 1316.01  10
   7 -12  -7-886.738 660.945   5
  -7 -12   7-335.553 766.711  11
   7  12  -7 273.714 504.845   1
  -7  12   7 501.722 667.939  16
   7  12  -6-1265.48 873.131   1
  -7  12   6 940.250 702.627  16
  -7 -12   6-380.046 550.699  11
   7 -12  -6-1607.91 833.606   5
   7 -12  -5 597.480 377.935  21
   7  12  -5-643.388 849.293   1
  -7 -12   5-294.486 462.634  16
  -7  12   5 140.323 582.095  16
   7 -12  -5-1148.48 755.809   5
   7  12  -4-301.331 532.583   1
  -7 -12   4-200.609 537.557  16
  -7  12   4 337.329 425.202  16
  -7  12   3 506.320 509.347  16
  -7 -12   3 1679.21 688.210  16
   7  12  -3 1144.09 515.558   1
   7  12  -2 300.576 587.132   1
  -7  12   2 732.031 567.747  16
   7  12  -1 16379.0 2123.76   1
  -7  12   1 16314.8 1933.71  16
   7  12   0 6189.11 1303.32   1
   7  12   1 8704.38 1623.59   1
   7 -12   1 8579.80 1099.64  19
   7  12   2 1100.39 651.520   1
   7 -12   2 1883.39 550.589  19
   7 -12   3 1109.59 412.929  19
   7 -12   4 5142.64 755.428  20
   7 -12   4 4778.91 842.254  19
   7 -12   5 12670.9 2303.27   8
   7 -12   5 13095.9 1213.54  20
   7  12   5 13321.2 2236.35   9
   7 -12   6 4018.93 1319.63   8
   7  12   6 4887.86 1604.50   9
   7 -12   7 16652.7 2570.68   8
   7  12   7 17864.4 2847.11   9
  -7 -12  -7 18374.6 2316.78   4
   7  12   8 2558.47 1227.38   9
   7  12   9-480.039 890.582   9
   7  12  10 2376.30 877.899   7
   7  12  10 2140.89 682.060  24
   7  12  10 2516.03 1197.41   9
   7  12  11-922.325 600.459   7
   7  12  11-600.365 415.896  24
   7  12  11 140.838 448.521   9
   7  12  12 137.761 385.950   7
   7  12  12 228.812 327.056  24
   7  12  13 169.496 297.289   7
   7  12  13 200.527 220.863  24
   7  12  14 279.943 217.155  24
  -7 -13  13 130.868 342.001  11
  -7  13  13-529.512 404.574  11
  -7 -13  12-729.880 609.133  11
  -7 -13  12 58.0562 583.513  10
  -7  13  12 232.239 471.537  11
  -7 -13  11 3234.70 1178.07  11
  -7  13  11 4749.74 1308.74   2
  -7 -13  11 2940.35 1137.06  10
  -7 -13  10 796.853 530.066  11
  -7 -13  10 1011.69 685.685  10
  -7 -13   9 1469.89 936.898  11
  -7 -13   9 1127.14 851.033  10
  -7 -13   8 3810.05 1361.50  11
  -7 -13   8 3564.65 1249.88  10
  -7 -13   7 3534.59 1245.12  11
   7  13  -7 3510.88 1375.04   1
   7 -13  -7 2466.45 1047.27   5
  -7  13   7 2899.78 1107.39  16
  -7 -13   6 1999.91 1172.92  11
   7  13  -6 2269.14 1026.34   1
  -7  13   6 4585.38 1274.44  16
   7 -13  -6 3222.21 967.443   5
   7  13  -5 18627.7 2699.40   1
  -7 -13   5 14664.7 2444.31  11
   7 -13  -5 16802.2 1691.90  21
  -7  13   5 17452.6 2355.34  16
   7 -13  -5 15858.9 2435.89   5
  -7 -13   4 43576.2 4118.90  11
   7  13  -4 36061.7 3497.77   1
   7 -13  -4 40514.9 2526.94  21
  -7  13   4 42159.2 3557.71  16
   7  13  -3 6966.80 1519.35   1
  -7  13   3 10533.7 1759.46  16
   7  13  -2 11866.6 1971.84   1
  -7  13   2 11149.5 1743.34  16
   7  13  -1 19549.3 2498.33   1
  -7  13   1 20599.6 2256.56  16
   7 -13   0 1096.05 454.205  19
   7  13   0 808.801 565.169   1
   7 -13   1 5056.21 880.124  19
   7  13   1 3268.69 1043.22   1
   7 -13   2 463.019 400.950  19
   7  13   2 264.265 395.643   1
   7 -13   3 802.276 336.338  19
  -7 -13  -4 109.387 386.291   4
   7 -13   4 473.189 400.952  19
   7  13   4 219.984 709.717   9
   7 -13   5 712.739 440.531   8
  -7 -13  -5 1682.37 762.796   4
   7  13   5-435.820 869.029   9
   7 -13   6-578.644 676.976   8
  -7 -13  -6-1115.40 679.314   4
   7  13   6 673.653 720.095   9
   7 -13   7 4980.92 1487.81   8
  -7 -13  -7 1889.91 781.784   4
   7  13   7 2524.31 1069.91   9
   7  13   8 4777.96 1502.24   9
   7  13   9 1579.05 881.141   9
   7  13  10 1646.22 615.098  24
   7  13  10 1324.91 813.999   7
   7  13  10 1079.98 787.637   9
   7  13  11 200.103 427.281   7
   7  13  11 127.014 316.340  24
   7  13  12 184.591 327.915   7
   7  13  12 33.0819 239.435  24
   7  13  13 1554.93 532.798   7
   7  13  13 1301.30 411.047  24
  -7 -14  13 1137.73 577.977  11
  -7  14  13 1459.94 533.707  11
  -7 -14  12 115.527 467.270  11
  -7  14  12 21.6860 379.391  11
  -7 -14  12 856.440 528.789  10
  -7 -14  11 8827.77 1771.70  11
  -7  14  11 9067.02 1602.83  11
  -7 -14  11 10270.9 1742.64  10
  -7  14  11 9538.44 1789.52   2
  -7 -14  10 5193.45 1418.60  11
  -7 -14  10 5161.47 1312.85  10
  -7  14  10 7486.59 1694.02   2
  -7 -14   9 1521.51 809.315  11
  -7 -14   9 2927.79 1041.81  10
  -7 -14   8-200.436 539.510  11
  -7 -14   8-986.843 730.117  10
  -7 -14   7 303.622 685.546  11
  -7 -14   7-1000.83 722.847  10
   7 -14  -7 1508.46 819.709   5
   7  14  -6 972.410 613.095   1
  -7 -14   6 1379.02 856.890  11
  -7  14   6-252.378 601.576  16
   7 -14  -6 1016.20 741.405   5
  -7 -14   5 426.101 626.528  11
   7 -14  -5 127.152 307.251  21
  -7  14   5 1353.56 817.065  16
   7  14  -5 1117.45 597.814   1
  -7 -14   4 291.645 483.096  11
   7 -14  -4 293.008 345.708  21
   7  14  -4-922.257 744.091   1
  -7  14   4 35.5616 430.202  16
  -7 -14   3 500.415 692.128  11
   7  14  -3 654.241 688.247   1
   7 -14  -3 1327.83 563.608  21
  -7 -14   3 978.365 533.966  25
  -7  14   3 1016.82 693.714  16
  -7 -14   2 571.953 606.947  11
   7  14  -2 323.503 391.299   1
  -7  14   2 256.154 406.293  16
  -7 -14   2 452.726 330.493  25
   7  14  -1 4476.56 1219.02   1
  -7 -14   1 4096.36 1344.72  11
  -7 -14   1 3775.45 833.112  25
  -7  14   1 3146.84 977.742  16
  -7 -14   0 2674.45 1027.55  11
  -7 -14   0 1958.74 674.541  25
   7 -14   0 2060.08 573.490  19
   7  14   0 2638.81 928.024   1
   7 -14   1 13654.6 2328.80   8
   7  14   1 13292.4 2054.76   1
   7 -14   1 13417.7 1447.83  19
  -7 -14  -1 12509.0 1511.72  25
   7 -14   2 3500.23 1360.05   8
  -7 -14  -2 4544.87 908.451  25
   7  14   2 2880.83 924.280   1
   7 -14   2 3845.24 863.566  19
   7 -14   3 1078.35 521.121   8
  -7 -14  -3-452.068 473.615   4
   7 -14   3 468.437 366.006  19
   7  14   3 230.934 541.114   9
  -7 -14  -3-469.431 495.471  25
   7 -14   4 3436.92 1256.57   8
  -7 -14  -4 2704.05 756.831   4
   7 -14   4 5503.11 972.528  19
   7  14   4 4250.99 1389.44   9
   7 -14   5 12040.6 2288.13   8
  -7 -14  -5 10597.1 1746.30   4
   7  14   5 11415.4 2157.42   9
   7 -14   6-1512.40 885.383   8
  -7 -14  -6 1022.71 764.700   4
   7  14   6-458.391 854.048   9
   7 -14   7 5101.60 1482.47   8
   7  14   7 4367.98 1545.35   9
   7 -14   8 19073.9 2812.24   8
   7  14   8 15270.3 2571.03   9
   7  14   9 4317.90 1197.25   7
   7  14   9 4705.40 1431.25   9
   7  14  10 472.182 505.055   7
   7  14  10 316.230 400.434  24
   7  14  11 346.938 404.171   7
   7  14  11-86.5726 310.037  24
   7  14  12 137.923 288.724   7
   7  14  12-222.616 262.414  24
   7  14  13 618.679 361.429   7
   7  14  13-221.024 223.836  24
  -7 -15  12 679.440 552.110  11
  -7 -15  12 245.662 341.525  10
  -7  15  12 995.466 485.529  11
  -7 -15  11 906.823 597.203  11
  -7  15  11 1590.28 690.336  11
  -7 -15  11 579.786 471.771  10
  -7  15  11 1685.97 781.045   2
  -7 -15  10 1017.04 772.908  11
  -7 -15  10 260.644 451.467  10
  -7  15  10 692.226 628.603   2
  -7 -15   9 1938.20 926.228  11
  -7 -15   9 2605.01 1004.87  10
  -7 -15   8 1072.69 684.636  11
  -7 -15   8 440.413 676.924  10
  -7 -15   7 1644.36 933.840  11
  -7 -15   7 1803.79 845.672  10
  -7 -15   7 923.054 463.342  25
   7 -15  -7 561.105 581.098   5
  -7 -15   6 22921.1 3254.99  11
  -7 -15   6 26668.1 2175.43  25
   7 -15  -6 24359.3 3027.17   5
  -7 -15   5-778.115 673.215  11
   7 -15  -5 346.475 351.177  21
   7  15  -5 130.181 938.273   1
  -7  15   5-805.857 641.249  16
   7 -15  -5-828.680 745.578   5
  -7 -15   5-124.254 454.240  25
  -7 -15   4 8539.96 1967.12  11
  -7 -15   4 8282.66 1250.73  25
   7  15  -4 7554.50 1713.10   1
   7 -15  -4 8737.52 1175.64  21
  -7  15   4 6924.27 1540.77  16
   7  15  -3 16716.9 2567.38   1
  -7 -15   3 15240.5 2530.85  11
  -7 -15   3 13227.2 1588.98  25
   7 -15  -3 13849.8 1476.96  21
  -7  15   3 14608.9 2108.91  16
   7  15  -2 1274.28 865.672   1
  -7 -15   2 964.292 770.591  11
  -7 -15   2 1048.94 513.100  25
  -7  15   2 1458.84 720.952  16
   7 -15  -1 2106.66 1010.81   8
  -7 -15   1 1965.94 974.024  11
  -7 -15   1 1691.93 595.823  25
   7  15  -1 1648.87 820.989   1
   7 -15   0 6206.45 1630.75   8
  -7 -15   0 7080.31 1838.69  11
  -7 -15   0 6474.75 1091.71  25
   7 -15   0 9028.53 1197.50  19
   7  15   0 7262.68 1593.41   1
   7 -15   1 6796.83 1714.81   8
  -7 -15  -1 7683.24 1224.02  25
   7  15   1 4748.24 1292.33   1
   7 -15   1 7130.62 1112.20  19
   7  15   1 6345.60 1431.65   3
   7 -15   2 2770.58 1048.71   8
   7  15   2 3038.78 1061.21   1
  -7 -15  -2 1972.16 703.485  25
   7 -15   2 2870.65 767.750  19
   7  15   2 3805.56 1137.51   3
   7 -15   3 12.2974 580.365   8
  -7 -15  -3 18.8006 438.585   4
   7 -15   3 68.4584 362.103  19
   7  15   3 716.496 770.091   9
   7  15   3 1041.70 574.990   3
   7 -15   4-1841.36 958.375   8
  -7 -15  -4-1000.79 689.844   4
   7 -15   4-277.397 530.060  19
   7  15   4-131.029 545.578   9
   7  15   4-363.273 543.274   3
   7 -15   5-562.909 680.257   8
  -7 -15  -5 138.022 478.085   4
   7  15   5 396.216 727.589   3
   7  15   5 1508.98 788.993   9
   7 -15   6 992.457 759.290   8
   7  15   6 2572.53 1161.18   9
   7 -15   7-213.980 552.385   8
   7  15   7 1186.90 1001.48   9
   7 -15   8-1820.85 956.517   8
   7  15   8 395.465 628.714   7
   7  15   9 1228.32 660.535   7
   7  15  10 655.203 550.086   7
   7  15  10 699.079 397.902  24
   7  15  11-866.904 508.474   7
   7  15  11 603.613 359.360  24
   7  15  12 5577.28 1039.58   7
   7  15  12 5979.92 780.164  24
  -7 -16  12 433.580 399.943  11
  -7 -16  11-652.964 522.209  11
  -7  16  11-765.241 532.353   2
  -7 -16  11-140.555 419.295  10
  -7 -16  10 6052.20 1425.21  11
  -7 -16  10 6368.20 1361.77  10
  -7  16  10 7450.50 1564.98   2
  -7 -16   9 4743.31 1403.45  11
  -7 -16   9 3257.13 1004.04  10
  -7  16   9 3873.95 1158.57   2
  -7 -16   8 2947.93 1132.28  11
  -7 -16   8 2800.76 1016.21  10
   7 -16  -8 2387.15 984.053   5
  -7 -16   7-441.931 870.570  11
  -7 -16   7-375.224 761.910  10
   7 -16  -7-462.483 528.194   5
  -7 -16   6-850.521 713.726  11
  -7 -16   6 249.406 480.192  25
  -7 -16   6-812.791 665.234  10
   7 -16  -6-1096.52 747.307   5
  -7 -16   5-133.204 530.110  11
  -7 -16   5-453.059 393.653  25
   7 -16  -5 151.099 508.132   5
  -7 -16   4 1044.29 734.263  11
  -7 -16   4 184.589 347.390  25
   7 -16  -4 11.6173 319.228  21
   7  16  -3 860.112 765.042   1
  -7 -16   3-31.8980 427.761  11
  -7 -16   3 24.0459 329.549  25
   7 -16  -3 99.1048 311.560  21
  -7  16   3-99.6838 345.872  16
  -7 -16   2 509.936 666.756  11
  -7 -16   2-162.076 321.006  25
  -7  16   2-36.4642 593.527  16
   7  16  -2 298.371 697.564   1
   7 -16  -1 150.156 805.306   8
  -7 -16   1 917.006 749.284  11
  -7 -16   1-112.422 345.024  25
   7  16  -1 372.645 703.051   1
   7  16   0 240.518 396.730   3
   7 -16   0-265.930 609.655   8
  -7 -16   0 55.3582 367.784  25
   7  16   0-621.777 605.139   1
   7 -16   0 523.255 510.171  19
   7 -16   1 1687.14 1130.69   8
   7 -16   1 2271.86 658.901  19
  -7 -16  -1 2527.12 733.241  25
   7  16   1 3204.31 1107.35   1
   7  16   1 1120.58 644.110   3
   7 -16   2 5780.41 1643.62   8
  -7 -16  -2 6678.90 1140.52  25
   7 -16   2 6979.59 1131.69  19
   7  16   2 6182.17 1533.09   3
   7 -16   3 240.745 617.819   8
   7 -16   3-7.23647 380.067  19
   7  16   3-866.414 646.086   3
   7 -16   4 4580.29 1480.72   8
   7  16   4 9085.23 1873.53   3
   7 -16   5-415.922 432.718   8
   7  16   5 1618.98 834.080   3
   7 -16   6 4188.93 1442.64   8
   7  16   6 5601.02 1502.97   3
   7 -16   7 981.949 785.055   8
   7  16   7 937.788 644.901   3
   7  16   7-1151.84 692.516   7
   7 -16   8 4296.05 1364.18   8
   7  16   8 2367.89 916.601   7
   7  16   9 122.283 404.663   7
   7  16  10 840.884 531.557   7
   7  16  10 1053.04 436.196  24
   7  16  11-64.3920 405.478   7
   7  16  11-640.453 355.158  24
   7  16  12 56.0271 232.979   7
   7  16  12 281.170 226.466  24
  -7 -17  11 505.680 449.038  11
  -7  17  11 615.229 458.515   2
  -7 -17  11 241.569 338.870  10
  -7 -17  10 279.568 347.394  11
  -7 -17  10 804.295 526.973  10
  -7  17  10-369.600 455.059   2
  -7 -17   9 2755.86 996.556  11
  -7 -17   9 2255.14 838.718  10
  -7  17   9 2106.68 889.549   2
  -7 -17   8 6328.04 1605.34  11
  -7 -17   8 5825.91 1400.40  10
   7 -17  -8 5153.43 1222.82   5
  -7 -17   7 740.749 802.691  11
  -7 -17   7 320.861 461.871  10
   7 -17  -7 1907.02 892.548   5
  -7 -17   6 10294.2 2074.14  11
  -7 -17   6 13244.0 2149.80  10
  -7 -17   6 12425.3 1453.56  25
   7 -17  -6 13913.4 2236.14   5
  -7 -17   5 644.290 589.189  11
  -7 -17   5 517.810 508.731  25
   7 -17  -5 822.705 760.956   5
  -7 -17   4 9470.34 2020.71  11
  -7 -17   4 10120.3 1391.87  25
   7 -17  -4 9416.95 1233.67  21
  -7 -17   3 8688.36 2027.53  11
  -7 -17   3 9267.61 1340.03  25
   7 -17  -3 8461.59 1164.10  21
  -7 -17   2 1.78454 578.388  11
  -7 -17   2-24.2085 310.814  25
   7 -17  -1 1354.74 803.129   8
  -7 -17   1 477.030 709.704  11
  -7 -17   1 1379.10 561.251  25
   7 -17   0 777.542 705.658   8
  -7 -17   0 109.415 370.190  25
   7  17   0 42.7353 499.738   1
   7  17   0 435.193 519.777   3
   7 -17   1 434.098 692.119   8
  -7 -17  -1 518.737 428.229  25
   7  17   1 166.961 436.147   3
   7 -17   2 1016.82 780.568   8
   7  17   2 2767.00 1002.03   3
   7 -17   3 142.660 642.881   8
   7  17   3-1879.79 851.118   3
   7 -17   4-567.316 630.066   8
   7  17   4 156.175 553.806   3
   7 -17   5 981.612 745.644   8
   7  17   5-730.809 617.121   3
   7 -17   6 800.372 732.063   8
   7  17   6-150.350 459.907   3
   7  17   6-110.030 398.572   7
   7 -17   7 262.422 463.238   8
   7  17   7 417.791 414.417   7
   7  17   7 811.001 633.088   3
   7 -17   8 462.247 599.196   8
   7  17   8-104.347 391.178   7
   7  17   9 176.005 342.465   7
   7  17   9 808.670 424.837  24
   7  17  10 310.700 465.635   7
   7  17  10 285.459 308.609  24
   7  17  11 1183.15 485.834   7
   7  17  11 1847.60 461.440  24
  -7 -18  11 7684.38 1197.53  11
  -7 -18  10 31.0364 360.875  11
  -7 -18  10 25.1702 292.977  10
  -7  18  10 362.842 402.292   2
  -7 -18   9 2600.83 1002.40  11
  -7 -18   9 1720.43 768.433  10
  -7  18   9 1961.48 937.314   2
  -7 -18   8 713.439 670.856  11
  -7 -18   8 379.358 466.145  10
   7 -18  -8-531.629 554.772   5
  -7 -18   7 503.903 600.342  11
  -7 -18   7 433.456 525.409  10
   7 -18  -7 1865.37 791.396   5
  -7 -18   6-705.944 598.421  11
  -7 -18   6 653.331 450.793  25
  -7 -18   6 1244.03 718.495  10
   7 -18  -6 55.4089 550.630   5
  -7 -18   5-140.997 559.303  11
   7 -18  -5-662.509 702.991   5
  -7 -18   5 171.666 397.910  25
  -7 -18   5-1180.91 728.258  10
  -7 -18   4-281.005 651.469  11
   7 -18  -4-343.467 603.414   5
  -7 -18   4-487.534 397.468  25
  -7 -18   3 1838.63 1056.79  11
   7 -18  -3 1873.41 583.061  21
  -7 -18   3 893.948 452.492  25
  -7 -18   2-3.53842 549.005  11
  -7 -18   2 273.540 455.490  25
   7  18  -1 2980.81 1062.43   3
   7 -18  -1 937.595 750.623   8
  -7 -18   1 1094.94 557.342  25
   7 -18   0-52.2316 652.210   8
  -7 -18   0 38.1989 375.569  25
   7  18   0 363.904 562.497   3
   7 -18   1 4347.78 1402.25   8
   7  18   1 3930.09 1132.15   3
   7 -18   2 152.705 517.748   8
   7  18   2 5.54395 397.833   3
   7 -18   3 3799.40 1376.33   8
   7  18   3 3151.70 1062.09   3
   7 -18   4 1422.30 858.863   8
   7  18   4 895.959 656.369   3
   7 -18   5 3369.47 1229.41   8
   7  18   5 3453.51 1100.60   3
   7 -18   6 4465.47 1437.84   8
   7  18   6 4591.64 1115.67   7
   7  18   6 4886.24 1223.21   3
   7 -18   7 438.451 459.898   8
   7  18   7 390.704 458.386   7
   7  18   7 957.410 616.701   3
   7 -18   8 1390.16 631.465   8
   7  18   8 666.206 487.907   7
   7  18   8 87.6868 344.464   3
   7  18   9 557.357 512.911   7
   7  18   9 870.199 408.089  24
   7  18  10-9.53398 261.240   7
   7  18  10-40.8811 205.714  24
   7  18  11 99.0873 229.914   7
   7  18  11 216.662 235.889  24
  -7 -19  10 45.7081 277.511  11
  -7 -19   9 2243.82 789.709  11
  -7 -19   9 1336.41 577.693  10
  -7  19   9 2396.60 851.183   2
  -7 -19   8 512.173 397.238  11
  -7 -19   8 140.073 567.513  10
   7 -19  -8 99.7469 312.432   5
  -7 -19   7-408.308 553.255  11
  -7 -19   7 867.749 583.607  10
   7 -19  -7-530.472 504.233   5
  -7 -19   6 3320.83 1153.39  11
  -7 -19   6 3978.71 740.850  25
  -7 -19   6 2207.05 838.128  10
   7 -19  -6 3399.12 1061.54   5
  -7 -19   5-75.5415 555.259  11
  -7 -19   5 642.907 386.271  25
  -7 -19   5-1092.59 665.904  10
   7 -19  -5-308.353 519.920   5
  -7 -19   4 555.294 479.063  11
  -7 -19   4 1740.94 568.363  25
   7 -19  -4 704.070 771.084   5
  -7 -19   3 8945.09 1919.12  11
  -7 -19   3 8030.94 1201.51  25
   7  19  -2 4763.58 1307.30   3
  -7 -19   2 3079.22 786.964  25
   7 -19  -1 1595.07 962.507   8
  -7 -19   1 3475.03 856.535  25
   7  19  -1 3208.26 1052.67   3
   7 -19   0-572.322 774.497   8
   7  19   0 139.235 400.927   3
   7 -19   1 831.296 706.459   8
   7  19   1-216.060 435.942   3
   7 -19   2 852.794 667.482   8
   7  19   2 1068.91 660.446   3
   7 -19   3 802.267 707.943   8
   7  19   3 800.996 633.216   3
   7 -19   4-242.013 486.599   8
   7  19   4 802.654 632.022   3
   7 -19   5-660.863 701.005   8
   7  19   5-278.880 447.992   3
   7 -19   6 318.021 443.812   8
   7  19   6 824.910 573.505   3
   7 -19   7 239.653 434.128   8
   7  19   7 560.578 432.175   7
   7 -19   8 156.276 689.932   8
   7  19   8-225.186 339.387   7
   7  19   8 447.438 404.081   3
   7  19   9 262.286 303.650   7
   7  19   9 1075.67 390.377  24
   7  19  10 509.976 348.710   7
   7  19  10 452.513 265.741  24
  -7 -20   9-751.018 472.575  11
  -7  20   9-838.143 472.045   2
  -7 -20   8 1917.39 713.571  11
  -7 -20   8 2358.94 733.830  10
  -7 -20   7 475.799 522.409  11
  -7 -20   7-287.960 374.347  10
   7 -20  -7 573.102 447.945   5
  -7 -20   6 1131.82 648.058  11
  -7 -20   6 1105.55 596.698  10
   7 -20  -6 834.745 570.416   5
  -7 -20   5 93.2443 385.396  11
   7 -20  -5 297.431 481.540   5
   7 -20  -4 1112.96 738.966   5
   7  20  -3 571.595 529.749   3
   7 -20  -3 1362.93 885.511   5
   7  20  -2 546.250 467.870   3
   7 -20  -1 1329.66 797.759   8
   7  20  -1 1572.67 777.327   3
   7 -20   0-774.277 859.257   8
   7  20   0-178.690 444.859   3
   7 -20   1-299.303 536.349   8
   7  20   1 85.5863 380.533   3
   7 -20   2-102.366 430.657   8
   7  20   2 851.176 627.952   3
   7 -20   3 969.262 731.956   8
   7  20   3 4943.04 1263.27   3
   7 -20   4 10808.1 2016.29   8
   7  20   4 12839.6 1964.45   3
   7 -20   5 4555.02 1370.12   8
   7  20   5 7173.23 1461.94   3
   7 -20   6 802.633 622.567   8
   7  20   6-366.283 410.873   3
   7 -20   7 87.7410 450.812   8
   7  20   7-949.475 478.606   7
   7  20   7-72.9778 396.403   3
  -7 -20  -7 513.547 327.793  21
   7 -20   8 1107.09 689.770   8
   7  20   8 1803.75 584.867   7
   7  20   8 1274.00 585.086   3
   7  20   9 958.757 409.332   7
   7  20   9 1326.65 360.209  24
  -7  21   8 5297.92 1170.68   2
   7 -21  -7 1121.08 520.259   5
   7 -21  -6 2679.05 890.596   5
   7  21  -5 27.7704 356.569   3
   7 -21  -5 205.229 354.555   5
   7 -21  -4 7173.25 1547.17   5
   7  21  -4 3662.50 1052.14   3
   7 -21  -3 999.674 702.818   5
   7  21  -3 1146.45 638.245   3
   7  21  -2 2360.90 871.436   3
   7 -21  -2 2133.15 917.112   5
   7 -21  -1 103.471 410.406   8
   7  21  -1 256.719 390.467   3
   7 -21   0 1032.02 770.112   8
   7  21   0 348.886 451.366   3
   7 -21   1 215.792 380.362   8
   7  21   1 81.0629 506.963   3
   7 -21   2 1158.63 759.716   8
   7  21   2 777.183 533.581   3
   7 -21   2 2090.50 805.768   5
   7 -21   3 854.587 650.467   8
   7  21   3 219.871 361.709   3
   7 -21   4-352.506 530.784   8
   7  21   4 23.8886 433.546   3
   7 -21   5 743.707 683.095   8
   7  21   5 35.0325 337.848   3
   7 -21   6 822.759 591.183   8
   7  21   6 612.132 444.998   3
   7 -21   7-357.191 444.194   8
   7  21   7-537.554 378.599   3
  -7 -21  -7-162.750 191.378  21
   7 -21   8-544.661 411.309   8
   7  21   8-126.732 169.231  24
   7  22  -7 1028.16 513.759   3
   7 -22  -6 117.026 274.102   5
   7  22  -6 165.488 329.639   3
   7 -22  -5-587.714 465.524   5
   7  22  -5 64.5188 369.086   3
   7 -22  -4 1217.17 674.983   5
   7  22  -4 397.364 381.772   3
   7 -22  -3-141.565 480.354   5
   7  22  -3-884.413 561.688   3
   7  22  -2-431.353 440.965   3
   7 -22  -2 446.382 506.265   5
   7 -22  -1 198.398 360.944   8
   7  22  -1 376.558 442.488   3
   7 -22  -1-364.263 435.218   5
   7 -22   0 1268.74 678.652   8
   7  22   0 1912.32 785.204   3
   7 -22   0-150.848 461.742   5
   7 -22   1 57.2706 427.619   8
   7  22   1 1003.64 690.750   3
   7 -22   1 733.892 372.932   5
   7 -22   2 281.997 543.569   8
   7  22   2 833.473 541.915   3
   7 -22   2 66.5372 440.148   5
   7 -22   3 291.305 406.542   8
   7  22   3-810.652 514.694   3
   7 -22   4 5462.26 1177.29   9
   7 -22   4 5185.43 1292.74   8
   7  22   4 5832.54 1160.76   3
   7 -22   5 113.813 419.168   8
   7  22   5-194.111 300.275   3
   7 -22   6 246.176 559.080   8
   7  22   6 623.498 398.867   3
  -7 -22  -6 444.547 266.139  21
   7 -22   7 71.5286 359.703   8
   7  23  -6-201.023 330.433   3
   7 -23  -5-120.109 256.463   5
   7  23  -5 462.832 375.686   3
   7 -23  -4 1129.17 576.044   5
   7  23  -4 552.495 413.961   3
   7  23  -3 1611.83 665.328   3
   7 -23  -3 1747.88 763.826   5
   7  23  -2 903.596 572.517   3
   7 -23  -2 1476.01 688.499   5
   7  23  -1 1062.18 638.757   3
   7 -23  -1 1196.35 663.755   5
   7 -23   0 370.683 521.822   8
   7  23   0 263.987 293.208   3
   7 -23   0-66.7631 416.574   5
   7 -23   1 88.4626 331.348   8
   7  23   1 6.66688 271.822   3
   7 -23   1 150.497 398.523   5
   7 -23   2 606.682 490.600   8
   7  23   2 36.5220 300.525   3
   7 -23   2-6.83063 398.307   5
   7 -23   3 709.341 517.392   8
   7  23   3 243.288 412.259   3
   7 -23   4 89.5406 310.005   8
   7  23   4 698.313 416.762   3
   7 -23   5 588.955 453.738   8
   7  23   5 994.867 446.429   3
  -7 -23  -5 299.261 220.792  21
   7 -23   6 249.339 379.827   8
   7  24  -4-527.318 361.739   3
   7 -24  -4 12.0946 283.667   5
   7  24  -3 460.882 375.117   3
   7 -24  -3-33.2055 267.040   5
   7  24  -2 517.077 362.360   3
   7 -24  -2 215.450 322.005   5
   7  24  -1 2070.44 673.654   3
   7 -24  -1 1835.48 694.023   5
   7  24   0-218.199 412.586   3
   7 -24   0 160.833 292.023   5
   7 -24   1 670.784 473.651   8
   7  24   1 61.4790 266.214   3
   7 -24   1 1080.55 489.899   5
   7 -24   2 357.758 504.561   8
   7  24   2 458.642 404.320   3
   7 -24   3-544.788 419.779   8
   7  24   3 552.087 261.844   3
   7 -24   4 394.120 319.458   8
  -7 -24  -4 21.7179 196.345  21
  -8   0  15 22.2509 361.722  11
  -8   0  14 1773.65 725.999  11
  -8   0  14 1599.50 680.844  10
  -8   0  13-1114.25 731.261  11
  -8   0  12 1471.70 902.361  11
  -8   0  11 150.806 462.675  11
  -8   0  10 3996.01 1321.39  11
  -8   0   9-1132.49 713.802  11
  -8   0   9 653.997 532.868  16
  -8   0   8 90.4308 371.645  16
  -8   0   7-151.567 498.785  16
  -8   0   6 304.519 394.074  16
  -8   0   5-106.687 399.989  16
  -8   0   4 53917.3 3130.45  16
  -8   0   3-956.737 479.955  16
  -8   0   2 12388.1 1402.95  16
  -8   0   1-258.362 403.638  16
  -8   0   0 323925. 6567.32  16
  -8   0  -1-99.7224 236.555  16
  -8   0  -2 16549.3 1441.91  16
   8   0   3 3.51382 261.657  20
   8   0   4 15578.1 1102.00  20
   8   0   5-186.789 278.642  20
   8   0   6 3567.04 1088.74  12
   8   0   6 2763.90 547.339  20
   8   0   7-1459.13 820.383  12
   8   0   7-599.961 397.700  20
   8   0   9 91.5221 367.142  24
   8   0   9-927.657 667.777   9
   8   0  10 4707.59 912.781  24
   8   0  10 5844.53 1591.94   9
   8   0  11 202.327 276.151  24
   8   0  12-17.8096 341.347  24
   8   0  13-75.4966 298.425  24
   8   0  13-239.716 380.057  22
   8   0  14 4207.45 732.682  24
   8   0  14 3227.53 529.810  22
   8   0  15 39.9411 240.851  22
  -8  -1  15 3337.85 932.048  11
  -8   1  15 2997.12 875.322  11
  -8  -1  14 934.764 632.999  11
  -8   1  14 870.143 661.448  11
  -8  -1  14 1841.45 723.068  10
  -8  -1  13-519.731 616.068  11
  -8   1  13 1602.78 826.915  11
  -8   1  12 818.517 353.137  26
  -8  -1  12 1798.92 908.084  11
  -8  -1  11 193.076 336.159  26
  -8  -1  11 668.582 783.537  11
  -8   1  11-421.878 505.169  11
  -8   1  10 1407.40 938.613  11
  -8  -1  10 2130.56 1003.20  11
  -8   1   9 2261.61 874.572  12
  -8   1   9 3159.30 1085.01  11
  -8   1   9 2477.44 874.344  16
  -8  -1   9 699.622 566.557  16
  -8  -1   9 1863.30 872.878  11
  -8  -1   8 1300.09 725.044  16
  -8   1   8 350.198 399.692  16
  -8  -1   7-101.647 498.705  16
  -8   1   7 336.475 420.881  16
  -8  -1   6 743.683 494.266  16
  -8   1   6 1071.09 678.043  16
  -8  -1   5 147.278 386.097  16
  -8   1   5 359.605 579.084  16
  -8  -1   4 307.426 477.067  16
  -8   1   4 612.005 461.994  16
  -8  -1   3 780.664 475.711  16
  -8   1   3 1085.72 589.875  16
  -8  -1   2 8666.59 1204.26  16
  -8   1   2 10609.7 1319.08  16
  -8  -1   1 17170.6 1596.01  16
  -8   1   1 19859.6 1697.04  16
  -8  -1   0 218718. 5471.69  16
  -8   1   0 218001. 5339.56  16
  -8   1  -1 5286.60 838.198  16
  -8  -1  -1 4684.89 812.002  16
  -8   1  -2 80864.7 3073.71  16
  -8  -1  -2 80199.2 3240.67  16
   8   1   3 100624. 2627.58  20
   8  -1   3 101249. 2707.75  20
   8   1   4 44283.7 1805.68  20
   8  -1   4 45250.3 1896.18  20
   8  -1   4 42392.6 3254.82  12
   8   1   5 26889.4 1502.07  20
   8  -1   5 30212.3 1615.33  20
   8  -1   5 27242.5 2773.12  12
   8  -1   6 7550.18 1580.28  12
   8   1   6 6686.02 772.601  20
   8  -1   6 6590.33 862.768  20
   8  -1   7 144.715 691.792  12
   8   1   7-91.8664 280.737  20
   8  -1   7 207.142 272.039  20
   8  -1   8 17015.3 2660.81  12
   8  -1   9 3.45014 559.822  12
   8  -1   9-998.868 464.954  24
   8   1   9 615.873 418.455  24
   8   1   9-258.764 485.691   9
   8  -1  10 3930.12 1540.07  12
   8  -1  10 4102.87 847.839  24
   8   1  10 5061.82 927.611  24
   8   1  10 3673.91 1201.16   9
   8  -1  10 4435.97 1261.90   9
   8  -1  11-411.956 429.529  24
   8   1  11-464.532 405.782  24
   8   1  11-153.165 471.426   9
   8  -1  12-61.8218 325.489  24
   8   1  12 0.61757 302.071  24
   8  -1  13 316.282 396.684  24
   8   1  13-114.144 281.450  24
   8  -1  13-355.367 363.062  22
   8  -1  14-120.760 320.614  22
   8   1  14-317.107 394.391  22
   8  -1  15 466.831 286.739  22
   8   1  15-21.1879 272.468  22
  -8  -2  15 55.4628 375.260  11
  -8   2  15 769.893 596.152  11
  -8  -2  14 150.570 403.159  11
  -8   2  14-213.832 383.743  11
  -8  -2  14-386.422 427.287  10
  -8  -2  13 376.063 472.328  11
  -8   2  13-157.077 532.711  11
  -8  -2  12-387.852 592.151  11
  -8   2  12-525.712 802.992  11
  -8  -2  11 249.206 346.337  26
  -8  -2  11 471.433 586.317  11
  -8   2  11 1211.37 704.451  11
  -8   2  10 4681.99 1406.95  12
  -8  -2  10 4740.28 1366.71  11
  -8  -2  10 3157.96 739.780  26
  -8   2  10 4093.55 1310.75  11
  -8  -2   9 2154.72 918.013  11
  -8   2   9 1295.72 778.607  16
  -8   2   9 1801.51 794.708  11
  -8  -2   8 2199.04 734.918  16
  -8   2   8 2426.29 882.304  16
  -8  -2   7 20474.9 2230.25  16
  -8   2   7 22120.9 2321.95  16
  -8  -2   6 3165.49 871.604  16
  -8   2   6 4051.11 963.219  16
  -8  -2   5 74173.7 3855.33  16
  -8   2   5 72330.0 3784.88  16
  -8   2   4 9102.62 1310.82  16
  -8  -2   4 8110.82 1266.97  16
  -8  -2   3 80589.9 3732.97  16
  -8   2   3 82133.9 3694.51  16
  -8  -2   2 2319.67 664.344  16
  -8   2   2 2426.51 646.044  16
  -8  -2   1 21349.7 1801.13  16
  -8   2   1 18474.3 1632.47  16
  -8   2   0 34504.0 2131.03  16
  -8  -2   0 34013.9 2224.67  16
  -8  -2  -1 11793.8 1292.85  16
  -8   2  -1 11201.6 1190.81  16
   8   2   2 6989.58 676.620  20
  -8  -2  -2 5505.49 916.833  16
   8   2   3 4056.44 544.074  20
   8  -2   3 4401.36 649.946  20
   8  -2   4 343.609 723.965  12
   8   2   4 556.289 270.243  20
   8  -2   4 153.870 257.150  20
   8  -2   5 303.079 557.979  12
   8   2   5 623.782 263.333  20
   8  -2   5 559.538 334.102  20
   8  -2   6-41.1149 773.020  12
   8  -2   6-297.798 377.530  20
   8   2   6 333.040 304.395  20
   8  -2   7-33.1948 635.940  12
   8  -2   7 108.849 264.961  20
   8  -2   8 8791.08 1889.27  12
   8  -2   9 3495.56 1359.56  12
   8  -2   9 2310.80 662.723  24
   8   2   9 3090.90 766.700  24
   8   2   9 2403.46 991.099   9
   8  -2   9 1480.87 401.790   9
   8  -2  10 508.774 350.377  24
   8   2  10 243.308 338.571  24
   8   2  10 556.871 436.987   9
   8  -2  10-199.906 460.702   9
   8  -2  11 560.671 451.373  24
   8   2  11 679.263 447.152  24
   8   2  11-83.8541 448.262   9
   8  -2  12 428.406 362.104  24
   8   2  12 154.252 295.763  24
   8   2  13 8377.09 1091.38  24
   8  -2  13 8463.98 876.087  22
   8   2  14 934.968 408.119  24
   8  -2  14 789.279 317.253  22
   8   2  14 6.22774 394.842  22
   8  -2  15 3171.33 506.950  22
   8   2  15 2313.86 427.450  22
  -8  -3  15 11874.1 1692.61  11
  -8   3  15 12224.6 1702.99  11
  -8  -3  14 470.392 488.711  11
  -8   3  14 4.84066 376.144  11
  -8  -3  14 1395.32 642.976  10
  -8  -3  13 503.088 617.450  11
  -8  -3  13 2153.71 954.232  10
  -8   3  13 1075.44 580.133  11
  -8  -3  12 3497.98 1281.62  11
  -8   3  12 2614.97 1109.61  11
  -8  -3  11 8.19019 579.074  11
  -8   3  11-247.026 463.690  11
  -8  -3  10-279.259 357.375  26
  -8   3  10-160.680 560.536  11
  -8  -3  10-455.860 607.246  11
  -8   3   9-1312.09 746.235  11
  -8   3   9 990.481 691.537  16
  -8  -3   9-635.567 617.719  11
  -8  -3   9-8.98875 380.404  26
  -8  -3   8-1123.73 602.984  16
  -8   3   8 571.451 438.977  16
  -8   3   7 1178.72 560.217  16
  -8  -3   7 2084.18 812.741  16
  -8  -3   6-275.980 370.810  16
  -8   3   6-110.145 444.235  16
  -8  -3   5 286.278 358.094  16
  -8   3   5 100.380 316.783  16
  -8   3   4-23.6768 398.643  16
  -8  -3   4-222.783 370.453  16
  -8  -3   3 24105.5 2107.09  16
  -8   3   3 23585.6 2038.93  16
  -8  -3   2 9387.67 1299.37  16
  -8   3   2 9161.25 1218.49  16
  -8  -3   1 11748.2 1392.11  16
  -8   3   1 10391.6 1241.82  16
  -8  -3   0 6004.04 998.707  16
  -8   3   0 5953.30 954.816  16
  -8  -3  -1 327.828 381.915  16
  -8   3  -1 34.3769 228.443  16
   8   3   2 30686.0 1327.72  20
  -8  -3  -2 27463.5 2013.63  16
   8   3   3 147768. 2995.08  20
   8  -3   3 154891. 3471.04  20
   8   3   4 20700.6 1170.04  20
   8  -3   4 24533.6 1477.74  20
   8  -3   4 22476.2 2529.22  12
   8   3   5 52112.5 1934.39  20
   8  -3   5 53876.9 2259.82  20
   8  -3   5 50840.4 4109.94  12
   8   3   6 17259.5 1180.70  20
   8  -3   6 17276.1 1373.68  20
   8  -3   7 6263.26 1601.68  12
   8  -3   7 5948.97 864.252  20
   8  -3   8 1890.70 956.108  12
   8  -3   9 1013.93 680.517  12
   8  -3   9-344.040 354.707  24
   8   3   9 754.748 488.015  24
   8   3   9 45.6404 448.541   9
   8  -3   9-606.127 567.293   9
   8   3   9-1789.24 810.314  13
   8  -3  10 984.880 1004.10  12
   8  -3  10 2682.25 718.038  24
   8   3  10 2355.52 663.416  24
   8   3  10 1183.00 540.751   9
   8  -3  11-316.589 350.928  24
   8   3  11 280.045 330.920  24
   8   3  11 645.988 656.254   9
   8  -3  12 824.582 458.736  24
   8   3  12 53.1959 278.927  24
   8  -3  12 353.896 348.822  22
   8   3  13 36.3213 361.684  24
   8  -3  13-308.096 393.083  22
   8   3  14-288.665 248.594  24
   8  -3  14 26.7336 306.982  22
   8   3  14-854.073 419.097  22
   8   3  15 1465.36 417.917  24
   8  -3  15 1588.77 419.394  22
   8   3  15 767.700 323.273  22
  -8  -4  15 881.599 576.357  11
  -8   4  15 115.994 345.940  11
  -8  -4  14-272.852 436.125  11
  -8   4  14 47.0526 487.884  11
  -8  -4  14 1.01183 378.228  10
  -8  -4  13 1665.21 832.720  11
  -8   4  13 1172.93 782.967  11
  -8  -4  13 2742.28 941.249  10
  -8  -4  12 1055.30 764.226  11
  -8   4  12 682.236 661.586  11
  -8  -4  11 1482.78 860.586  11
  -8   4  11 352.278 511.587  11
  -8  -4  10 1006.20 824.394  11
  -8  -4  10 1332.74 587.503  26
  -8   4  10 2026.32 829.891  16
  -8   4  10 1086.62 750.234  11
  -8  -4   9 96.0402 348.124  26
  -8   4   9-126.463 449.843  11
  -8   4   9 540.017 504.931  16
  -8  -4   8 5647.64 1224.15  16
  -8   4   8 5773.48 1307.15  16
  -8  -4   7 9663.10 1548.66  16
  -8   4   7 7997.29 1426.16  16
  -8  -4   6 601.585 476.173  16
  -8   4   6 519.118 528.598  16
  -8  -4   5 56390.0 3447.02  16
  -8   4   5 60777.6 3507.19  16
  -8  -4   4 77533.5 3877.94  16
  -8   4   4 76335.0 3754.57  16
  -8  -4   3 12157.1 1522.76  16
  -8   4   3 14312.8 1580.01  16
  -8  -4   2 34016.0 2448.26  16
  -8   4   2 34270.7 2339.26  16
  -8  -4   1 8363.03 1206.89  16
  -8   4   1 7526.41 1069.59  16
  -8  -4   0 11868.8 1383.26  16
  -8   4   0 10957.7 1253.52  16
   8  -4   1 237.048 152.641  19
  -8  -4  -1 108.220 378.934  16
  -8   4  -1 135.768 303.480  16
   8   4   2 11381.1 795.225  20
  -8  -4  -2 12078.3 1393.92  16
   8   4   3 836.710 287.438  20
   8  -4   3 859.134 367.127  20
  -8  -4  -3 104.403 303.062  16
   8   4   4 3179.97 467.087  20
   8  -4   4 3048.21 573.365  20
   8  -4   5 612.830 781.615  12
   8  -4   5 41.5214 276.407  20
   8  -4   6 2382.21 1075.63  12
   8  -4   6 2062.85 524.684  20
   8  -4   7-29.5817 677.673  12
   8  -4   7 745.623 378.447  20
   8  -4   8 2045.11 1062.02  12
   8   4   8 1570.15 735.218   9
   8  -4   9 542.950 886.493  12
   8  -4   9 195.101 397.055  24
   8   4   9 281.030 381.211  24
   8   4   9-1070.73 763.997   9
   8  -4   9 669.237 534.229   9
   8   4   9 760.003 575.853  13
   8  -4  10 5105.62 1658.30  12
   8  -4  10 2703.48 710.505  24
   8   4  10 3927.56 839.565  24
   8   4  10 2779.39 1032.56   9
   8  -4  11 336.302 364.536  24
   8   4  11 189.535 327.577  24
   8  -4  11-602.208 518.090  22
   8   4  11 514.516 614.685   9
   8   4  12 1041.12 468.919  24
   8  -4  12 964.288 379.440  22
   8   4  12 1596.02 881.590   9
   8   4  13 1136.48 469.129  24
   8  -4  13 871.144 378.958  22
   8   4  14 1161.08 416.996  24
   8  -4  14 1484.58 427.157  22
   8   4  14 1249.10 391.652  22
   8   4  15 4106.05 632.643  24
   8   4  15 2859.88 424.068  22
  -8  -5  15 2351.16 776.813  11
  -8   5  15 2645.38 829.627  11
  -8  -5  14 3175.91 1004.59  11
  -8  -5  14 1172.33 523.867  10
  -8   5  14 1720.14 762.573  11
  -8  -5  13 167.461 452.092  11
  -8   5  13-146.552 413.462  11
  -8  -5  13 1332.48 679.030  10
  -8  -5  12 17668.6 2600.92  11
  -8   5  12 13188.2 2189.61  11
  -8  -5  11 673.839 725.243  11
  -8   5  11-836.926 677.792  11
  -8  -5  10 269.330 699.485  11
  -8  -5  10 57.6945 301.046  26
  -8   5  10 1685.01 863.935  16
  -8   5  10 194.290 596.403  11
  -8  -5   9 1978.45 958.690  11
  -8  -5   9 2457.62 700.117  26
  -8   5   9 3753.46 1190.34  11
  -8   5   9 1937.36 861.813  16
  -8  -5   8 3562.42 1226.87  11
  -8  -5   8 3045.60 952.516  16
  -8  -5   8 2551.74 585.461  26
  -8   5   8 2309.65 771.978  16
  -8  -5   7-289.608 396.509  16
  -8   5   7-472.137 633.358  16
  -8  -5   6-636.277 462.192  16
  -8   5   6 917.039 643.200  16
  -8  -5   5 445.297 375.442  16
  -8   5   5 235.402 328.180  16
  -8  -5   4 270.449 435.890  16
  -8   5   4 321.966 360.224  16
  -8  -5   3 2040.36 690.412  16
  -8   5   3 2291.68 713.566  16
   8   5  -2 8609.54 1235.69   1
  -8   5   2 8794.38 1217.33  16
  -8  -5   2 9365.06 1361.51  16
  -8  -5   1-262.966 426.415  16
  -8   5   1 392.920 337.303  16
   8  -5   0 31623.1 1292.04  19
  -8  -5   0 31310.7 2375.44  16
  -8   5   0 27966.6 2001.37  16
   8  -5   1 33.7175 153.098  19
  -8  -5  -1-20.8075 343.997  16
  -8   5  -1 68.2436 261.463  16
   8  -5   2 41792.3 1844.63  20
  -8  -5  -2 37689.1 2537.36  16
   8  -5   3 337.361 283.106  20
  -8  -5  -3 565.878 375.065  16
   8  -5   4 12729.6 1117.89  20
   8  -5   5 3025.77 1350.46  12
   8  -5   5 1544.92 447.752  20
   8  -5   6 66750.0 2704.16  20
   8  -5   6 64739.9 5061.07  12
   8  -5   7 1931.31 1191.98  12
   8  -5   7 854.832 399.244  20
   8  -5   8 6473.80 1732.52  12
   8   5   8 7662.35 1072.26  24
   8   5   8 6814.37 1653.15   9
   8  -5   8 9039.63 1830.85   9
   8   5   8 6766.74 1455.56  13
   8  -5   9 3710.45 1329.15  12
   8  -5   9 3796.41 863.990  24
   8   5   9 2681.08 735.932  24
   8   5   9 2402.48 1011.57   9
   8  -5   9 2988.10 952.960   9
   8  -5  10 1655.41 1066.03  12
   8   5  10 893.159 497.388  24
   8  -5  10-96.1699 453.826  22
   8   5  10 545.657 622.802   9
   8   5  11 513.638 500.263  24
   8  -5  11-576.157 459.873  22
   8   5  11 560.677 638.215   9
   8   5  12-84.3186 310.036  24
   8  -5  12-86.8662 406.816  22
   8   5  12 347.456 651.183   9
   8   5  13-847.872 425.915  24
   8  -5  13-754.879 433.719  22
   8   5  14 157.025 284.869  24
   8  -5  14 926.558 445.809  22
   8   5  15 490.068 280.945  24
   8   5  15-298.306 295.990  22
  -8  -6  15 57.8546 279.339  11
  -8   6  15 406.488 479.138  11
  -8  -6  14-417.004 456.060  11
  -8   6  14-321.426 397.536  11
  -8  -6  13 106.076 458.006  11
  -8  -6  13 946.860 525.056  10
  -8   6  13-739.525 562.785  11
  -8  -6  12 2570.23 1071.62  11
  -8   6  12 1716.46 874.519  11
  -8  -6  11 132.981 667.212  11
  -8   6  11 472.071 730.451  11
  -8  -6  10 1283.61 780.124  11
  -8  -6  10 895.024 461.015  26
  -8   6  10 1220.91 778.167  11
  -8  -6   9-227.515 508.715  11
  -8  -6   9 337.250 408.796  26
  -8   6   9-308.118 579.508  16
  -8  -6   8 51214.2 4412.64  11
  -8   6   8 59835.8 4024.40  16
  -8  -6   8 56032.6 2897.17  26
  -8  -6   7 2679.72 834.100  16
  -8   6   7 1685.90 694.097  16
  -8  -6   6 1248.73 701.861  16
  -8   6   6 541.478 480.662  16
  -8  -6   5 28669.7 2569.01  16
  -8   6   5 32625.0 2696.97  16
  -8   6   4 33307.4 2621.57  16
  -8  -6   4 32997.8 2639.63  16
   8   6  -3 372.761 395.691   1
  -8  -6   3 1003.02 527.898  16
  -8   6   3 1125.99 518.648  16
   8   6  -2 77322.5 3720.84   1
  -8  -6   2 89675.0 4153.90  16
  -8   6   2 87147.5 3904.46  16
  -8  -6   1 619.731 440.503  16
  -8   6   1 4.68502 354.359  16
  -8   6   0 32747.9 2176.27  16
   8  -6   0 32020.7 1385.88  19
  -8  -6   0 33940.3 2525.89  16
   8  -6   1 14737.2 977.291  19
  -8  -6  -1 13928.0 1611.17  16
   8  -6   2 2833.42 539.439  20
   8  -6   2 2498.81 458.487  19
  -8  -6  -2 2298.05 741.635  16
   8  -6   3 1529.83 409.963  20
  -8  -6  -3 1907.48 710.285  16
   8  -6   4 88.5034 343.732  20
   8  -6   5 417.659 307.307  20
   8  -6   6 4768.09 1586.47  12
   8  -6   6 3210.58 705.323  20
   8  -6   7 1714.62 1308.12  12
   8  -6   7 2350.50 573.092  20
   8  -6   8 2066.67 1188.71  12
   8   6   8 424.757 303.131  24
   8   6   8 1068.14 672.091   9
   8  -6   8 1753.42 685.216   9
   8   6   8 570.301 548.099  13
   8  -6   9 5584.90 1696.80  12
   8   6   9 5142.37 1001.00  24
   8  -6   9 3769.42 615.058  22
   8   6   9 3533.63 1255.84   9
   8   6  10 6603.98 1078.38  24
   8  -6  10 6280.51 779.396  22
   8   6  10 5993.44 1617.15   9
   8   6  11 281.550 415.551  24
   8  -6  11-716.673 529.436  22
   8   6  11-1496.96 857.970   9
   8   6  12-94.9264 305.962  24
   8  -6  12 280.218 334.180  22
   8   6  12 353.124 594.593   9
   8   6  13 4891.89 855.059  24
   8  -6  13 5177.55 716.944  22
   8   6  14 3472.16 640.381  24
   8   6  15 418.666 261.350  24
   8   6  15 111.763 251.764  22
  -8  -7  15 1848.05 631.973  11
  -8   7  15 1603.34 588.329  11
  -8  -7  14-425.940 479.907  11
  -8   7  14 128.465 293.232  11
  -8  -7  13 585.482 609.014  11
  -8   7  13 834.992 567.296  11
  -8  -7  13 810.745 559.878  10
  -8  -7  12 3228.04 1176.99  11
  -8   7  12 3379.64 1112.65  11
  -8  -7  11 291.782 719.708  11
  -8   7  11 449.875 566.210  11
  -8  -7  10 1115.57 962.169  11
  -8   7  10-617.328 933.406  11
  -8  -7   9 1197.10 834.796  11
  -8   7   9-118.132 448.963  11
  -8  -7   9 7.12455 319.361  26
  -8   7   9 400.169 569.648  16
  -8  -7   8 1468.02 821.714  11
  -8  -7   8 2516.73 674.295  26
  -8   7   7 498.930 457.539  16
  -8  -7   7-149.480 405.544  16
  -8  -7   6-38.9662 419.454  16
  -8   7   6 208.090 451.890  16
  -8  -7   5-117.317 448.053  16
  -8   7   5 133.372 499.757  16
  -8  -7   4 2795.12 813.635  16
  -8   7   4 2666.72 850.394  16
  -8   7   3 8498.90 1343.59  16
   8   7  -3 8671.80 1382.90   1
  -8  -7   3 7571.39 1332.18  16
   8   7  -2 19892.0 1998.76   1
  -8  -7   2 21425.4 2106.79  16
  -8   7   2 21347.4 2000.21  16
   8  -7  -1 10.5471 163.028  19
  -8  -7   1-202.228 393.326  16
  -8   7   1-386.461 349.128  16
   8   7  -1-9.31815 383.907   1
   8  -7   0 26227.1 1339.28  19
  -8  -7   0 25388.8 2326.68  16
  -8   7   0 24797.7 1960.54  16
   8  -7   1 5757.91 658.760  19
  -8  -7  -1 5380.23 1072.27  16
   8  -7   2 1287.02 440.303  20
   8  -7   2 1261.44 360.515  19
  -8  -7  -2 1871.80 734.880  16
   8  -7   3 62947.9 2370.95  20
   8  -7   4 873.510 414.015  20
   8  -7   5 26263.1 1691.24  20
   8  -7   6 14840.2 1337.21  20
   8  -7   7-246.375 364.869  20
   8   7   7-373.716 484.273  13
   8  -7   8 1172.09 968.033  12
   8   7   8 838.570 501.989  24
   8   7   8 311.846 546.499   9
   8   7   8-260.630 464.967  13
   8  -7   9 2910.15 1537.22  12
   8   7   9 1790.82 601.475  24
   8  -7   9 1710.88 465.749  22
   8   7   9 1311.50 866.894   9
   8   7  10 1153.98 543.552  24
   8  -7  10-367.793 535.161  22
   8   7  10 335.668 661.960   9
   8   7  11 635.260 517.861  24
   8  -7  11-215.480 442.412  22
   8   7  12 225.530 380.062  24
   8   7  12-3.31472 364.084   7
   8  -7  12-0.38624 345.886  22
   8   7  13-156.058 266.512  24
   8  -7  13 809.379 501.727  22
   8   7  13-297.596 474.228   9
   8   7  14-28.0176 246.097  24
   8   7  15 1447.13 385.760  24
  -8  -8  15 271.683 297.717  11
  -8  -8  14 857.918 646.507  11
  -8   8  14 151.345 334.085  11
  -8  -8  13 691.303 572.287  11
  -8   8  13 150.629 395.607  11
  -8  -8  13-475.161 452.527  10
  -8  -8  12 7.78715 505.644  11
  -8   8  12-447.267 583.911  11
  -8  -8  11 8090.88 1810.31  11
  -8   8  11 4772.37 1374.63  11
  -8  -8  10 72.5163 598.003  11
  -8   8  10-1514.24 828.094  11
  -8  -8   9 230.599 498.595  11
  -8  -8   9-228.375 313.500  26
  -8   8   9-8.80395 381.385  16
  -8  -8   8 330.872 413.893  11
  -8  -8   8 140.607 316.919  26
  -8   8   8 516.577 467.742  16
  -8  -8   7 17661.0 2630.33  11
  -8  -8   7 15993.2 1525.18  26
  -8  -8   7 15876.6 2092.14  16
  -8   8   7 19288.6 2359.51  16
  -8  -8   6 27913.8 2696.94  16
  -8   8   6 27287.2 2669.29  16
  -8  -8   5 139108. 5822.42  16
  -8   8   5 138642. 5830.99  16
   8   8  -4 6613.69 1317.11   1
  -8  -8   4 5062.36 1102.56  16
  -8   8   4 8654.20 1427.96  16
   8   8  -3 33329.2 2800.39   1
  -8  -8   3 36672.8 2907.20  16
  -8   8   3 37497.3 2838.82  16
   8   8  -2 620.259 468.749   1
  -8  -8   2 534.724 471.912  16
  -8   8   2 103.189 365.572  16
  -8  -8   1 2217.85 773.793  16
   8  -8  -1 1833.86 429.056  19
   8   8  -1 2251.35 738.306   1
  -8   8   1 1394.57 517.089  16
   8   8   0 12223.2 1595.61   1
   8  -8   0 14221.3 1054.86  19
  -8  -8   0 14967.2 1829.79  16
  -8   8   0 12683.8 1472.00  16
   8  -8   1 630.148 281.497  19
  -8  -8  -1 65.7311 390.877  16
   8  -8   2 5413.89 736.877  20
   8  -8   2 5895.41 745.682  19
  -8  -8  -2 4990.81 1048.51  16
   8  -8   3 1812.84 478.225  20
   8  -8   3 1679.83 428.568  19
   8  -8   4 48.8709 265.015  20
   8  -8   5 2895.06 615.028  20
   8  -8   6 241.371 300.711  20
   8  -8   7 1670.68 526.445  20
   8   8   7 2462.19 1062.99   9
   8   8   7 2513.79 973.601  13
   8  -8   7 2877.79 1129.14   9
   8   8   8 3508.90 801.893  24
   8   8   8 2842.78 1149.29   9
   8  -8   8 2511.10 828.250   9
   8  -8   9 5222.48 1756.42  12
   8   8   9 4220.12 894.750  24
   8   8   9 4380.01 1458.12   9
   8   8  10-37.1209 382.870  24
   8  -8  10-165.508 379.299  22
   8   8  10 261.594 746.588   9
   8   8  11 423.111 385.282  24
   8  -8  11-482.478 364.829  22
   8   8  11 335.187 575.526   9
   8   8  12 1453.63 671.814   7
   8   8  12 2493.61 670.754  24
   8  -8  12 2246.89 620.938  22
   8   8  12 168.240 531.981   9
   8   8  13 10701.4 1520.46   7
   8   8  13 12168.2 1269.53  24
   8   8  13 10377.6 1665.57   9
   8   8  14 373.791 277.410  24
  -8  -9  14 499.727 491.071  11
  -8   9  14 365.468 353.337  11
  -8  -9  13 4757.82 1323.18  11
  -8   9  13 1683.39 763.569  11
  -8  -9  12 344.324 602.236  11
  -8   9  12-365.972 467.567  11
  -8  -9  11-447.224 773.717  11
  -8   9  11 615.455 598.844  11
  -8  -9  10 481.504 530.567  11
  -8   9  10-578.190 583.188  11
  -8  -9   9 2484.23 1111.73  11
  -8  -9   8 588.865 621.881  11
  -8   9   8 1360.74 651.615  16
  -8  -9   7-432.389 604.945  11
  -8  -9   7-431.290 456.723  16
   8  -9  -7-1024.53 694.812   5
  -8   9   7-1601.17 763.639  16
  -8  -9   6-74.4036 403.036  16
  -8   9   6 135.406 438.317  16
   8   9  -5 1076.12 839.927   1
  -8  -9   5 1287.07 768.652  16
  -8   9   5 163.661 470.099  16
   8   9  -4-335.535 668.235   1
  -8  -9   4 170.340 461.736  16
  -8   9   4 392.727 539.164  16
   8   9  -3 228.402 548.522   1
  -8  -9   3 1031.64 609.446  16
  -8   9   3 1727.08 720.817  16
   8   9  -2 12645.2 1724.77   1
  -8  -9   2 12106.0 1753.34  16
  -8   9   2 14679.2 1785.68  16
   8   9  -1 182.184 399.943   1
  -8  -9   1 403.031 556.911  16
  -8   9   1 155.920 323.116  16
   8   9   0 231.415 456.295   1
   8  -9   0 356.126 248.706  19
  -8  -9   0 158.159 403.726  16
  -8   9   0 134.161 377.503  16
   8  -9   1 474.006 343.357  20
   8  -9   1 197.066 299.403  19
  -8  -9  -1 406.130 357.995  16
   8  -9   2 82130.5 2701.89  20
   8  -9   2 86105.7 2863.54  19
   8  -9   3 32403.5 1787.96  20
   8  -9   3 34636.5 1916.91  19
   8  -9   4 7821.59 937.483  20
   8  -9   5 22570.9 1636.76  20
   8   9   6 295.083 574.918   9
   8  -9   6 1164.75 397.485  20
   8   9   6 2076.33 942.506  13
   8  -9   7 15398.0 1387.15  20
   8   9   7 15732.7 2531.48   9
   8   9   7 12884.3 2107.29  13
   8  -9   7 14282.6 2346.98   9
   8   9   8 347.837 558.583   9
   8  -9   8 1122.44 872.919   9
   8   9   9 3031.41 809.202  24
   8   9   9 4147.57 1467.81   9
   8   9  10-8.86406 357.748  24
   8  -9  10 377.297 416.099  22
   8   9  10 8.60183 576.763   9
   8   9  11 249.238 365.541  24
   8  -9  11 726.466 502.429  22
   8   9  11-588.450 677.245   9
   8   9  12 756.658 453.051   7
   8   9  12 33.4640 284.826  24
   8   9  13 19.2652 293.750   7
   8   9  13 309.562 321.341  24
   8   9  13 706.176 614.249   9
   8   9  14-767.329 329.911  24
  -8 -10  14-304.847 368.780  11
  -8  10  14-935.534 471.711  11
  -8 -10  13 177.350 355.258  11
  -8  10  13 570.861 484.176  11
  -8 -10  12 1389.14 788.538  11
  -8  10  12 2230.91 892.419  11
  -8 -10  11-412.153 591.046  11
  -8  10  11 544.737 599.065  11
  -8 -10  10 339.690 518.034  11
  -8  10  10-495.734 553.324  11
  -8 -10   9 462.842 482.371  11
  -8 -10   8 9094.65 2025.52  11
  -8  10   8 8721.99 1691.97  16
   8  10  -8 10038.4 2091.88   1
  -8 -10   7 4126.84 1274.12  11
   8  10  -7 6087.01 1651.18   1
   8 -10  -7 4652.32 1299.22   5
  -8  10   7 5041.97 1286.97  16
  -8 -10   6 35728.1 3687.69  11
   8  10  -6 36258.8 3649.18   1
   8 -10  -6 38004.1 3564.00   5
  -8  10   6 39671.7 3421.03  16
  -8 -10   6 38168.1 3394.64  16
   8  10  -5 12923.5 2081.97   1
  -8 -10   5 15828.2 2091.64  16
  -8  10   5 19353.6 2317.69  16
   8  10  -4 17119.9 2332.85   1
  -8 -10   4 16353.5 2148.27  16
   8  10  -3 25511.8 2630.29   1
  -8 -10   3 29246.3 2743.34  16
  -8  10   3 32212.1 2838.67  16
   8  10  -2 52206.8 3583.34   1
  -8 -10   2 54899.0 3718.56  16
  -8  10   2 57899.6 3660.80  16
   8  10  -1 102.211 489.167   1
  -8 -10   1 219.287 654.805  16
  -8  10   1 66.2120 423.363  16
   8  10   0 8994.35 1467.59   1
   8 -10   0 10305.9 1059.71  19
  -8 -10   0 10783.8 1691.85  16
   8 -10   1 403.023 281.988  20
   8 -10   1 281.757 304.416  19
   8  10   1 639.906 584.668   1
   8 -10   2 6025.11 804.093  20
   8 -10   2 6751.27 885.053  19
   8 -10   3 490.628 250.375  20
   8 -10   3 993.283 397.474  19
   8 -10   4 3707.37 670.034  20
   8 -10   5 118.737 305.978  20
   8 -10   6 2233.90 972.737   9
   8 -10   6 542.493 587.023   8
   8 -10   6 2060.19 575.684  20
   8  10   6 668.187 674.046   9
   8  10   6 2222.36 987.472  13
   8 -10   7 2760.07 1048.00   8
   8  10   7 2300.38 1111.50   9
   8 -10   7 377.892 578.083   9
   8  10   8 2613.04 1169.69   9
   8  10   9 3229.88 830.834  24
   8  10   9 3674.20 1356.06   9
   8  10  10 1193.49 545.743  24
   8  10  10 725.837 625.405   9
   8  10  11 129.738 300.101  24
   8  10  11-498.489 630.120   9
   8  10  12 3267.51 1004.80   7
   8  10  12 3088.02 713.066  24
   8  10  12 1544.25 810.560   9
   8  10  13 459.428 310.321   7
   8  10  13 729.005 379.050  24
   8  10  14 385.473 235.827  24
  -8 -11  14-148.303 324.164  11
  -8 -11  13 4047.99 1023.75  11
  -8  11  13-1149.46 547.681  11
  -8 -11  12 41.6324 522.583  11
  -8  11  12 1704.56 762.200  11
  -8 -11  11 632.784 646.502  11
  -8  11  11 13.0896 352.643  11
  -8 -11  10 74.7812 529.663  11
  -8  11  10 668.867 582.684  11
  -8 -11   9 236.999 528.762  11
  -8 -11   8 2363.12 1082.16  11
  -8 -11   7 2213.10 1102.06  11
   8  11  -7 817.636 760.756   1
   8 -11  -7 2197.72 1078.87   5
  -8  11   7 3055.87 1079.22  16
  -8 -11   6 2943.67 1268.19  11
   8  11  -6 1561.28 1015.47   1
  -8 -11   6 639.354 537.348  16
   8 -11  -6 1294.27 901.788   5
  -8  11   6 766.533 594.744  16
  -8 -11   5 149.021 716.024  11
  -8 -11   5-83.3115 535.813  16
  -8  11   5 902.550 824.659  16
   8 -11  -5 205.744 803.149   5
   8  11  -4 1747.64 790.196   1
  -8 -11   4 1919.47 703.570  16
  -8  11   4 1818.32 872.396  16
   8  11  -3 809.762 549.271   1
  -8 -11   3 1485.86 723.561  16
  -8  11   3 2551.64 850.502  16
   8  11  -2 39007.3 3225.73   1
  -8  11   2 41571.4 3187.36  16
  -8 -11   2 40611.9 3377.49  16
  -8 -11   1-143.482 589.710  16
   8  11  -1 440.938 475.613   1
  -8  11   1 327.589 332.253  16
   8 -11   0 27779.3 1587.46  20
   8 -11   0 28482.0 1786.64  19
   8  11   0 23447.6 2448.52   1
   8 -11   1 4279.62 641.087  20
   8 -11   1 4419.39 739.547  19
   8  11   1 5164.98 1206.35   1
   8 -11   2 22141.2 1506.27  20
   8 -11   2 24312.3 1732.44  19
   8 -11   3 428.855 283.006  20
   8 -11   3 974.284 432.468  19
   8 -11   4 2407.81 548.246  20
   8 -11   5 1460.17 916.223   8
   8  11   5 464.967 771.719   9
   8 -11   5 1048.05 416.329  20
   8  11   5 2067.39 859.002  13
   8 -11   6 21925.4 2908.66   8
   8 -11   6 21769.3 1648.41  20
   8  11   6 24385.0 3180.28   9
   8 -11   6 23314.1 3067.29   9
   8 -11   7 4703.25 1510.20   8
   8  11   7 6274.75 1747.43   9
   8 -11   7 4213.93 1438.20   9
   8  11   8 829.936 707.685   9
   8  11   9 472.565 384.871  24
   8  11   9-371.243 816.828   9
   8  11  10 2269.94 715.326  24
   8  11  10 3001.72 1296.02   9
   8  11  11 242.292 328.079  24
   8  11  11-596.585 603.215   9
   8  11  11-396.559 453.075   7
   8  11  12 414.327 419.732   7
   8  11  12 210.468 300.998  24
   8  11  12 680.558 658.489   9
   8  11  13 401.275 266.863   7
   8  11  13 50.9463 228.188  24
   8  11  14-245.934 245.887  24
  -8 -12  13-371.412 435.373  11
  -8  12  13-859.291 473.216  11
  -8 -12  12-860.395 613.623  11
  -8  12  12 275.581 421.700  11
  -8 -12  11 67.8735 407.836  11
  -8  12  11 308.633 445.461  11
  -8 -12  10 402.143 577.637  11
  -8 -12   9 3592.10 1276.04  11
  -8 -12   8 482.997 613.829  11
   8 -12  -8-987.497 680.521   5
  -8 -12   7 23428.7 3182.84  11
   8  12  -7 23153.5 3085.98   1
   8 -12  -7 23359.0 2864.45   5
  -8  12   7 25685.4 2916.45  16
  -8 -12   6 29517.9 3473.71  11
   8  12  -6 26731.4 3211.47   1
   8 -12  -6 31345.3 3381.63   5
  -8 -12   6 30856.0 3075.42  16
  -8  12   6 31951.7 3216.96  16
  -8 -12   5 3127.03 1182.54  11
   8  12  -5 2456.76 993.574   1
  -8 -12   5 4535.95 1230.06  16
  -8  12   5 3456.12 1107.51  16
   8 -12  -5 1033.64 549.171   5
  -8 -12   4 22498.4 2953.47  11
   8  12  -4 22802.6 2773.01   1
   8 -12  -4 27327.4 3141.98   5
  -8 -12   4 23866.4 2678.87  16
  -8  12   4 26648.9 2814.42  16
  -8 -12   3 14002.7 2034.90  16
  -8  12   3 13900.1 1980.94  16
   8  12  -3 10500.3 1833.43   1
   8 -12  -3 14712.2 2371.38   5
   8  12  -2 13198.1 1957.11   1
  -8 -12   2 13584.1 2024.92  16
  -8  12   2 15547.2 2014.70  16
   8  12  -1-49.3565 380.780   1
   8 -12  -1-685.853 415.385  19
  -8  12   1 202.270 350.535  16
   8 -12   0 5290.84 820.505  19
   8  12   0 3668.23 1024.52   1
   8  12   1 4910.55 1142.02   1
   8 -12   1 6291.15 932.579  19
   8  12   2 4656.83 1322.55   1
   8 -12   2 4562.86 714.994  20
   8 -12   2 4680.39 827.256  19
   8 -12   3-33.2340 295.663  20
   8 -12   3 710.806 396.478  19
   8 -12   4 413.662 585.068   8
   8 -12   4-149.559 310.021  20
   8  12   4 370.961 606.469   9
   8  12   4 168.181 424.792  13
   8 -12   5-361.914 564.952   8
   8 -12   5-60.4512 308.049  20
   8  12   5-1297.32 878.556   9
   8 -12   6 402.903 448.583   9
   8 -12   6-955.338 760.011   8
   8 -12   6 552.957 357.050  20
   8  12   6 318.217 606.810   9
   8 -12   7 2327.04 1066.73   8
  -8 -12  -7 1234.40 829.481   4
   8  12   7 578.315 736.938   9
   8 -12   7 1024.60 760.629   9
   8  12   8 951.189 793.136   9
   8  12   9 3309.94 824.026  24
   8  12   9 2124.91 1005.08   9
   8  12  10-600.653 444.769  24
   8  12  10 171.992 532.406   9
   8  12  11 437.039 516.296   7
   8  12  11 1108.84 456.771  24
   8  12  11 1401.95 780.426   9
   8  12  12 2062.86 678.567   7
   8  12  12 2928.21 647.808  24
   8  12  13 1686.74 530.130   7
   8  12  13 1646.44 438.214  24
  -8 -13  13 1591.59 715.534  11
  -8 -13  12 1735.32 796.246  11
  -8  13  12 1453.01 680.997  11
  -8 -13  11 18.4379 555.929  11
  -8  13  11 810.784 546.786  11
  -8 -13  10-387.620 431.000  11
  -8 -13   9 1275.63 835.573  11
  -8 -13   8 4035.26 1341.10  11
   8 -13  -8 4084.15 1133.13   5
  -8 -13   7 5795.81 1662.07  11
   8 -13  -7 6932.78 1656.52   5
  -8 -13   6 38.7518 500.184  11
   8  13  -6 1094.61 723.880   1
   8 -13  -6 1466.25 927.156   5
  -8  13   6 1254.33 798.157  16
   8  13  -5-264.216 800.705   1
  -8 -13   5-1282.93 871.332  11
  -8  13   5 196.902 424.958  16
   8 -13  -5 79.9570 605.490   5
  -8 -13   4 1506.51 1091.18  11
   8  13  -4 374.071 748.072   1
  -8  13   4 1854.47 709.108  16
   8 -13  -4 1575.86 1089.81   5
  -8 -13   3 2109.93 971.685  11
  -8  13   3 3499.92 1091.78  16
   8  13  -3 2417.83 963.149   1
   8 -13  -3 2269.38 1150.26   5
  -8 -13   2 1826.22 922.553  11
  -8  13   2 674.362 522.885  16
   8  13  -2 414.077 527.507   1
   8  13  -1 1720.24 746.334   1
  -8 -13   1 1753.09 839.030  11
  -8 -13   1 1210.97 388.240  25
   8 -13  -1 1462.37 553.241  19
  -8  13   1 1732.56 787.435  16
   8 -13   0 2032.85 604.448  19
   8  13   0 1568.78 684.584   1
  -8 -13   0 2464.90 692.370  25
   8 -13   1 3332.58 1074.19   8
  -8 -13  -1 3997.93 903.048  25
   8  13   1 4659.34 1273.21   1
   8 -13   1 5140.57 888.378  19
   8 -13   2 2096.53 1078.41   8
   8  13   2 2201.68 768.151   1
   8 -13   2 2306.11 626.553  19
  -8 -13  -2 2027.44 590.239  25
  -8 -13  -3 18638.4 1814.10  25
   8 -13   3 21282.4 1811.49  19
   8  13   3 16163.4 2414.98   9
   8 -13   4 469.241 679.309   8
   8 -13   4 973.791 440.358  19
   8  13   4 1327.48 672.113   9
   8 -13   5 14771.4 2498.29   8
   8  13   5 15045.6 2535.62   9
   8 -13   6 1891.91 961.113   9
   8 -13   6 1376.86 836.811   8
  -8 -13  -6 639.861 466.325   4
   8  13   6 470.165 568.118   9
   8 -13   7-410.678 568.339   8
   8  13   7 348.262 665.120   9
   8 -13   7 22.2051 435.374   9
   8 -13   8 10948.5 2088.48   8
   8  13   8 10796.7 2235.92   9
   8  13   9 374.407 380.073  24
   8  13   9 270.340 579.209   9
   8  13  10 583.891 599.514   7
   8  13  10 4.05820 297.434  24
   8  13  10 923.987 730.504   9
   8  13  11 651.332 514.436   7
   8  13  11 659.858 399.014  24
   8  13  12 60.5063 340.480   7
   8  13  12 694.456 324.677  24
   8  13  13-110.620 300.310   7
   8  13  13-246.284 272.406  24
  -8 -14  12 505.034 477.402  11
  -8 -14  11-190.975 435.576  11
  -8 -14  10 265.348 420.356  11
  -8 -14   9 314.452 418.858  11
  -8 -14   8 6756.34 1678.24  11
  -8 -14   8 7347.49 1187.80  25
   8 -14  -8 7717.01 1596.61   5
  -8 -14   7 4789.80 1447.01  11
   8 -14  -7 5739.14 1443.67   5
  -8 -14   6 48.0512 593.754  11
   8 -14  -6-155.566 514.189   5
   8  14  -5 32116.8 3477.58   1
  -8 -14   5 27260.1 3420.34  11
   8 -14  -5 30701.1 3502.68   5
  -8  14   5 38285.8 3538.33  16
  -8 -14   4 2368.49 1013.18  11
   8  14  -4 131.398 444.975   1
  -8  14   4 3087.80 1053.93  16
   8 -14  -4 2880.47 1118.01   5
  -8 -14   3 5018.63 1451.54  11
   8  14  -3 7915.43 1702.63   1
  -8 -14   3 4984.83 1002.87  25
  -8  14   3 6415.57 1414.99  16
   8 -14  -3 4848.39 1435.29   5
   8  14  -2 3325.09 1170.69   1
  -8 -14   2 2957.18 1158.77  11
  -8 -14   2 2809.61 762.434  25
  -8  14   2 2906.82 991.386  16
   8 -14  -1-581.359 712.557   8
  -8 -14   1 1592.53 964.415  11
   8 -14  -1 1608.82 562.702  19
  -8 -14   1 1084.99 575.271  25
   8  14  -1 1290.21 706.914   1
   8 -14   0 2152.45 1040.98   8
  -8 -14   0 2911.03 1047.68  11
  -8 -14   0 2283.25 642.251  25
   8 -14   0 2534.55 683.546  19
   8  14   0 3420.53 1203.28   1
   8 -14   1 1364.39 888.806   8
  -8 -14  -1 1357.73 537.301  25
   8  14   1 1407.61 734.764   1
   8 -14   1 2686.26 703.281  19
   8 -14   2-59.0607 485.804   8
  -8 -14  -2 352.510 301.136  25
   8 -14   2-30.2933 359.384  19
   8 -14   3 5.37245 576.289   8
  -8 -14  -3 1387.35 584.487   4
  -8 -14  -3 2620.66 737.114  25
   8 -14   3 2648.96 756.843  19
   8  14   3 2076.15 1035.70   9
   8 -14   4 994.637 880.067   8
  -8 -14  -4 2480.78 873.154   4
   8  14   4 1882.47 967.777   9
   8 -14   5 1.80231 456.514   8
  -8 -14  -5-849.561 610.201   4
   8  14   5 326.067 641.918   9
   8 -14   6-1407.15 868.811   9
   8 -14   6 7.20564 492.469   8
   8  14   6-1880.44 989.739   9
   8 -14   7-532.129 649.365   8
   8  14   7 180.954 688.302   9
   8 -14   7-523.758 616.859   9
   8 -14   8 2341.53 1031.82   8
   8  14   8 3159.01 1294.54   9
   8  14   9 112.475 346.358  24
   8  14   9 468.991 521.866   7
   8  14   9-119.302 634.768   9
   8  14  10 803.179 446.066   7
   8  14  10 338.037 316.217  24
   8  14  11-353.697 423.043   7
   8  14  11-81.4146 280.655  24
   8  14  12-293.450 325.936   7
   8  14  12 156.938 253.739  24
  -8 -15  12 1358.81 597.522  11
  -8 -15  11 234.229 437.920  11
  -8 -15  10 309.179 418.885  11
  -8 -15   9 1198.03 886.768  11
  -8 -15   8 5093.76 1479.19  11
   8 -15  -8 4163.86 1227.26   5
  -8 -15   7 353.749 697.813  11
  -8 -15   7 382.587 283.153  25
   8 -15  -7 785.326 663.775   5
  -8 -15   6-628.425 711.055  11
  -8 -15   6 22.0818 386.300  25
   8 -15  -6 667.910 729.455   5
  -8 -15   5 197.568 619.637  11
  -8 -15   5 323.928 405.155  25
   8 -15  -5 70.9655 454.903   5
  -8 -15   4 921.870 834.353  11
  -8 -15   4 485.797 414.227  25
   8  15  -4 460.625 743.856   1
   8 -15  -4 1010.45 878.217   5
  -8 -15   3 1593.70 817.262  11
   8  15  -3 767.993 670.858   1
  -8 -15   3 1078.35 531.033  25
  -8  15   3 150.024 627.200  16
   8 -15  -3 2234.75 1033.39   5
  -8 -15   2 1764.85 917.898  11
  -8 -15   2 3091.66 861.508  25
  -8  15   2 3222.92 1082.44  16
   8  15  -2 1623.90 821.370   1
   8 -15  -1 124.636 597.522   8
  -8 -15   1-470.226 620.783  11
   8 -15  -1 129.875 380.446  19
   8  15  -1 17.7412 353.973   1
  -8 -15   1 507.531 458.754  25
   8  15   0 10359.3 1853.65   3
   8 -15   0 12639.5 2307.88   8
  -8 -15   0 13533.2 2470.13  11
  -8 -15   0 13994.5 1653.98  25
   8  15   0 10614.7 1899.70   1
   8 -15   0 15315.0 1581.10  19
   8 -15   1-808.936 762.483   8
  -8 -15  -1 37.3699 343.985  25
   8  15   1-392.703 514.157   1
   8 -15   1 201.748 372.362  19
   8  15   1 222.374 452.359   3
  -8 -15  -2 5363.76 1024.21  25
   8 -15   2 7517.94 1147.80  19
   8 -15   3 9534.90 2000.75   8
  -8 -15  -3 12614.5 1545.51  25
   8 -15   3 13087.4 1504.29  19
   8  15   3 8858.58 1843.79   9
   8 -15   4 125.320 502.079   8
  -8 -15  -4 773.576 670.378   4
   8 -15   5 5226.47 1544.54   8
   8  15   5 3430.14 1110.63   9
   8 -15   6 15390.3 2522.93   9
   8 -15   6 11518.9 2261.21   8
   8  15   6 15059.4 2511.62   9
   8 -15   7 1889.31 1068.97   8
   8  15   7 1484.26 843.736   9
   8 -15   8 826.014 719.403   8
   8  15   8 1079.50 848.112   9
   8  15   9 411.045 488.519   7
   8  15   9-555.044 387.861  24
   8  15  10 610.293 506.924   7
   8  15  10 1212.66 447.189  24
   8  15  11 678.119 387.311   7
   8  15  11 809.109 370.996  24
   8  15  12 134.823 272.764   7
   8  15  12 151.501 237.917  24
  -8 -16  11-858.769 540.943  11
  -8 -16  10 658.353 536.430  11
  -8 -16   9 896.058 710.883  11
  -8  16   9 2725.57 1022.36   2
  -8 -16   8 7529.06 1709.75  11
   8 -16  -8 8625.95 1619.28   5
  -8 -16   7-358.187 860.431  11
  -8 -16   7 445.550 323.343  25
   8 -16  -7 703.361 489.816   5
  -8 -16   6-590.879 662.336  11
   8 -16  -6 760.034 490.983   5
  -8 -16   6-14.6545 458.245  25
  -8 -16   5 746.879 645.446  11
  -8 -16   5 850.669 440.181  25
   8 -16  -5-81.5307 484.732   5
  -8 -16   4 4255.81 1530.13  11
  -8 -16   4 4712.75 955.262  25
   8 -16  -4 5781.65 1592.18   5
  -8 -16   3 55.0345 503.893  11
  -8 -16   3-109.668 286.555  25
   8 -16  -3-13.6755 413.833   5
  -8 -16   2 16470.0 2670.69  11
  -8 -16   2 15242.7 1717.66  25
   8 -16  -1 280.064 544.067   8
  -8 -16   1 330.466 662.700  11
  -8 -16   1 530.474 440.821  25
   8 -16  -1 826.483 465.509  19
   8  16  -1 456.269 748.872   1
   8 -16   0 7496.93 1772.98   8
  -8 -16   0 7397.39 1198.02  25
   8  16   0 7004.36 1553.53   1
   8 -16   0 11032.9 1346.53  19
   8  16   0 9204.00 1723.55   3
   8 -16   1 1633.80 1054.12   8
  -8 -16  -1 1337.37 548.665  25
   8 -16   1 1940.07 630.431  19
   8  16   1 704.032 838.857   1
   8  16   1 2046.48 868.249   3
   8 -16   2 422.465 606.245   8
  -8 -16  -2 1595.57 504.787  25
   8  16   2 1451.62 735.748   3
   8 -16   3-239.486 540.748   8
   8 -16   4-104.896 590.561   8
   8 -16   5 1274.87 822.201   8
   8 -16   6-75.1672 436.266   9
   8 -16   6 156.465 543.478   8
   8 -16   7 316.163 699.113   8
   8  16   7-1072.89 671.870   7
   8 -16   8 1061.51 749.346   8
   8  16   8 1140.36 643.193   7
   8  16   9 749.288 486.625   7
   8  16   9 235.697 320.836  24
   8  16  10 2856.24 820.145   7
   8  16  10 2984.32 647.568  24
   8  16  11 50.4342 354.978   7
   8  16  11 331.992 267.700  24
  -8 -17  11-25.8767 315.129  11
  -8 -17  10 1969.41 784.166  11
  -8 -17   9-250.626 398.121  11
  -8  17   9 829.817 583.934   2
  -8 -17   8-805.829 621.851  11
   8 -17  -8 651.046 510.929   5
  -8 -17   7 79.8726 577.183  11
  -8 -17   7 1847.10 558.548  25
   8 -17  -7 1252.68 638.311   5
  -8 -17   6 811.004 585.101  11
  -8 -17   6 1660.51 537.020  25
   8 -17  -6 1336.24 814.318   5
  -8 -17   5 18.7960 556.093  11
  -8 -17   5-186.080 360.304  25
   8 -17  -5-966.118 713.530   5
  -8 -17   4 141.152 405.770  11
  -8 -17   4 211.863 298.799  25
   8 -17  -4 529.836 584.712   5
  -8 -17   3 209.437 580.438  11
  -8 -17   3 1050.21 548.343  25
   8 -17  -3 780.116 687.793   5
  -8 -17   2 7686.04 1829.07  11
  -8 -17   2 6165.63 1132.67  25
   8 -17  -2 7643.37 1830.01   5
   8  17  -1 1315.53 745.462   3
   8 -17  -1 564.993 557.530   8
  -8 -17   1 218.860 312.671  25
   8 -17   0 1109.64 844.224   8
  -8 -17   0 2531.64 782.432  25
   8  17   0 1844.85 712.164   3
   8 -17   1 2539.42 1128.42   8
  -8 -17  -1 5520.22 1069.19  25
   8  17   1 6290.25 1427.16   3
   8 -17   2 8048.70 1890.16   8
   8  17   2 11681.3 1919.91   3
   8 -17   3-294.080 564.857   8
   8  17   3 1193.30 683.169   3
   8 -17   4 3323.46 1277.54   8
   8 -17   5 2387.67 1070.30   8
   8 -17   6-229.626 497.135   9
   8  17   6 19.4198 530.451   7
   8 -17   7 862.078 942.337   8
   8  17   7 135.953 380.896   7
   8 -17   8 125.091 498.487   8
   8  17   8 989.197 591.526   7
   8  17   9 2091.61 710.919   7
   8  17   9 1540.77 518.886  24
   8  17  10 217.312 316.799   7
   8  17  10 586.617 307.286  24
   8  17  11-3.00299 280.742   7
   8  17  11-64.7316 193.394  24
  -8 -18  10 1590.80 640.290  11
  -8 -18   9 515.164 492.738  11
  -8  18   9 1514.27 775.269   2
  -8 -18   8-1008.37 633.871  11
   8 -18  -8-168.562 429.887   5
  -8 -18   7 1474.55 751.284  11
   8 -18  -7 1390.22 615.795   5
  -8 -18   6 641.612 686.244  11
  -8 -18   6 863.604 395.082  25
   8 -18  -6 383.140 484.274   5
  -8 -18   5 23457.3 2993.94  11
  -8 -18   5 19530.3 1806.64  25
   8 -18  -5 20674.8 2762.53   5
  -8 -18   4-530.796 626.077  11
   8 -18  -4 486.124 641.712   5
  -8 -18   4-266.676 382.113  25
  -8 -18   3-75.1318 375.893  11
  -8 -18   3-200.231 387.775  25
   8 -18  -3 378.475 521.463   5
   8  18  -2 3407.46 1151.16   3
  -8 -18   2 2392.41 716.458  25
   8 -18  -2 1461.01 839.139   5
   8 -18  -1 1400.36 836.819   8
  -8 -18   1-292.418 326.835  25
   8 -18  -1 756.650 697.922   5
   8  18  -1 929.948 709.169   3
   8 -18   0 218.878 537.260   8
  -8 -18   0 345.105 391.330  25
   8 -18   1 1028.34 755.840   8
   8  18   1 2039.81 800.201   3
   8 -18   1 543.766 556.632   5
   8 -18   2 998.806 761.527   8
   8  18   2 2452.37 906.982   3
   8 -18   2 1810.69 937.464   5
   8 -18   3-56.6822 500.768   8
   8  18   3 846.122 605.981   3
   8 -18   4 1018.73 899.081   8
   8  18   4 941.515 625.511   3
   8 -18   5 1763.61 847.432   9
   8 -18   5 378.937 471.425   8
   8 -18   6 600.521 602.768   8
   8  18   6 621.640 497.145   7
   8 -18   6-49.3842 407.466   9
   8 -18   7 1164.12 834.453   8
   8  18   7 721.220 509.286   7
   8 -18   8-1460.19 765.627   8
   8  18   8 424.985 419.303   7
   8  18   9 1031.24 549.960   7
   8  18   9-15.3842 240.271  24
   8  18  10 445.598 318.655   7
   8  18  10 33.5440 190.924  24
  -8 -19   9 241.156 363.128  11
  -8 -19   8-98.7584 350.768  11
   8 -19  -8 297.618 324.699   5
  -8  19   8-145.792 363.402   2
  -8 -19   7-310.583 456.573  11
   8 -19  -7-152.429 381.754   5
  -8 -19   6-259.603 544.887  11
  -8 -19   6 310.016 266.771  25
   8 -19  -6-77.1707 513.157   5
  -8 -19   5-49.4318 670.472  11
  -8 -19   5 194.243 306.730  25
   8 -19  -5-219.973 560.846   5
  -8 -19   4-222.649 584.169  11
   8 -19  -4-78.9488 430.346   5
  -8 -19   4-429.809 379.285  25
   8  19  -3 1190.67 791.827   3
  -8 -19   3 1384.24 548.064  25
   8 -19  -3 1329.81 660.398   5
  -8 -19   2 1946.65 600.327  25
   8 -19  -2 1764.66 922.810   5
   8  19  -2 1236.82 800.238   3
   8 -19  -1-46.8879 750.924   8
  -8 -19   1 169.622 319.456  25
   8 -19  -1 91.7704 543.997   5
   8  19  -1-35.3718 368.986   3
   8 -19   0 974.073 732.979   8
   8  19   0 230.071 408.968   3
   8 -19   0-178.181 428.448   5
   8 -19   1 1335.49 816.869   8
   8  19   1 1056.67 632.805   3
   8 -19   1 572.995 611.208   5
   8 -19   2 7343.74 1747.76   8
   8  19   2 9315.68 1687.51   3
   8 -19   2 9006.81 1744.44   5
   8 -19   3 15303.3 2456.95   8
   8  19   3 12958.9 1966.33   3
   8 -19   4 5007.48 1384.31   8
   8  19   4 3597.06 1031.66   3
   8 -19   5 4133.71 1244.03   9
   8 -19   5 3465.51 1207.77   8
   8  19   5 2935.40 951.147   3
   8 -19   6-183.370 440.436   8
   8 -19   7 990.918 660.272   8
   8  19   7 869.711 486.125   7
   8 -19   8 528.417 504.303   8
   8  19   8-281.395 445.478   7
   8  19   8 154.952 266.268  24
   8  19   9 483.483 365.161   7
   8  19   9-132.692 229.479  24
  -8 -20   8 613.072 503.226  11
  -8  20   8-337.931 367.723   2
  -8 -20   7 2812.63 931.435  11
   8 -20  -7 2768.20 808.825   5
  -8 -20   6 1402.95 667.111  11
   8 -20  -6 1249.51 595.028   5
   8 -20  -5 5359.09 1308.13   5
   8  20  -4-86.2008 328.775   3
   8 -20  -4 919.041 682.815   5
   8 -20  -3 1298.22 731.350   5
   8  20  -3-316.411 484.410   3
   8 -20  -2 2148.35 890.909   5
   8  20  -2 2225.99 845.994   3
   8 -20  -1 1400.22 775.112   8
   8  20  -1 937.461 656.971   3
   8 -20  -1 705.658 694.514   5
   8 -20   0 1744.73 857.278   8
   8  20   0 2533.41 955.799   3
   8 -20   0 2807.55 1031.81   5
   8 -20   1 425.477 641.205   8
   8  20   1 778.921 501.252   3
   8 -20   1 205.986 435.858   5
   8 -20   2 866.596 663.329   8
   8  20   2 1438.27 723.624   3
   8 -20   2 1205.22 663.839   5
   8 -20   3 117.795 427.743   8
   8  20   3 882.135 681.229   3
   8 -20   4 1307.81 823.553   8
   8  20   4 628.199 579.576   3
   8 -20   5-250.270 379.567   9
   8 -20   5 545.739 778.813   8
   8  20   5 1230.25 581.843   3
   8 -20   6 24.7014 527.425   8
   8 -20   7-1276.42 663.305   8
   8  20   8 76.4051 298.806   7
   8  20   8-21.3603 192.687  24
   8  20   9-654.664 248.204  24
   8  21  -8 467.046 369.840   3
   8  21  -7 38.8518 312.727   3
   8 -21  -7-1113.46 492.960   5
   8  21  -6-777.677 478.886   3
   8 -21  -6 115.259 319.559   5
   8 -21  -5 375.589 461.717   5
   8  21  -5-8.88089 391.859   3
   8 -21  -4 182.267 370.641   5
   8  21  -4 269.731 347.985   3
   8 -21  -3 100.292 420.367   5
   8  21  -3-1431.73 666.917   3
   8 -21  -2 1514.87 772.316   5
   8  21  -2 1055.71 593.316   3
   8 -21  -1 1288.59 690.627   8
   8  21  -1 36.4499 343.474   3
   8 -21  -1 252.070 525.024   5
   8 -21   0 7757.37 1612.79   8
   8  21   0 7083.42 1438.72   3
   8 -21   0 7378.41 1523.00   5
   8 -21   1 574.849 600.754   8
   8  21   1 1254.58 674.850   3
   8 -21   1 1168.81 643.283   5
   8 -21   2 14972.9 2232.63   8
   8  21   2 19789.3 2209.40   3
   8 -21   2 14997.2 1969.65   5
   8 -21   3 126.875 398.119   8
   8  21   3 404.852 401.224   3
   8 -21   4 670.360 561.023   9
   8 -21   4 1782.27 857.619   8
   8  21   4 2206.08 737.250   3
   8 -21   5-85.3258 438.478   8
   8  21   5 455.806 522.114   3
   8 -21   6-62.2222 368.487   8
  -8 -21  -6 136.776 195.970  21
   8 -21   7 228.526 454.685   8
   8  21   8 152.442 191.479  24
   8 -22  -6 578.183 386.317   5
   8  22  -6 828.315 439.558   3
   8 -22  -5 182.255 323.779   5
   8  22  -5 187.273 316.589   3
   8 -22  -4 1939.61 746.200   5
   8  22  -4-70.5455 307.117   3
   8 -22  -3 313.118 429.533   5
   8  22  -3 905.461 753.930   3
   8  22  -2 1564.70 663.634   3
   8 -22  -2 1911.39 818.433   5
   8  22  -1 701.312 556.534   3
   8 -22  -1 417.801 444.204   5
   8 -22   0 2253.43 844.155   8
   8  22   0 2463.78 809.619   3
   8 -22   0 1414.74 656.357   5
   8 -22   1 932.025 582.851   8
   8  22   1-391.714 399.693   3
   8 -22   1 503.364 459.784   5
   8 -22   2 8.27522 381.543   8
   8  22   2 123.827 309.687   3
   8 -22   2 336.105 401.909   5
   8 -22   3 891.065 557.033   8
   8  22   3-660.200 421.107   3
   8 -22   4 1208.05 496.985   9
   8  22   4 222.150 341.087   3
   8 -22   5 122.160 432.998   8
   8  22   5 293.996 313.739   3
   8 -22   6-1021.39 540.642   8
   8 -23  -5-97.9832 269.594   5
   8  23  -5 675.246 350.147   3
   8 -23  -4-35.8091 292.039   5
   8  23  -4 462.941 386.926   3
   8  23  -3-544.767 391.376   3
   8 -23  -3 110.849 317.392   5
   8  23  -2 1089.26 544.872   3
   8 -23  -2-16.1736 311.249   5
   8  23  -1-740.173 456.148   3
   8 -23  -1-69.9865 320.169   5
   8 -23   0 1236.80 604.511   8
   8  23   0 1951.41 715.279   3
   8 -23   0 1665.01 635.817   5
   8 -23   1-137.827 338.065   8
   8  23   1-157.382 475.277   3
   8 -23   1-66.1323 302.147   5
   8 -23   2 922.881 499.118   8
   8  23   2-56.7530 267.577   3
   8 -23   3 2337.14 774.287   9
   8 -23   3 3196.57 898.787   8
   8  23   3 2592.07 700.601   3
   8 -23   4 1080.93 542.196   8
   8 -23   5 1695.12 598.459   8
   8 -24  -3-85.0038 254.324   5
   8 -24  -2 230.272 361.195   5
   8  24  -1 755.543 366.235   3
   8 -24  -1 705.927 480.119   5
   8  24   0-422.680 336.645   3
   8 -24   0-25.0958 260.497   5
  -9   0  15-143.109 363.005  11
  -9   0  14 2879.90 902.604  11
  -9   0  13 193.930 478.906  11
  -9   0  12 4504.34 799.810  26
  -9   0  12 5201.43 1418.62  11
  -9   0  11-677.063 801.396  11
  -9   0  11-32.4440 367.033  26
  -9   0  10 1543.92 854.269  11
  -9   0   9 245.388 485.646  11
  -9   0   9-1208.29 680.883  16
  -9   0   8 1165.55 846.979  16
  -9   0   8 552.900 758.599  11
  -9   0   7 82.9617 410.631  16
  -9   0   6 496.378 478.629  16
  -9   0   5 434.067 449.926  16
  -9   0   4 232.008 389.626  16
  -9   0   3-99.9978 523.070  16
  -9   0   2 9553.02 1325.12  16
  -9   0   1-191.313 382.666  16
  -9   0   0 29385.7 2189.92  16
  -9   0  -1 292.962 388.408  16
  -9   0  -2 13964.4 1436.50  16
   9   0   3-148.436 232.541  20
   9   0   4 250549. 4645.20  20
   9   0   5-143.005 290.446  20
   9   0   6 29272.0 1729.90  20
   9   0   7-61.7939 255.131  20
   9   0   8 16556.8 2435.97   9
   9   0   9-131.283 464.862  24
   9   0   9-330.402 476.897   9
   9   0  10 1316.87 479.673  24
   9   0  10 1228.19 544.664   9
   9   0  11-1203.71 494.318  24
   9   0  11 72.1542 436.040   9
   9   0  12 32.5749 282.227  24
   9   0  13 86.8370 269.677  24
   9   0  13-147.353 315.999  22
   9   0  14-567.117 327.184  22
   9   0  15 117.291 224.990  22
  -9  -1  15-23.2407 299.394  11
  -9   1  15-8.44305 267.134  11
  -9  -1  14 508.238 522.700  11
  -9   1  14 139.486 349.324  11
  -9  -1  13 636.389 464.176  11
  -9   1  13 1238.33 743.976  11
  -9  -1  12 2220.66 950.820  11
  -9   1  12 3249.66 721.463  26
  -9  -1  12 3217.74 755.061  26
  -9   1  12 1932.53 880.163  11
  -9   1  11 2386.09 1000.32  11
  -9  -1  11 2076.12 598.592  26
  -9  -1  11 1036.90 632.736  11
  -9  -1  10 1492.30 723.249  11
  -9   1  10 2046.67 1032.91  11
  -9  -1  10 3110.95 770.060  26
  -9   1   9 375.257 644.168  16
  -9  -1   9 1120.69 657.509  11
  -9  -1   9 505.145 540.217  16
  -9   1   9 374.208 426.554  11
  -9   1   8 524.236 559.883  11
  -9  -1   8 177.605 540.843  16
  -9   1   8 706.548 662.017  16
  -9  -1   8 917.670 680.581  11
  -9  -1   7 705.606 419.524  16
  -9   1   7 999.237 602.082  16
  -9  -1   6 36790.7 3009.23  16
  -9   1   6 37550.0 2974.53  16
  -9  -1   5 922.621 604.627  16
  -9   1   5-59.9559 362.248  16
  -9  -1   4 8280.32 1351.97  16
  -9   1   4 8257.67 1317.80  16
  -9  -1   3 28591.5 2362.59  16
  -9   1   3 27789.3 2293.14  16
  -9  -1   2 39523.9 2666.72  16
  -9   1   2 37391.0 2572.29  16
  -9  -1   1 6259.23 1039.98  16
  -9   1   1 6528.66 1086.57  16
  -9  -1   0 3489.17 786.252  16
  -9   1   0 4397.79 874.751  16
  -9  -1  -1 13512.7 1499.90  16
  -9   1  -1 14554.1 1496.32  16
   9   1   2 245.595 232.891  20
  -9  -1  -2 690.608 371.116  16
   9   1   3 1749.64 407.085  20
   9  -1   3 2060.86 481.075  20
   9   1   4 1362.47 414.983  20
   9  -1   4 1087.74 419.274  20
   9   1   5 1538.15 416.643  20
   9  -1   5 499.141 326.042  20
   9   1   6 2962.36 596.139  20
   9  -1   6 3126.12 632.882  20
   9   1   7 2309.64 548.921  20
   9  -1   7 2878.07 608.679  20
   9   1   8 4746.66 1424.63   9
   9  -1   8 6368.67 1476.23   9
   9  -1   9 1175.11 506.320  24
   9   1   9 2761.72 711.608  24
   9  -1   9 1940.34 888.640   9
   9  -1  10 1975.61 585.742  24
   9   1  10 2985.86 733.873  24
   9   1  10 895.759 758.339   9
   9  -1  10 1363.31 816.236   9
   9  -1  11 2269.86 615.228  24
   9   1  11 2608.00 681.185  24
   9   1  11-114.686 454.023   9
   9  -1  11 1606.74 823.706   9
   9  -1  12 3172.65 722.544  24
   9   1  12 3872.21 789.591  24
   9   1  12 4392.35 1266.96   9
   9   1  13 119.858 285.148  24
   9  -1  13-279.060 422.591  22
   9  -1  14 1630.17 395.438  22
   9   1  14 1622.78 398.691  22
   9  -1  15 52.9702 269.139  22
   9   1  15-278.551 258.545  22
  -9  -2  15 1424.25 603.013  11
  -9   2  15 1506.09 614.807  11
  -9  -2  14 2.25094 368.312  11
  -9   2  14 761.409 581.761  11
  -9  -2  13-44.2672 448.876  11
  -9   2  13 79.5367 251.146  26
  -9   2  13 621.953 515.690  11
  -9  -2  12 7424.57 1664.66  11
  -9   2  12 8627.14 1110.42  26
  -9   2  12 7032.81 1586.26  11
  -9  -2  12 6660.89 967.934  26
  -9  -2  11 447.900 564.159  11
  -9  -2  11 481.120 366.990  26
  -9   2  11-143.062 448.578  11
  -9   2  10 687.183 428.871  11
  -9  -2  10-151.613 478.700  11
  -9  -2  10-229.561 368.421  26
  -9  -2   9 799.489 395.599  26
  -9  -2   9 476.054 437.787  11
  -9  -2   9 635.369 450.527  16
  -9   2   9 1450.23 699.710  16
  -9  -2   8-1.90780 320.339  26
  -9  -2   8 619.928 453.754  11
  -9  -2   8-276.031 434.070  16
  -9   2   8-413.968 473.016  16
  -9  -2   7 1209.51 637.429  16
  -9   2   7 907.940 626.108  16
  -9  -2   6-130.889 542.737  16
  -9   2   6 170.383 434.515  16
  -9  -2   5-43.6682 364.693  16
  -9   2   5 144.238 458.200  16
  -9  -2   4 2934.41 776.895  16
  -9   2   4 2936.57 865.196  16
  -9  -2   3 14069.1 1690.67  16
  -9   2   3 14733.3 1715.83  16
  -9  -2   2 3843.35 862.607  16
  -9   2   2 2873.24 705.478  16
  -9  -2   1 64437.8 3386.21  16
  -9   2   1 65598.0 3283.81  16
  -9  -2   0 226.741 375.915  16
  -9   2   0-761.718 411.681  16
  -9  -2  -1 44505.3 2704.43  16
  -9   2  -1 44301.4 2537.53  16
   9   2   2 1456.71 403.747  20
  -9  -2  -2 1326.82 480.907  16
   9   2   3 47394.6 1860.34  20
   9  -2   3 44324.2 1998.47  20
   9   2   4 27826.7 1500.23  20
   9  -2   4 29751.3 1710.17  20
   9   2   5 10082.3 948.979  20
   9  -2   5 10566.6 1056.72  20
   9  -2   6 5855.61 1510.40  12
   9   2   6 5601.32 738.061  20
   9  -2   6 5703.31 827.886  20
   9  -2   7 37132.8 2077.06  20
   9  -2   7 38739.1 3853.88  12
   9  -2   8-608.978 768.124  12
   9   2   8-419.075 535.270   9
   9  -2   8-165.132 396.618   9
   9   2   8-242.287 539.742  13
   9   2   9 5941.54 994.680  24
   9   2   9 4121.26 1325.91   9
   9  -2   9 6080.46 1514.49   9
   9  -2  10 99.2966 336.787  24
   9   2  10-82.2895 443.834  24
   9   2  10 376.666 459.859   9
   9  -2  10-676.895 638.882   9
   9  -2  11 2078.31 598.475  24
   9   2  11 1658.67 498.386  24
   9   2  11 1998.88 910.996   9
   9  -2  11 2861.33 1046.98   9
   9  -2  12 459.945 397.901  24
   9   2  12 770.669 441.281  24
   9  -2  12-86.2613 390.626  22
   9   2  12-126.606 492.780   9
   9   2  13-21.1026 360.219  24
   9  -2  13-5.35178 368.396  22
   9  -2  14 612.715 279.400  22
   9   2  14 348.338 264.036  22
   9  -2  15 626.774 300.510  22
   9   2  15 28.6057 237.606  22
  -9  -3  15 411.672 454.860  11
  -9   3  15 757.484 465.797  11
  -9  -3  14 17.8629 331.968  11
  -9   3  14 424.355 490.012  11
  -9  -3  13 151.251 498.406  11
  -9   3  13 1129.10 719.237  11
  -9   3  13 1122.04 450.446  26
  -9  -3  12 516.811 586.019  11
  -9   3  12 2054.70 997.432  11
  -9   3  11 225.420 465.591  11
  -9  -3  11 706.814 374.775  26
  -9  -3  10 2468.73 1121.77  11
  -9   3  10 207.949 468.762  11
  -9  -3  10 1338.95 562.990  26
  -9  -3   9 18162.8 2598.61  11
  -9   3   9 16400.2 2365.40  11
  -9  -3   9 16068.0 1661.22  26
  -9   3   9 20014.0 2403.02  16
  -9  -3   8 783.107 406.951  26
  -9  -3   8 1303.33 777.340  16
  -9   3   8 145.337 366.246  16
  -9   3   7 13925.0 1897.23  16
  -9  -3   7 11057.5 1700.59  16
  -9  -3   6 11730.4 1754.23  16
  -9   3   6 12194.7 1722.66  16
  -9  -3   5 1635.84 736.959  16
  -9   3   5 1315.37 616.331  16
  -9  -3   4-17.1821 375.023  16
  -9   3   4 265.925 438.498  16
  -9  -3   3 58974.2 3463.27  16
  -9   3   3 57831.2 3362.78  16
  -9  -3   2 2542.20 749.774  16
  -9   3   2 2632.50 739.707  16
  -9  -3   1 4827.05 965.486  16
  -9   3   1 5967.88 1038.57  16
  -9  -3   0 12488.5 1497.02  16
  -9   3   0 12241.7 1405.60  16
  -9  -3  -1 734.478 466.259  16
  -9   3  -1 611.933 272.330  16
  -9  -3  -2 352.283 419.096  16
   9   3   2 136.000 210.046  20
   9   3   3 4294.45 583.338  20
   9  -3   3 4082.50 669.075  20
   9   3   4 211.617 212.997  20
   9  -3   4-32.0937 290.259  20
   9  -3   5 975.009 344.004  20
   9   3   5 857.718 272.568  20
   9  -3   6 819.466 894.860  12
   9   3   6-127.623 231.202  20
   9  -3   6-379.570 425.662  20
   9  -3   7 6446.95 1738.59  12
   9  -3   7 4995.57 835.017  20
   9  -3   8 3666.74 1304.61  12
   9   3   8 4226.93 848.383  24
   9   3   8 2717.19 1071.73   9
   9  -3   8 2457.88 875.862   9
   9   3   8 3474.34 1092.46  13
   9  -3   9 17199.8 2789.51  12
   9   3   9 14284.9 1498.68  24
   9   3   9 14693.7 2388.96   9
   9  -3   9 15405.5 2374.42   9
   9   3   9 14851.0 2202.49  13
   9  -3  10 754.587 421.211  24
   9   3  10-195.382 376.333  24
   9   3  10-822.692 688.212   9
   9  -3  10 808.966 804.242   9
   9  -3  11 10823.1 1271.78  24
   9   3  11 9863.67 1257.44  24
   9   3  11 12462.1 2134.66   9
   9   3  12 177.771 281.599  24
   9  -3  12 183.687 381.302  22
   9   3  12 169.384 472.178   9
   9   3  13 648.657 371.205  24
   9  -3  13-64.2065 337.130  22
   9   3  14-84.6537 266.180  24
   9  -3  14-65.4345 298.048  22
   9   3  14-591.297 366.395  22
   9  -3  15 2553.30 471.587  22
   9   3  15 1495.19 316.613  22
  -9  -4  15-16.3651 284.503  11
  -9   4  15 446.155 388.453  11
  -9  -4  14 1488.57 651.676  11
  -9   4  14 1217.01 595.859  11
  -9  -4  13-656.471 572.796  11
  -9   4  13 657.598 581.413  11
  -9   4  13 107.128 274.900  26
  -9  -4  12 171.925 629.352  11
  -9   4  12-407.749 511.344  11
  -9  -4  11 1714.52 806.200  11
  -9  -4  11 3813.41 778.169  26
  -9   4  11 2436.21 958.288  11
  -9  -4  10 6352.04 1549.13  11
  -9  -4  10 8609.21 1207.14  26
  -9   4  10 7514.36 1728.96  11
  -9  -4   9 1768.82 885.407  11
  -9  -4   9 1187.98 523.639  26
  -9   4   9 2503.29 1006.86  11
  -9   4   9 2240.55 860.349  16
  -9  -4   8 1387.65 802.625  11
  -9  -4   8 550.938 481.950  26
  -9  -4   8 1734.75 858.749  16
  -9   4   8 1835.41 739.062  16
  -9  -4   7 407.113 369.800  16
  -9   4   7-47.1209 509.865  16
  -9  -4   6 237.915 427.883  16
  -9   4   6-250.731 413.449  16
  -9  -4   5 298.041 478.441  16
  -9   4   5-125.813 429.658  16
  -9  -4   4 610.036 513.626  16
  -9   4   4-198.772 439.562  16
  -9   4   3 8967.07 1379.95  16
  -9  -4   3 9490.73 1445.22  16
  -9  -4   2 6882.34 1217.13  16
  -9   4   2 7065.83 1160.10  16
  -9  -4   1 336.526 380.881  16
  -9   4   1 528.652 326.232  16
  -9  -4   0 734.134 463.725  16
  -9   4   0 228.656 266.957  16
  -9  -4  -1 19865.1 1926.01  16
  -9   4  -1 18967.0 1670.62  16
   9   4   2 13158.8 919.648  20
   9  -4   2 14291.1 1182.26  20
  -9  -4  -2 12350.6 1522.99  16
   9  -4   3 10119.6 999.186  20
  -9  -4  -3 9959.94 1343.51  16
   9  -4   4 74382.9 2726.23  20
   9  -4   5 408.712 380.089  20
   9  -4   6 5215.58 1587.89  12
   9  -4   6 3022.92 637.002  20
   9  -4   7 6385.62 1660.36  12
   9  -4   7 5277.43 886.749  20
   9  -4   8 4548.96 1368.72  12
   9   4   8 4138.79 834.559  24
   9   4   8 4177.29 1336.15   9
   9  -4   8 4331.58 1286.08   9
   9   4   8 2918.14 1037.77  13
   9  -4   9 6238.12 1743.46  12
   9   4   9 4106.11 868.588  24
   9   4   9 4044.15 1344.19   9
   9  -4   9 5127.63 1438.22   9
   9   4   9 2783.96 1052.19  13
   9  -4  10 1613.50 570.627  24
   9   4  10 651.045 439.122  24
   9   4  10 682.653 448.908   9
   9  -4  10 890.314 654.605   9
   9   4  11 459.047 300.284  24
   9  -4  11-57.0743 329.503  22
   9   4  11 23.1328 625.526   9
   9   4  12 106.362 283.646  24
   9  -4  12 3.68003 337.480  22
   9   4  13-129.140 244.900  24
   9  -4  13-514.483 403.004  22
   9   4  14-452.636 328.709  24
   9  -4  14 12.8359 278.404  22
   9   4  14-634.129 376.943  22
   9   4  15-232.830 263.354  22
  -9  -5  15 243.925 399.773  11
  -9  -5  14 139.529 360.995  11
  -9   5  14-897.381 440.448  11
  -9  -5  13-132.515 503.302  11
  -9   5  13 14.4192 404.928  11
  -9  -5  12 2939.87 1116.02  11
  -9   5  12 5373.59 1437.40  11
  -9  -5  11 66.9998 475.825  11
  -9   5  11 1391.81 856.019  11
  -9  -5  11 1357.73 500.394  26
  -9  -5  10 8966.31 1922.52  11
  -9   5  10 9648.89 1884.27  11
  -9  -5  10 9126.54 1235.23  26
  -9  -5   9-1099.23 766.142  11
  -9  -5   9 2263.22 659.142  26
  -9   5   9-92.6081 379.132  11
  -9   5   9 1562.28 742.741  16
  -9  -5   8 3725.19 1188.89  11
  -9  -5   8 4672.59 915.415  26
  -9  -5   8 5437.96 1284.54  16
  -9   5   8 5922.53 1303.65  16
  -9  -5   7 3320.14 806.198  26
  -9  -5   7 1401.28 676.983  16
  -9   5   7 4092.06 1127.68  16
  -9  -5   6 18752.2 2268.94  16
  -9   5   6 18452.9 2148.91  16
  -9  -5   5 62.9414 453.053  16
  -9   5   5 159.262 363.063  16
  -9  -5   4 40770.5 3106.52  16
  -9   5   4 42701.7 3040.44  16
  -9   5   3 10856.6 1507.69  16
  -9  -5   3 8239.29 1375.59  16
  -9  -5   2 1075.38 541.499  16
  -9   5   2 901.417 504.579  16
  -9  -5   1 1598.39 683.977  16
  -9   5   1 1411.19 564.148  16
  -9  -5   0 5170.75 1052.00  16
  -9   5   0 4882.94 926.969  16
  -9  -5  -1 102.921 377.984  16
   9  -5   2 7201.92 869.996  20
  -9  -5  -2 7426.37 1234.29  16
   9  -5   3 280.633 311.679  20
  -9  -5  -3 789.831 518.003  16
   9  -5   4-81.0375 288.543  20
   9  -5   5 613.246 400.088  20
   9  -5   6 4652.71 823.174  20
   9  -5   7 3149.93 1469.23  12
   9  -5   7 1780.82 554.077  20
   9   5   7 1814.72 766.806   9
   9  -5   7 32.3955 407.503   9
   9   5   7 1485.52 908.597  13
   9  -5   8 3435.69 1506.61  12
   9   5   8 3235.01 763.523  24
   9   5   8 3882.22 1252.86   9
   9  -5   8 4139.51 1199.59   9
   9   5   8 3892.82 1146.01  13
   9  -5   9 759.110 999.301  12
   9   5   9 355.552 584.467   9
   9   5   9 320.087 329.376  24
   9  -5   9 905.576 683.642   9
   9   5  10-212.248 352.023  24
   9  -5  10-819.394 533.979  22
   9   5  10 745.727 732.427   9
   9  -5  10 932.199 675.581   9
   9   5  11-12.4133 344.164  24
   9  -5  11-318.684 426.686  22
   9   5  11 102.722 454.563   9
   9   5  12 3161.31 717.687  24
   9  -5  12 2133.21 457.667  22
   9   5  12 3354.12 1166.44   9
   9   5  13 181.639 252.923  24
   9  -5  13 630.854 330.681  22
   9   5  13 18.2032 460.329   9
   9   5  14 5146.51 755.658  24
   9  -5  14 7034.37 726.468  22
   9   5  14 4829.24 590.152  22
   9   5  15 264.288 209.290  22
  -9  -6  14 6601.26 1301.75  11
  -9   6  14 5435.23 1117.17  11
  -9  -6  13 54.0134 386.686  11
  -9   6  13-1178.55 652.103  11
  -9  -6  12 12853.3 2175.86  11
  -9   6  12 12639.1 2006.90  11
  -9  -6  11 1303.57 813.070  11
  -9   6  11 1315.33 863.844  11
  -9  -6  10 3906.78 1360.69  11
  -9   6  10 4882.11 1394.37  11
  -9  -6  10 6255.29 989.567  26
  -9  -6   9 3506.91 1298.97  11
  -9   6   9 7777.19 1589.85  16
  -9  -6   9 6554.58 1066.72  26
  -9  -6   8 1216.61 812.486  11
  -9  -6   8 2366.02 887.336  16
  -9  -6   8 2912.42 696.936  26
  -9   6   8 4009.02 1032.24  16
  -9  -6   7-351.537 513.743  11
  -9  -6   7 41.2194 376.987  26
   9  -6  -7 1021.39 701.190   5
  -9  -6   7 749.466 607.125  16
  -9   6   7 422.225 456.773  16
  -9  -6   6 1384.87 726.572  16
  -9   6   6 1543.84 647.330  16
  -9  -6   5 1358.72 734.690  16
  -9   6   5 1843.20 735.939  16
  -9  -6   4 14565.6 1927.64  16
  -9   6   4 15695.6 1912.04  16
  -9  -6   3 214.383 345.214  16
  -9   6   3 14.2143 337.864  16
  -9  -6   2 4283.70 1022.00  16
  -9   6   2 5044.05 1006.09  16
  -9  -6   1 165.345 384.330  16
  -9   6   1-28.9285 435.100  16
  -9  -6   0 2331.59 779.126  16
  -9   6   0 1594.99 529.824  16
   9  -6   1 21595.8 1217.29  19
  -9  -6  -1 24894.3 2300.08  16
   9  -6   2 13402.6 1145.14  20
  -9  -6  -2 11678.5 1580.38  16
   9  -6   3-112.218 311.061  20
  -9  -6  -3 913.062 580.792  16
   9  -6   4 60729.9 2577.25  20
   9  -6   5 13420.3 1270.09  20
   9  -6   6 13620.0 1334.21  20
   9  -6   7 2852.91 682.114  20
   9   6   7 1707.76 860.276   9
   9   6   7 2825.16 885.971  13
   9  -6   7 1622.95 849.435   9
   9   6   8 4889.07 941.372  24
   9   6   8 4052.46 1298.79   9
   9  -6   8 7500.54 1740.95   9
   9   6   8 3492.55 1137.61  13
   9   6   9 10.2848 341.120  24
   9  -6   9-543.520 486.173  22
   9   6   9 62.1783 482.196   9
   9  -6   9-267.362 490.738   9
   9   6  10-78.4996 311.915  24
   9  -6  10-507.075 487.876  22
   9   6  10-14.9308 416.902   9
   9   6  11 427.119 391.187  24
   9  -6  11-263.121 348.094  22
   9   6  11 326.747 519.267   9
   9   6  12 379.458 354.884  24
   9  -6  12-109.139 366.093  22
   9   6  12 697.972 640.945   9
   9   6  13-619.171 391.275  24
   9   6  13-1314.03 681.063   9
   9   6  14 1029.74 383.221  24
  -9  -7  14 1140.35 581.135  11
  -9   7  14 85.8029 280.720  11
  -9  -7  13 566.198 573.310  11
  -9   7  13-280.940 398.056  11
  -9  -7  12 1166.25 770.289  11
  -9   7  12-293.693 490.350  11
  -9  -7  11 289.803 561.158  11
  -9   7  11-704.338 629.389  11
  -9  -7  10 4454.46 1421.57  11
  -9   7  10 3410.43 1101.75  11
  -9  -7  10 4924.06 903.317  26
  -9  -7   9 24580.7 3173.17  11
  -9  -7   9 24186.2 1983.22  26
  -9  -7   8 3012.07 1192.47  11
  -9  -7   8 3639.89 805.214  26
  -9   7   8 3244.03 975.825  16
  -9  -7   7 10060.2 2006.28  11
   9  -7  -7 11815.5 2045.73   5
  -9  -7   7 11143.2 1862.77  16
  -9   7   7 10129.6 1752.07  16
  -9  -7   7 10245.9 1279.85  26
  -9  -7   6 8821.36 1620.16  16
  -9   7   6 10289.3 1706.75  16
  -9  -7   5 1547.08 728.791  16
  -9   7   5 1565.01 797.144  16
   9   7  -4 18446.1 2148.97   1
  -9  -7   4 20317.2 2290.55  16
  -9   7   4 21791.3 2288.37  16
  -9   7   3 16430.9 1925.14  16
  -9  -7   3 14251.5 1914.90  16
  -9  -7   2 6783.98 1255.74  16
  -9   7   2 5641.17 1099.68  16
  -9  -7   1 10761.7 1597.12  16
  -9   7   1 9199.04 1335.15  16
  -9  -7   0 392.086 498.765  16
  -9   7   0 598.126 401.554  16
   9  -7   1 6747.56 736.630  19
  -9  -7  -1 7350.46 1321.38  16
   9  -7   2 310.991 342.412  20
  -9  -7  -2 620.049 533.766  16
   9  -7   3-574.112 338.854  20
   9  -7   4-81.4859 288.136  20
   9  -7   5 134.115 278.135  20
   9  -7   6 102.954 319.782  20
   9   7   6-564.774 639.764   9
   9   7   6 905.178 663.302  13
   9   7   7-1570.19 576.715  24
   9  -7   7 62.8687 315.751  20
   9   7   7-2147.49 1021.27   9
   9   7   7 754.576 564.139  13
   9  -7   7-876.255 667.323   9
   9   7   8 9389.19 1259.53  24
   9   7   8 9048.32 1929.23   9
   9   7   8 8496.41 1721.76  13
   9  -7   8 8186.21 1788.31   9
   9   7   9 20186.4 1865.34  24
   9  -7   9 20843.0 2798.44   9
   9   7   9 15527.0 2558.43   9
   9   7  10 3654.28 841.246  24
   9  -7  10 2737.19 569.797  22
   9   7  10 3430.92 1285.98   9
   9   7  11 7433.63 1136.97  24
   9  -7  11 8544.53 889.026  22
   9   7  11 11010.6 2080.96   9
   9   7  12 314.717 375.082  24
   9   7  12-445.058 475.438   7
   9  -7  12 809.814 334.953  22
   9   7  12 669.751 706.288   9
   9   7  13-342.581 367.133  24
   9   7  13 96.3430 426.680   9
   9   7  14 800.491 320.908  24
  -9  -8  14 860.269 530.261  11
  -9   8  14 1726.12 617.648  11
  -9  -8  13 513.343 549.751  11
  -9   8  13 567.682 558.152  11
  -9  -8  12 842.484 705.535  11
  -9   8  12 211.569 422.429  11
  -9  -8  11 3940.88 1219.26  11
  -9   8  11 2837.91 1040.54  11
  -9  -8  10 54.9515 551.663  11
  -9   8  10-1374.23 785.170  11
  -9  -8   9 5396.08 1598.49  11
  -9  -8   8 2036.42 1036.69  11
  -9  -8   8 1559.52 573.751  26
  -9   8   8 1270.07 660.506  16
  -9  -8   7-706.825 670.188  11
  -9  -8   7 155.706 298.055  26
   9  -8  -7-779.723 637.492   5
  -9  -8   7-316.185 475.011  16
  -9   8   7-172.818 512.785  16
  -9  -8   6 1983.74 886.432  11
  -9  -8   6 2358.69 718.616  26
   9  -8  -6 1304.60 664.738   5
  -9  -8   6 1972.62 817.152  16
  -9   8   6 2340.58 847.493  16
   9   8  -5 2333.47 906.416   1
  -9  -8   5 1584.69 619.736  16
  -9   8   5 2139.25 809.247  16
   9   8  -4 21.4226 515.349   1
  -9  -8   4-236.444 614.418  16
  -9   8   4-44.5669 399.529  16
   9   8  -3 2579.82 776.064   1
  -9  -8   3 4523.17 1140.59  16
  -9   8   3 4190.58 1104.21  16
  -9  -8   2 611.167 429.302  16
  -9   8   2 164.238 441.362  16
  -9  -8   1 56435.2 3714.47  16
  -9   8   1 57380.0 3422.64  16
   9  -8   0 633.552 295.936  19
  -9  -8   0 376.314 444.217  16
  -9   8   0 1144.05 553.240  16
   9  -8   1 45299.4 1963.67  19
  -9  -8  -1 46487.0 3338.23  16
   9  -8   2 2682.17 567.088  20
   9  -8   2 2285.90 484.783  19
  -9  -8  -2 2427.35 819.526  16
   9  -8   3 4921.16 757.357  20
   9  -8   4 621.933 381.754  20
   9  -8   5 6617.01 925.931  20
   9  -8   6 354.431 763.488   8
   9  -8   6 51.6235 331.076  20
   9   8   6 1119.06 834.554   9
   9   8   6-418.034 474.375  13
   9  -8   6 348.962 532.289   9
   9  -8   7 1002.86 412.665  20
   9  -8   7-25.6935 431.073   9
   9   8   8 231.231 326.473  24
   9   8   8 451.754 701.793   9
   9  -8   8-204.529 455.996   9
   9   8   9 7959.99 1221.93  24
   9   8   9 6988.70 1801.17   9
   9  -8   9 8341.49 1790.21   9
   9   8  10 904.811 524.022  24
   9   8  10 1336.03 793.990   9
   9   8  11 501.039 527.462  24
   9  -8  11 538.420 406.992  22
   9   8  11 1421.81 876.140   9
   9   8  12-684.341 405.684  24
   9   8  12-70.9230 373.800   7
   9  -8  12 726.636 500.104  22
   9   8  12 303.760 692.198   9
   9   8  13-170.027 301.591   7
   9   8  13-339.465 360.043  24
   9   8  13-41.6803 372.123   9
   9   8  14 10.2120 187.845  24
  -9  -9  14 84.3159 347.214  11
  -9  -9  13 802.585 583.335  11
  -9   9  13 283.252 371.102  11
  -9  -9  12-380.686 488.019  11
  -9   9  12-753.366 524.966  11
  -9  -9  11 2066.30 1010.44  11
  -9   9  11 1520.79 747.818  11
  -9  -9  10 210.650 512.059  11
  -9  -9   9 711.114 518.808  11
  -9  -9   8 9499.12 1999.73  11
   9  -9  -8 9286.99 1703.56   5
   9   9  -8 10803.4 2217.93   1
  -9  -9   7 9559.90 1998.35  11
   9   9  -7 11537.5 2177.14   1
   9  -9  -7 13231.4 2091.58   5
  -9  -9   7 11805.0 1888.51  16
  -9   9   7 12804.6 2015.59  16
  -9  -9   6 27569.8 3234.23  11
   9   9  -6 23029.1 2879.72   1
   9  -9  -6 25307.7 2941.36   5
  -9  -9   6 27652.0 2866.83  16
  -9   9   6 26700.7 2814.60  16
   9   9  -5 3336.66 1086.99   1
  -9  -9   5 4283.94 1254.32  16
   9  -9  -5 5983.81 1512.53   5
  -9   9   5 3898.80 1106.01  16
  -9  -9   4 525.732 567.577  16
  -9   9   4 1188.29 682.050  16
   9   9  -4 811.389 605.218   1
   9   9  -3 6105.50 1313.73   1
  -9  -9   3 6602.61 1403.54  16
  -9   9   3 5852.09 1235.70  16
  -9  -9   2 7366.33 1458.55  16
  -9   9   2 7553.57 1388.31  16
  -9  -9   1 42150.2 3346.49  16
  -9   9   1 43102.8 3025.28  16
   9  -9   0-26.3776 238.845  19
  -9  -9   0 187.796 419.389  16
   9  -9   1 13484.5 1170.20  20
   9  -9   1 13093.2 1142.13  19
  -9  -9  -1 11749.9 1808.02  16
   9  -9   2 309.424 289.165  20
   9  -9   2 516.606 345.445  19
   9  -9   3 3822.44 692.844  20
   9  -9   4-349.561 460.489  20
   9  -9   5 3948.15 1262.69   9
   9  -9   5 3615.28 1202.82   8
   9  -9   5 4386.98 772.935  20
   9   9   5 5684.78 1512.00   9
   9   9   5 4654.72 1259.12  13
   9  -9   6 4856.03 1471.78   8
   9  -9   6 1747.28 513.564  20
   9   9   6 2142.44 998.337   9
   9   9   6 2092.55 876.911  13
   9  -9   6 2308.18 1103.82   9
   9  -9   7 113.013 472.453   8
   9  -9   7 1557.85 523.029  20
   9   9   7 1719.35 839.754   9
   9   9   7 1686.04 853.532  13
   9  -9   7 2902.69 1118.85   9
   9   9   8 8072.41 1250.74  24
   9   9   8 7551.29 1868.06   9
   9  -9   8 7406.12 1760.00   9
   9   9   9 9977.37 1363.58  24
   9   9   9 7901.59 1904.04   9
   9  -9   9 8086.97 1740.57   9
   9   9  10 60.7412 304.514  24
   9   9  10 429.716 679.083   9
   9   9  11 3200.43 758.984  24
   9   9  11 2117.32 947.023   9
   9   9  12 1244.46 661.549   7
   9   9  12 143.328 334.790  24
   9   9  12 1128.01 640.561   9
   9   9  13 290.380 305.840  24
   9   9  13 895.821 540.502   9
   9   9  14 1565.83 395.835  24
  -9 -10  14 4117.07 902.962  11
  -9 -10  13-46.9695 354.190  11
  -9  10  13-336.585 361.067  11
  -9 -10  12 732.840 606.518  11
  -9  10  12 123.789 316.055  11
  -9 -10  11 1008.98 807.653  11
  -9  10  11 835.652 636.630  11
  -9 -10  10-1560.89 873.682  11
  -9 -10   9-1241.75 811.449  11
  -9 -10   8 280.985 536.332  11
   9 -10  -8 1583.39 963.454   5
  -9 -10   7 1263.16 820.477  11
  -9  10   7 37.5621 493.713  16
   9  10  -7 624.408 639.743   1
  -9 -10   6 1620.95 1130.32  11
   9  10  -6 813.554 750.448   1
  -9 -10   6 693.280 697.416  16
   9 -10  -6 69.1483 658.669   5
  -9  10   6 820.532 544.472  16
  -9 -10   5 1032.92 721.759  11
  -9 -10   5 1007.76 668.940  16
   9 -10  -5 1593.00 885.070   5
  -9  10   5 3.76374 444.995  16
   9  10  -4 146.146 577.143   1
  -9 -10   4 425.426 703.291  16
   9 -10  -4 811.245 698.268   5
  -9  10   4 655.860 642.673  16
  -9 -10   3 4753.81 1232.66  16
  -9  10   3 6397.40 1352.00  16
   9  10  -3 4762.78 1143.08   1
   9  10  -2 10759.4 1714.48   1
  -9 -10   2 15967.9 2109.92  16
  -9  10   2 14080.2 1872.93  16
  -9 -10   1 24208.7 2667.04  16
  -9  10   1 22877.3 2310.25  16
   9 -10   0 15217.1 1248.10  19
  -9 -10   0 13128.8 1947.25  16
   9 -10   1 655.272 321.053  20
   9 -10   1 489.902 360.431  19
   9 -10   2 34277.8 1895.06  20
   9 -10   2 32045.0 1918.67  19
   9 -10   3 146.352 273.259  20
   9 -10   4 18245.7 2698.32   8
   9 -10   4 17606.0 1443.50  20
   9 -10   5 3729.01 1233.14   9
   9 -10   5 3229.10 1310.82   8
   9 -10   5 3758.50 706.611  20
   9  10   5 3821.25 1275.74   9
   9  10   5 2987.50 1002.10  13
   9 -10   6 20851.6 2831.15   8
   9 -10   6 23909.8 1752.59  20
   9  10   6 23933.9 3126.29   9
   9 -10   6 26299.3 3225.09   9
   9  10   6 24490.0 2894.83  13
   9 -10   7 827.908 693.425   8
   9 -10   7 304.529 310.446  20
   9  10   7 1132.23 802.955   9
   9 -10   7 798.499 767.268   9
   9  10   8 13810.5 1661.18  24
   9  10   8 10863.7 2176.39   9
   9 -10   8 12047.1 2184.18   9
   9  10   9 2324.42 722.869  24
   9  10   9 2160.49 995.129   9
   9  10  10-825.486 476.019  24
   9  10  10 819.776 737.549   9
   9  10  11 857.604 449.390  24
   9  10  11 128.618 578.317   9
   9  10  12-109.350 346.510   7
   9  10  12-214.866 350.537  24
   9  10  12 585.307 622.188   9
   9  10  13 104.729 291.331   7
   9  10  13-99.5271 246.500  24
  -9 -11  13-541.507 460.149  11
  -9 -11  12-460.163 485.298  11
  -9 -11  11 621.845 532.417  11
  -9 -11  10 191.969 567.851  11
  -9 -11   9 64.3892 523.910  11
  -9 -11   8 2472.17 1170.90  11
   9 -11  -8 3068.80 1073.80   5
  -9 -11   7-29.4303 486.814  11
   9 -11  -7-828.775 674.011   5
  -9 -11   6 39655.3 4000.15  11
   9  11  -6 33509.1 3512.89   1
   9 -11  -6 39142.5 3764.09   5
  -9 -11   6 35461.8 3335.10  16
  -9  11   6 41978.7 3649.88  16
  -9 -11   5 6506.89 1571.39  11
   9  11  -5 6796.62 1517.68   1
  -9 -11   5 7529.11 1503.61  16
   9 -11  -5 6917.70 1684.96   5
  -9  11   5 8060.22 1578.69  16
   9  11  -4 3571.35 1109.69   1
  -9 -11   4 1913.70 935.544  11
  -9 -11   4 2301.76 859.084  16
  -9  11   4 4073.13 1158.33  16
   9 -11  -4 3200.62 1151.35   5
  -9 -11   3 3817.10 1251.28  11
   9  11  -3 5281.14 1271.27   1
  -9 -11   3 4629.28 1166.14  16
  -9  11   3 4229.22 1149.39  16
   9 -11  -3 4462.93 1277.35   5
   9  11  -2 28975.5 2791.04   1
  -9 -11   2 27725.4 2880.52  16
  -9  11   2 30525.7 2823.42  16
   9 -11  -1 292.322 360.952  19
  -9 -11   1 265.910 692.223  16
  -9  11   1 355.195 404.044  16
   9 -11   0 6013.33 819.802  20
   9 -11   0 6852.04 923.038  19
   9 -11   1 1609.87 438.899  20
   9 -11   1 1209.02 437.425  19
   9 -11   2 384.363 326.865  20
   9 -11   2 445.228 358.837  19
   9 -11   3 630.248 442.873  20
   9 -11   3 206.073 296.731  19
   9 -11   4 1421.75 850.414   8
   9 -11   4 717.791 389.330  20
   9  11   4 831.668 583.966   9
   9  11   4 474.972 498.579  13
   9 -11   5 202.215 475.968   9
   9 -11   5 490.043 358.097  20
   9  11   5-285.332 804.282   9
   9  11   5 44.5308 388.753  13
   9 -11   6 1860.23 936.572   8
   9 -11   6 2468.77 593.418  20
   9 -11   6 3659.93 1375.80   9
   9 -11   7 2528.63 1254.22   8
   9  11   7 1225.87 966.074   9
   9 -11   7 2325.87 1055.44   9
   9  11   8 13131.8 1624.23  24
   9  11   8 10490.1 2217.65   9
   9 -11   8 14096.2 2389.25   9
   9  11   9-427.666 406.413  24
   9  11   9-269.665 813.171   9
   9  11  10 2855.88 731.509  24
   9  11  10 2887.71 1141.13   9
   9  11  11 258.265 500.967   9
   9  11  11 677.788 385.864  24
   9  11  12 752.583 444.684   7
   9  11  12 1574.91 511.399  24
   9  11  12 1044.48 687.749   9
   9  11  13 865.556 509.932   7
   9  11  13 350.011 272.979  24
  -9 -12  13 127.775 288.324  11
  -9 -12  12 49.2420 343.458  11
  -9 -12  11 1117.01 731.288  11
  -9 -12  10 1392.75 810.079  11
  -9 -12   9 2153.11 948.351  11
  -9 -12   8-367.976 527.691  11
   9 -12  -8 1159.02 780.812   5
  -9 -12   7 353.179 611.200  11
   9 -12  -7 1893.63 920.613   5
  -9 -12   6 612.444 625.430  11
   9  12  -6 1167.92 1138.72   1
  -9 -12   6 558.504 508.185  16
   9 -12  -6 1038.28 763.984   5
  -9  12   6-217.244 455.769  16
   9  12  -5-95.7316 843.251   1
  -9 -12   5 2678.82 1149.67  11
  -9 -12   5 2168.04 949.794  16
   9 -12  -5 1986.10 960.569   5
  -9  12   5 2457.87 1004.16  16
  -9 -12   4 1295.54 698.509  11
  -9 -12   4 1939.34 847.605  16
   9  12  -4 1098.43 554.590   1
  -9  12   4 880.226 620.242  16
   9 -12  -4 1765.52 790.438   5
  -9 -12   3 1140.90 792.095  11
   9  12  -3 363.338 478.347   1
  -9 -12   3 300.654 652.371  16
  -9  12   3-1296.85 708.240  16
   9 -12  -3 859.991 748.962   5
  -9 -12   2 9413.82 1950.51  11
   9  12  -2 11508.0 1866.79   1
  -9 -12   2 8856.70 1681.66  16
  -9  12   2 13343.7 1927.12  16
   9 -12  -2 9875.34 1906.02   5
   9  12  -1 10465.2 1736.76   1
   9 -12  -1 12054.9 2183.88   8
  -9 -12   1 14658.6 2448.77  11
   9 -12  -1 10723.9 1164.15  19
   9 -12  -1 11883.3 2088.30   5
   9 -12   0 5677.58 1565.66   8
  -9 -12   0 3817.36 838.024  25
   9 -12   0 3311.73 600.838  20
   9 -12   0 4079.68 740.729  19
   9 -12   1 26138.4 3313.39   8
  -9 -12  -1 22685.4 2009.68  25
   9 -12   1 20241.5 1484.79  20
   9 -12   1 24006.3 1775.43  19
   9 -12   1 18141.0 2463.57   5
   9 -12   2 2210.69 1185.40   8
  -9 -12  -2 2661.12 635.709  25
   9 -12   2 2834.19 590.165  20
   9 -12   2 3135.02 713.619  19
   9 -12   3 23226.2 3109.42   8
   9 -12   3 20865.6 1555.63  20
   9 -12   3 20163.6 1704.85  19
   9  12   3 18654.9 2612.80   9
  -9 -12  -3 24664.2 2045.67  25
   9  12   3 22610.5 2643.62  13
   9 -12   4 7700.31 1810.70   8
   9 -12   4 9194.73 1062.15  20
   9  12   4 10011.2 2076.64   9
   9  12   4 9593.47 1779.09  13
   9 -12   5 12883.1 2372.56   9
   9 -12   5 8714.86 1966.69   8
   9 -12   5 8026.01 1057.14  20
   9  12   5 8499.94 1940.32   9
   9 -12   6 4849.18 1543.77   8
   9 -12   6 3730.92 733.799  20
   9  12   6 3281.97 1301.52   9
   9 -12   6 3831.15 1427.97   9
   9 -12   7 2252.60 1034.69   8
   9  12   7 1474.18 1569.20   9
   9 -12   7-1.77278 840.503   9
   9 -12   8-801.633 713.377   8
   9  12   8 2164.05 722.482  24
   9  12   8 982.177 717.332   9
   9 -12   8 1696.29 815.372   9
   9  12   9-645.437 544.868  24
   9  12   9 1277.97 947.661   9
   9  12  10 1100.19 499.921  24
   9  12  10 1008.17 982.108   9
   9  12  11 87.5808 268.191  24
   9  12  11 60.7426 358.040   7
   9  12  12-27.0195 297.210   7
   9  12  12-202.093 228.382  24
   9  12  13-103.982 286.316   7
   9  12  13-169.420 244.341  24
  -9 -13  12 1833.91 738.995  11
  -9 -13  11 1866.76 791.908  11
  -9 -13  10 186.045 624.454  11
  -9 -13   9 3888.15 1292.05  11
  -9 -13   8 3823.73 1385.38  11
   9 -13  -8 945.916 566.825   5
  -9 -13   7 1970.53 943.438  11
   9 -13  -7 2782.57 1035.26   5
  -9 -13   6 4558.74 1441.93  11
   9 -13  -6 4201.02 1267.81   5
  -9 -13   5 326.978 547.239  11
   9  13  -5-1224.14 781.360   1
   9 -13  -5 49.0685 510.288   5
  -9  13   5 309.361 502.599  16
  -9 -13   4 1216.18 707.633  11
   9  13  -4-258.862 657.089   1
  -9  13   4 156.063 590.983  16
   9 -13  -4 788.663 498.867   5
  -9 -13   3 975.486 834.612  11
   9  13  -3 2284.28 919.032   1
  -9  13   3 754.102 588.776  16
   9  13  -2 3282.49 1072.68   1
  -9 -13   2 4002.70 1260.02  11
  -9  13   2 2283.79 634.825  16
   9 -13  -2 1627.52 939.316   5
   9 -13  -1 13571.9 2290.36   8
  -9 -13   1 12021.6 2319.33  11
  -9 -13   1 11991.8 1497.70  25
   9 -13  -1 11687.9 1239.09  19
   9 -13  -1 8946.99 1879.50   5
   9  13  -1 11382.3 1844.81   1
   9 -13   0 4660.46 1485.64   8
  -9 -13   0 7259.27 1831.59  11
  -9 -13   0 4625.14 956.408  25
   9 -13   0 4936.86 889.805  19
   9 -13   0 4652.74 1306.52   5
   9 -13   1 2041.78 1032.42   8
  -9 -13  -1 1629.50 591.907  25
   9 -13   1 2118.19 654.339  19
   9 -13   1 199.165 480.429   5
   9 -13   2 98.7987 500.697   8
  -9 -13  -2 657.774 426.041  25
   9 -13   2 45.4329 323.124  19
   9 -13   3 298.911 523.792   8
  -9 -13  -3-57.4274 331.054  25
   9 -13   3-463.767 420.332  19
   9  13   3 477.243 702.618   9
   9  13   3-298.070 447.824  13
   9 -13   4 329.666 677.615   8
   9  13   4-1522.44 922.746   9
   9 -13   5 3320.82 1199.89   9
   9 -13   5 2339.91 1079.69   8
   9  13   5 1224.24 748.817   9
   9 -13   6 85.1216 484.428   8
   9  13   6-200.520 528.669   9
   9 -13   6 1000.53 659.665   9
   9 -13   7 138.015 889.551   8
   9  13   7 16.0090 547.307   9
   9 -13   7-112.710 482.841   9
   9  13   8-192.068 600.977   9
   9 -13   8 912.076 626.065   9
   9  13   9 871.186 445.040  24
   9  13   9 1656.20 963.109   9
   9  13  10-380.930 433.971  24
   9  13  10-755.458 561.211   7
   9  13  10-1822.30 873.667   9
   9  13  11 5456.14 1105.82   7
   9  13  11 6418.75 943.846  24
   9  13  12-3.56815 289.033   7
   9  13  12 399.111 262.833  24
  -9 -14  12 815.581 495.190  11
  -9 -14  11 1601.49 745.764  11
  -9 -14  10-316.922 475.541  11
  -9 -14   9 4563.21 1347.35  11
  -9 -14   8 223.634 536.236  11
  -9 -14   8 479.991 314.775  25
   9 -14  -8 346.580 521.191   5
  -9 -14   7 197.380 565.219  11
   9 -14  -7 878.156 580.196   5
  -9 -14   6-443.064 523.948  11
   9 -14  -6 323.499 547.804   5
  -9 -14   5-96.6026 482.091  11
   9 -14  -5-143.658 657.123   5
  -9 -14   4-609.691 690.958  11
   9  14  -4 1533.73 818.867   1
   9 -14  -4 646.253 520.635   5
  -9 -14   3 716.677 788.437  11
   9  14  -3 159.860 407.164   1
  -9 -14   3 1081.06 564.016  25
  -9  14   3 123.795 459.034  16
   9 -14  -3 756.850 691.951   5
   9  14  -2-80.1063 563.178   1
  -9 -14   2 963.665 816.107  11
  -9 -14   2 1363.13 658.204  25
   9 -14  -2 739.830 467.366  19
   9 -14  -2 65.4506 785.899   5
   9 -14  -1 271.679 711.111   8
  -9 -14   1 3100.86 1161.65  11
  -9 -14   1 1871.61 650.290  25
   9 -14  -1 1552.58 593.620  19
   9  14  -1 2384.36 1089.82   1
   9 -14  -1 2681.12 1144.10   5
   9 -14   0-390.838 730.236   8
  -9 -14   0 114.306 644.793  11
  -9 -14   0-379.081 409.401  25
   9 -14   0-129.075 310.075  19
   9 -14   0-1270.17 801.479   5
   9 -14   1 11267.3 2303.96   8
  -9 -14  -1 12667.6 1572.95  25
   9 -14   1 14858.5 1530.84  19
   9 -14   1 12668.1 2185.11   5
   9 -14   2 57.6019 496.612   8
  -9 -14  -2-198.794 387.368  25
   9 -14   2 225.760 307.699  19
   9 -14   3 2505.75 1076.44   8
  -9 -14  -3 3177.35 811.766  25
   9 -14   3 3240.57 731.480  19
   9  14   3 1516.21 860.766   9
   9 -14   4 6553.49 1748.59   8
  -9 -14  -4 5115.97 1218.36   4
   9  14   4 3362.87 1124.59   9
   9 -14   5 2619.80 1113.97   9
   9 -14   5 1928.24 997.279   8
   9  14   5 1763.15 989.198   9
   9 -14   6 1352.41 738.224   8
   9  14   6 380.047 645.031   9
   9 -14   6 2015.35 1022.41   9
   9 -14   7 323.956 512.927   8
   9  14   7 565.212 676.628   9
   9 -14   7 933.881 797.281   9
   9 -14   8-164.146 777.873   8
   9  14   8-82.4224 629.950   9
   9  14   9 4112.08 845.719  24
   9  14   9 3854.03 1292.92   9
   9  14  10 666.526 492.103   7
   9  14  10 1510.12 488.347  24
   9  14  11-146.749 316.963   7
   9  14  11-197.462 279.328  24
   9  14  12 340.260 361.487   7
   9  14  12-8.82294 194.241  24
  -9 -15  12-103.764 293.121  11
  -9 -15  11-700.212 499.558  11
  -9 -15  10 619.437 539.090  11
  -9 -15   9 3288.35 1171.36  11
  -9 -15   8 714.093 524.350  11
  -9 -15   8 1442.23 534.681  25
   9 -15  -8-381.846 483.809   5
  -9 -15   7-443.023 610.335  11
  -9 -15   7 2.86445 332.243  25
   9 -15  -7-214.345 469.674   5
  -9 -15   6 10401.4 2113.32  11
  -9 -15   6 8643.34 1283.39  25
   9 -15  -6 8257.25 1759.39   5
  -9 -15   5 633.264 629.397  11
  -9 -15   5 280.535 362.790  25
   9 -15  -5-949.699 726.395   5
  -9 -15   4 4846.42 1511.29  11
  -9 -15   4 6757.28 1167.53  25
   9 -15  -4 4652.06 1351.08   5
  -9 -15   3 1946.77 1051.91  11
  -9 -15   3 2518.21 730.927  25
   9 -15  -3 2524.25 1132.20   5
  -9 -15   2 1387.35 769.598  11
  -9 -15   2 1028.00 552.525  25
   9 -15  -2-55.7145 586.528   5
   9  15  -2 1489.93 763.412   1
   9 -15  -1 1353.51 772.618   8
  -9 -15   1 957.861 774.237  11
  -9 -15   1 1777.83 640.689  25
   9 -15  -1 1649.88 578.576  19
   9  15  -1 2527.20 973.347   1
   9 -15  -1 1607.95 885.047   5
   9 -15   0 603.056 694.130   8
  -9 -15   0 604.195 468.399  25
   9 -15   0 828.003 389.142  19
   9 -15   0 894.148 702.143   5
   9 -15   1 1189.27 865.493   8
  -9 -15  -1 1314.28 586.699  25
   9 -15   1 897.280 453.799  19
   9 -15   1 588.409 737.812   5
   9 -15   2 1658.60 959.483   8
  -9 -15  -2 2414.03 733.372  25
   9 -15   3 247.002 659.634   8
  -9 -15  -3 124.820 374.010  25
   9 -15   4-1390.85 893.893   8
   9  15   4-55.3089 703.931   9
   9 -15   5-821.858 728.114   9
   9 -15   5-699.300 1041.25   8
   9  15   5 53.4925 685.378   9
   9 -15   6 1709.18 1048.17   8
   9  15   6 670.210 692.014   9
   9 -15   7 1845.41 1011.83   8
   9  15   7 1885.50 1059.81   9
   9 -15   7 2702.51 1087.18   9
   9 -15   8 1052.02 894.640   8
   9  15   8-686.163 684.687   9
   9  15   9 5631.99 1246.72   7
   9  15   9 6166.15 945.105  24
   9  15  10 457.437 450.453   7
   9  15  10 144.937 238.370  24
   9  15  11 5.05819 311.192   7
   9  15  11 263.781 219.685  24
  -9 -16  11 603.344 415.335  11
  -9 -16  10-139.678 321.387  11
  -9 -16   9 232.615 477.397  11
  -9 -16   8 853.190 612.282  11
  -9 -16   8 1415.75 490.805  25
   9 -16  -8 1670.73 732.686   5
  -9 -16   7-718.278 410.765  25
   9 -16  -7-136.060 417.502   5
  -9 -16   6 351.868 467.356  11
  -9 -16   6-155.371 333.435  25
   9 -16  -6-337.989 729.794   5
  -9 -16   5-93.6001 430.918  11
  -9 -16   5 276.345 389.398  25
   9 -16  -5-267.203 408.613   5
  -9 -16   4 2056.81 998.685  11
  -9 -16   4 3124.67 817.787  25
   9 -16  -4 2353.09 1157.90   5
  -9 -16   3 1220.13 851.161  11
  -9 -16   3 1009.73 521.794  25
   9 -16  -3 527.361 707.746   5
  -9 -16   2 6.94232 604.779  11
  -9 -16   2 337.185 302.215  25
   9 -16  -2 196.702 440.721   5
   9  16  -1 2623.92 915.890   3
   9 -16  -1 1569.19 902.720   8
  -9 -16   1 452.768 600.045  11
   9 -16  -1 2390.20 1071.84   5
  -9 -16   1 1143.44 590.996  25
   9 -16   0 369.545 598.905   8
  -9 -16   0 52.6470 360.611  25
   9 -16   0-353.801 544.795   5
   9 -16   1 290.413 673.845   8
  -9 -16  -1 372.671 439.680  25
   9 -16   2 5446.30 1578.83   8
  -9 -16  -2 7255.01 1190.68  25
   9 -16   2 4405.75 1306.10   5
   9 -16   3 4856.93 1578.30   8
   9 -16   4 7034.08 1758.02   8
   9 -16   5-516.356 638.546   9
   9 -16   5 105.009 531.535   8
   9 -16   6 7236.60 1769.14   8
   9 -16   6 8309.94 1877.99   9
   9 -16   7 45.1695 762.223   8
   9 -16   7 687.539 564.883   9
   9 -16   8 164.926 510.061   8
   9  16   8 309.911 458.080   7
   9  16   8 409.831 345.402  24
   9  16   9 5174.86 1085.46   7
   9  16   9 4144.88 749.366  24
   9  16  10 544.687 449.560   7
   9  16  10 609.434 328.106  24
   9  16  11 629.637 438.902   7
   9  16  11 149.357 199.314  24
  -9 -17  10 746.563 507.925  11
  -9 -17   9 363.769 400.528  11
  -9 -17   8 515.235 606.573  11
   9 -17  -8 1339.89 637.486   5
  -9 -17   7 4252.73 1198.61  11
  -9 -17   7 3517.92 742.170  25
   9 -17  -7 3886.27 1075.74   5
  -9 -17   6 163.323 595.715  11
  -9 -17   6 1519.29 576.465  25
   9 -17  -6 1327.73 779.192   5
  -9 -17   5 1648.50 837.189  11
  -9 -17   5 1385.12 571.893  25
   9 -17  -5 975.411 728.750   5
  -9 -17   4 13456.0 2318.29  11
  -9 -17   4 13004.0 1524.91  25
   9 -17  -4 15131.1 2436.33   5
  -9 -17   3 909.916 718.425  11
  -9 -17   3 1622.77 595.071  25
   9 -17  -3 297.108 605.707   5
   9  17  -2 944.090 678.138   3
  -9 -17   2-1050.26 765.415  11
  -9 -17   2-355.455 363.398  25
   9 -17  -2-1133.54 772.716   5
   9 -17  -1-1352.58 848.705   8
  -9 -17   1-561.997 430.335  25
   9 -17  -1-1618.84 864.226   5
   9  17  -1 465.137 409.586   3
   9 -17   0-299.337 549.419   8
  -9 -17   0 150.565 281.503  25
   9 -17   0-553.700 657.309   5
   9 -17   1-1177.31 838.162   8
  -9 -17  -1-313.843 345.241  25
   9 -17   1-1691.18 837.509   5
   9 -17   2-1511.86 903.966   8
   9 -17   2 139.501 437.745   5
   9 -17   3 439.481 871.788   8
   9 -17   4 176.274 738.118   8
   9 -17   5-816.594 703.946   9
   9 -17   5-635.871 638.697   8
   9 -17   6-446.487 594.842   8
   9  17   6-195.355 492.696   7
   9 -17   6-388.405 553.148   9
   9 -17   7 12.0237 504.984   8
   9  17   7-37.6224 362.215   7
   9  17   8 1451.19 614.899   7
   9  17   8 2077.50 535.756  24
   9  17   9-143.962 279.287   7
   9  17   9 67.4749 214.525  24
   9  17  10 7.26172 222.307   7
   9  17  10 415.297 234.002  24
  -9 -18  10 209.455 283.925  11
  -9 -18   9 338.688 488.930  11
  -9 -18   8 164.785 395.502  11
   9 -18  -8 129.350 333.165   5
  -9 -18   7 24.9679 432.425  11
  -9 -18   7 186.407 278.318  25
   9 -18  -7-192.527 357.752   5
  -9 -18   6 487.581 575.081  11
  -9 -18   6 35.7899 249.790  25
   9 -18  -6 82.1051 483.435   5
  -9 -18   5 1997.62 979.814  11
  -9 -18   5 1417.14 500.548  25
   9 -18  -5-413.904 478.234   5
  -9 -18   4-148.448 456.499  11
  -9 -18   4-121.688 277.513  25
   9 -18  -4 580.149 559.050   5
   9  18  -3 585.570 541.292   3
  -9 -18   3 24.2638 394.547  11
  -9 -18   3-69.7173 325.021  25
   9 -18  -3 846.774 765.983   5
  -9 -18   2 292.439 266.867  25
   9 -18  -2 262.337 454.528   5
   9  18  -2-325.244 454.816   3
  -9 -18   1 1724.59 584.082  25
   9 -18  -1 450.612 502.477   5
   9  18  -1 1762.52 754.600   3
   9 -18   0 836.002 673.214   8
  -9 -18   0-610.912 424.093  25
   9  18   0-598.456 537.559   3
   9 -18   0-312.507 534.418   5
   9 -18   1 4752.57 1437.49   8
   9  18   1 3624.43 963.610   3
   9 -18   1 4226.33 1253.40   5
   9 -18   2 1930.39 936.691   8
   9 -18   2 2565.40 1015.46   5
   9 -18   3 8164.06 1854.70   8
   9 -18   4 75.5724 524.207   8
   9 -18   5 1845.23 991.844   9
   9 -18   5 2797.32 1152.87   8
   9 -18   6 2401.68 1043.62   8
   9  18   6 1459.16 676.361   7
   9 -18   6 1240.13 714.208   9
   9 -18   7 165.812 412.372   8
   9  18   7-520.002 429.522   7
   9  18   8-330.549 291.349   7
   9  18   8 55.2935 208.074  24
   9  18   9 831.132 474.720   7
   9  18   9 296.008 274.788  24
  -9 -19   9 2725.30 767.261  11
  -9 -19   8-118.960 294.159  11
   9 -19  -8 1142.35 405.335   5
  -9 -19   7 2254.70 827.401  11
  -9 -19   7 1265.90 413.544  25
   9 -19  -7 1572.98 658.733   5
  -9 -19   6 95.9424 373.879  11
  -9 -19   6 573.222 317.538  25
   9 -19  -6 769.208 562.277   5
  -9 -19   5-168.325 487.330  11
  -9 -19   5 413.931 320.982  25
   9 -19  -5 365.648 470.165   5
   9  19  -4 898.259 619.168   3
  -9 -19   4 188.600 241.418  25
   9 -19  -4 37.9695 396.866   5
  -9 -19   3 3128.10 737.581  25
   9 -19  -3 3308.55 1128.70   5
   9  19  -3 3007.54 944.476   3
  -9 -19   2-261.188 400.873  25
   9 -19  -2-205.708 505.067   5
   9  19  -2-575.682 483.961   3
   9 -19  -1 13598.3 2194.54   8
  -9 -19   1 10946.4 1370.40  25
   9 -19  -1 11049.9 1938.61   5
   9  19  -1 10954.2 1746.06   3
   9 -19   0-359.397 636.406   8
   9  19   0 591.937 477.512   3
   9 -19   0 552.853 573.872   5
   9 -19   1 364.847 517.421   8
   9  19   1 1336.48 652.286   3
   9 -19   2 1353.09 765.392   8
   9 -19   2 1282.76 670.263   5
   9 -19   3 559.522 683.496   8
   9 -19   4-462.755 528.072   9
   9 -19   4-1789.15 874.730   8
   9 -19   5-539.075 630.287   8
   9 -19   5 1112.60 659.731   9
   9 -19   6 837.823 666.009   8
   9 -19   6 1678.29 721.357   9
   9 -19   7 1686.35 794.577   8
   9  19   7 858.315 494.411   7
   9  19   8 145.129 388.627   7
   9  19   8 124.040 192.556  24
   9  19   9 729.958 280.225  24
   9  20  -8-774.917 401.864   3
   9  20  -7 37.8122 291.858   3
   9 -20  -7 768.538 387.471   5
   9  20  -6-13.3753 368.885   3
   9 -20  -6-128.035 340.288   5
   9 -20  -5-327.854 536.011   5
   9  20  -5 527.330 437.262   3
   9 -20  -4-171.963 436.794   5
   9  20  -4-601.281 467.118   3
   9 -20  -3 536.577 494.911   5
   9  20  -3 954.939 627.466   3
   9 -20  -2 1246.23 783.072   5
   9  20  -2-1031.14 585.939   3
   9 -20  -1 9070.21 1732.50   8
   9  20  -1 7493.54 1413.39   3
   9 -20  -1 10202.3 1779.63   5
   9 -20   0 818.968 673.031   8
   9  20   0 921.772 549.964   3
   9 -20   0 3.60249 372.096   5
   9 -20   1 290.941 582.533   8
   9  20   1 675.295 446.966   3
   9 -20   1 905.526 534.380   5
   9 -20   2 4985.70 1334.79   8
   9  20   2 6436.80 1304.19   3
   9 -20   3 6270.88 1447.57   8
   9 -20   4 3184.30 1066.88   9
   9 -20   4 1845.49 847.430   8
   9 -20   5 8.76088 521.892   8
   9 -20   5 743.006 553.065   9
   9 -20   6 2190.36 819.850   8
   9  20   7 312.973 238.778  24
   9  20   8 57.1309 156.761  24
   9 -21  -6 3437.55 846.772   5
   9  21  -6 4124.45 877.145   3
   9 -21  -5 341.580 358.138   5
   9  21  -5 858.905 483.780   3
   9 -21  -4 2776.45 908.286   5
   9  21  -4 3239.54 800.646   3
   9 -21  -3 221.711 405.092   5
   9  21  -3-745.541 475.813   3
   9  21  -2-55.9320 397.251   3
   9 -21  -2 5.55602 413.779   5
   9 -21  -1-653.394 519.043   8
   9  21  -1-810.752 498.216   3
   9 -21  -1-89.9490 463.364   5
   9 -21   0 474.328 563.635   8
   9  21   0-343.580 373.526   3
   9 -21   0-67.6218 446.130   5
   9 -21   1 229.721 411.649   8
   9  21   1-613.466 444.189   3
   9 -21   1-245.670 348.818   5
   9 -21   2 1623.59 761.946   8
   9  21   2 2099.49 700.740   3
   9 -21   3 1109.94 703.326   8
   9 -21   4 187.933 587.505   9
   9 -21   4-291.425 394.779   8
   9 -21   5-205.547 370.342   8
   9 -21   5-0.87066 383.333   9
   9 -22  -5 767.677 413.667   5
   9  22  -5 784.761 404.795   3
   9 -22  -4 449.454 357.611   5
   9  22  -4 682.929 459.451   3
   9  22  -3 735.790 463.766   3
   9 -22  -3 558.957 496.448   5
   9  22  -2 1238.75 497.315   3
   9 -22  -2 527.807 527.175   5
   9  22  -1 371.434 481.824   3
   9 -22  -1 683.601 554.459   5
   9 -22   0-965.453 548.386   8
   9  22   0-537.800 412.022   3
   9 -22   0 495.019 420.387   5
   9 -22   1 2891.34 891.377   8
   9  22   1 2415.59 645.464   3
   9 -22   1 1377.61 606.449   5
   9 -22   2 221.944 376.501   8
   9  22   2 748.426 436.060   3
   9 -22   3-339.235 370.335   9
   9 -22   3 262.949 411.435   8
   9 -22   4 2458.56 829.950   8
   9 -22   4 1734.32 653.526   9
   9 -23  -3 1403.08 579.142   5
   9  23  -2 155.667 264.128   3
   9 -23  -2 107.948 411.077   5
   9  23  -1 741.700 397.579   3
   9 -23  -1 1160.18 508.452   5
   9 -23   0-140.800 283.593   5
   9  23   0 358.489 293.504   3
   9 -23   2 1447.58 611.148   9
 -10   0  14 385.975 399.328  11
 -10   0  13-1071.04 642.719  11
 -10   0  13-58.5311 341.474  26
 -10   0  12 485.916 646.480  11
 -10   0  12 218.580 264.318  26
 -10   0  11-1797.19 868.557  11
 -10   0  11-29.6620 334.718  26
 -10   0  10 2472.83 676.405  26
 -10   0  10 1088.61 681.785  11
 -10   0   9-744.432 578.412  16
 -10   0   9 223.434 443.057  11
 -10   0   8 15659.4 2160.33  16
  10   0  -7-924.417 713.731   5
 -10   0   7 378.099 445.209  16
 -10   0   6 9812.21 1632.90  16
 -10   0   5-501.009 500.535  16
 -10   0   4 1754.92 701.774  16
 -10   0   3-17.3568 430.665  16
 -10   0   2 7619.91 1292.06  16
 -10   0   1-418.605 380.607  16
 -10   0   0 1393.27 568.808  16
 -10   0  -1 328.333 385.498  16
  10   0   2-306.455 323.368  20
  10   0   3-194.885 242.761  20
  10   0   4 794.468 399.156  20
  10   0   5 69.7473 296.294  20
  10   0   6 502.742 281.301  20
  10   0   7 297.110 331.674  20
  10   0   7-1124.58 734.670   9
  10   0   8 26933.1 3227.11   9
  10   0   9-883.077 686.968   9
  10   0  10 7653.42 1049.90  24
  10   0  10 7086.62 1622.25   9
  10   0  11-251.023 330.066  24
  10   0  11 620.797 705.650   9
  10   0  12 7811.42 1003.64  24
  10   0  12 8699.68 1717.95   9
  10   0  13-417.791 393.454  22
  10   0  14 707.301 273.718  22
 -10  -1  14 472.496 442.585  11
 -10   1  14 612.653 501.344  11
 -10  -1  13 610.537 558.995  11
 -10   1  13 1016.10 643.183  11
 -10   1  13 1014.03 382.858  26
 -10  -1  12 660.187 509.230  11
 -10   1  12 564.901 550.317  11
 -10  -1  12 636.407 365.838  26
 -10   1  12 353.764 295.640  26
 -10  -1  11 2226.34 967.969  11
 -10  -1  11 2845.83 674.828  26
 -10   1  11 2269.16 647.630  26
 -10   1  11 2586.34 1096.96  11
 -10  -1  10 222.782 511.722  11
 -10  -1  10-242.872 359.409  26
 -10   1  10-696.513 625.475  11
 -10  -1   9-118.245 347.346  26
 -10  -1   9 123.496 535.591  11
 -10  -1   9 399.258 494.364  16
 -10   1   9-419.672 489.901  16
 -10   1   9-282.397 507.210  11
 -10   1   8 649.130 599.702  16
 -10  -1   8 957.355 487.550  11
  10   1  -7 2560.79 1040.98   5
  10  -1  -7 583.592 471.543   5
 -10  -1   7 1592.02 725.321  16
 -10   1   7 1643.22 838.323  16
 -10  -1   6 553.597 406.666  16
 -10   1   6-185.465 382.555  16
 -10  -1   5 535.873 383.995  16
 -10   1   5 1768.96 726.445  16
 -10  -1   4-304.688 475.731  16
 -10   1   4 806.462 548.154  16
 -10  -1   3 1414.42 576.712  16
 -10   1   3 2139.43 758.636  16
 -10  -1   2 5671.41 1127.46  16
 -10   1   2 6657.08 1186.79  16
 -10  -1   1 4989.20 1020.02  16
 -10   1   1 5527.96 1090.01  16
 -10  -1   0 8982.17 1311.61  16
 -10   1   0 7645.60 1201.15  16
 -10  -1  -1 3449.14 819.027  16
 -10   1  -1 4497.08 896.266  16
  10   1   2 21214.5 1407.91  20
  10  -1   2 19513.9 1406.92  20
  10   1   3 6911.22 793.503  20
  10  -1   3 6289.50 845.753  20
  10   1   4 19639.3 1373.21  20
  10  -1   4 19853.2 1452.92  20
  10   1   5 27889.4 1668.15  20
  10  -1   5 28541.1 1779.83  20
  10   1   6 2293.82 541.148  20
  10  -1   6 2589.00 570.527  20
  10   1   7 1742.07 506.361  20
  10  -1   7 2019.42 578.457  20
  10   1   7 2831.53 1101.57   9
  10  -1   7 1510.62 810.859   9
  10   1   7 2019.59 839.578  13
  10   1   8 36687.7 3738.34   9
  10  -1   8 39784.7 3840.81   9
  10   1   8 39279.1 3551.17  13
  10   1   9 4277.42 1304.23   9
  10  -1   9 5237.75 1389.77   9
  10   1  10 1306.47 489.705  24
  10   1  10 2886.23 1099.53   9
  10  -1  10 2821.74 1170.63   9
  10  -1  11 298.675 365.633  24
  10   1  11-315.051 404.391  24
  10   1  11-36.7252 496.938   9
  10  -1  11-397.398 585.809   9
  10  -1  12 537.214 473.239  24
  10   1  12-394.503 298.916  24
  10   1  12 1044.78 679.783   9
  10  -1  12-491.082 523.175   9
  10   1  13-201.343 271.737  24
  10  -1  13-605.320 344.476  22
  10   1  13-866.682 401.894  22
  10  -1  14-221.716 289.377  22
  10   1  14-307.604 318.427  22
 -10  -2  14 73.4930 357.488  11
 -10   2  14-379.408 368.196  11
 -10  -2  13 649.991 560.255  11
 -10   2  13 1555.15 771.679  11
 -10   2  13 1117.28 435.784  26
 -10  -2  12 973.038 748.208  11
 -10   2  12-250.978 433.181  11
 -10  -2  12 383.689 359.836  26
 -10   2  12 613.160 397.696  26
 -10  -2  11 6672.31 1491.74  11
 -10  -2  11 7163.10 1051.36  26
 -10   2  11 7056.03 1556.70  11
 -10  -2  10 661.721 574.990  11
 -10   2  10 308.631 524.837  11
 -10  -2  10-194.623 337.880  26
 -10  -2   9 7965.69 1715.92  11
 -10  -2   9 6754.62 1063.19  26
 -10   2   9 7117.82 1652.37  11
 -10  -2   9 6475.68 1442.97  16
 -10   2   9 7737.80 1585.71  16
 -10  -2   8 3409.53 1130.79  11
 -10  -2   8 3312.47 759.964  26
 -10  -2   8 2985.44 1036.21  16
 -10   2   8 4022.69 1114.14  16
 -10  -2   7-316.286 451.887  26
  10   2  -7-1146.08 734.174   5
  10  -2  -7 665.053 781.006   5
 -10  -2   7 364.449 503.512  16
 -10   2   7 147.674 433.612  16
 -10  -2   6 4435.23 1137.18  16
 -10   2   6 4419.57 1076.29  16
 -10  -2   5 31207.6 2817.27  16
 -10   2   5 31997.5 2810.16  16
 -10  -2   4 279.527 571.486  16
 -10   2   4-190.239 376.776  16
 -10  -2   3 870.018 533.316  16
 -10   2   3 627.546 579.173  16
 -10  -2   2 2450.36 775.850  16
 -10   2   2 3356.89 885.964  16
 -10  -2   1 872.150 545.750  16
 -10   2   1 439.533 507.105  16
 -10  -2   0-329.753 362.899  16
 -10   2   0 41.2502 275.309  16
 -10  -2  -1 2978.60 766.283  16
 -10   2  -1 2796.30 693.025  16
  10   2   2 1445.89 389.121  20
  10  -2   2 1475.97 453.551  20
 -10  -2  -2 1851.70 643.030  16
  10   2   3 715.982 325.391  20
  10  -2   3 947.289 359.486  20
  10   2   4 2221.27 486.611  20
  10  -2   4 2437.88 613.759  20
  10   2   5 2554.02 529.967  20
  10  -2   5 2671.34 604.640  20
  10   2   6 414.644 269.693  20
  10  -2   6 410.533 342.336  20
  10   2   7 4704.53 724.884  20
  10  -2   7 4502.01 784.925  20
  10   2   7 6683.93 1686.33   9
  10  -2   7 5267.01 1401.05   9
  10   2   7 3270.70 1035.16  13
  10   2   8 9560.99 1908.31   9
  10  -2   8 8313.45 1814.38   9
  10   2   8 8373.17 1681.73  13
  10   2   9 17512.5 2589.46   9
  10  -2   9 15614.6 2464.09   9
  10   2   9 14632.8 2197.49  13
  10   2  10 2816.97 652.206  24
  10   2  10 3122.56 1139.39   9
  10  -2  10 3799.30 1360.62   9
  10  -2  11 1433.39 550.562  24
  10   2  11 1981.06 591.728  24
  10   2  11 1033.29 710.243   9
  10  -2  11 1581.61 824.572   9
  10   2  12 270.643 324.491  24
  10  -2  12-445.354 418.423  22
  10   2  12-768.891 614.192   9
  10   2  13 2594.25 595.249  24
  10  -2  13 1626.76 354.748  22
  10  -2  14 105.461 243.527  22
  10   2  14-34.8519 293.548  22
 -10  -3  14 275.707 385.587  11
 -10   3  14 994.987 524.418  11
 -10  -3  13 4056.54 1078.87  11
 -10   3  13 7032.33 1398.40  11
 -10   3  13 5558.17 789.941  26
 -10  -3  12-117.031 442.867  11
 -10   3  12 1187.21 776.941  11
 -10  -3  12 1202.84 401.798  26
 -10   3  12 1289.11 429.618  26
 -10  -3  11 8506.67 1760.59  11
 -10   3  11 10025.2 1884.34  11
 -10  -3  11 9491.22 1185.74  26
 -10  -3  10 541.128 592.618  11
 -10  -3  10 1429.04 547.335  26
 -10   3  10 1137.59 744.804  11
 -10  -3   9 757.555 697.983  11
 -10  -3   9 1381.63 566.238  26
 -10  -3   8-1444.20 806.486  11
 -10  -3   8 655.684 429.884  26
 -10  -3   8-870.185 605.766  16
 -10   3   8 163.878 500.830  16
 -10  -3   7-701.761 636.731  11
 -10  -3   7 154.768 368.362  26
  10  -3  -7-827.516 645.883   5
 -10  -3   7 56.4448 459.330  16
 -10   3   7 405.470 476.145  16
 -10  -3   6-138.295 566.155  16
 -10   3   6 197.533 578.992  16
 -10  -3   5 959.493 597.564  16
 -10   3   5 981.215 566.176  16
 -10  -3   4 68.1176 350.274  16
 -10   3   4 284.447 526.611  16
 -10  -3   3 8409.81 1415.62  16
 -10   3   3 7611.87 1326.97  16
 -10  -3   2 9254.33 1468.03  16
 -10   3   2 8955.75 1362.96  16
 -10  -3   1 28032.7 2437.06  16
 -10   3   1 25798.4 2229.55  16
 -10  -3   0 382.323 401.170  16
 -10   3   0 203.698 385.936  16
 -10  -3  -1 25141.6 2233.53  16
  10   3   2-155.602 256.572  20
  10  -3   2 559.324 282.426  20
 -10  -3  -2-94.3339 328.779  16
  10   3   3 29587.1 1553.85  20
  10  -3   3 29420.3 1785.93  20
  10   3   4 2591.93 510.030  20
  10  -3   4 3244.58 677.283  20
  10  -3   5 16410.0 1403.57  20
  10  -3   6 1751.78 490.601  20
  10  -3   7 6651.62 991.477  20
  10   3   7 7173.45 1703.21   9
  10  -3   7 6596.39 1551.30   9
  10   3   7 9768.15 1776.78  13
  10   3   8-931.956 702.152   9
  10  -3   8 602.281 628.343   9
  10   3   8-82.6316 356.082  13
  10   3   9 8959.53 1903.13   9
  10  -3   9 7607.84 1742.25   9
  10   3   9 7472.26 1618.59  13
  10   3  10-324.192 385.503  24
  10   3  10-260.072 698.416   9
  10  -3  10 282.033 567.640   9
  10   3  11 164.404 302.165  24
  10   3  11-107.294 490.555   9
  10  -3  11 631.330 539.707   9
  10   3  12 190.782 302.619  24
  10  -3  12-242.898 415.416  22
  10   3  12 117.732 411.994   9
  10   3  13-129.562 265.055  24
  10  -3  13-162.216 260.894  22
  10   3  13-694.193 568.024   9
  10   3  14-54.3727 234.542  24
  10  -3  14-304.130 246.501  22
  10   3  14-386.983 305.505  22
 -10  -4  14 458.141 444.950  11
 -10   4  14-95.8089 281.697  11
 -10  -4  13 1334.91 694.133  11
 -10   4  13 1045.59 513.128  11
 -10   4  13 492.494 315.277  26
 -10  -4  12 256.135 408.674  11
 -10  -4  12 615.372 363.642  26
 -10   4  12 245.824 387.193  11
 -10  -4  11 7289.80 1671.51  11
 -10  -4  11 8592.01 1176.89  26
 -10   4  11 8639.56 1731.71  11
 -10  -4  10 3763.64 1247.98  11
 -10  -4  10 5109.61 923.521  26
 -10   4  10 3870.41 1231.28  11
 -10  -4   9 2479.19 1066.82  11
 -10  -4   9 2363.24 606.942  26
 -10  -4   8 2972.13 1101.91  11
 -10  -4   8 4345.61 870.963  26
  10  -4  -8 2594.71 1005.96   5
 -10  -4   8 2888.63 987.436  16
 -10   4   8 3528.23 1041.67  16
 -10  -4   7 175.706 507.379  11
 -10  -4   7 785.702 409.677  26
  10  -4  -7-714.004 951.953   5
 -10  -4   7-725.576 594.902  16
 -10   4   7 616.142 617.978  16
 -10  -4   6 26894.3 1993.32  26
 -10  -4   6 25116.2 2673.60  16
 -10   4   6 29234.7 2791.56  16
 -10  -4   5-156.075 488.456  16
 -10   4   5 447.796 528.572  16
 -10  -4   4-207.414 462.516  16
 -10   4   4-38.9955 340.428  16
 -10  -4   3 7667.39 1388.95  16
 -10   4   3 7780.10 1391.92  16
 -10  -4   2 3124.73 933.961  16
 -10   4   2 3604.36 908.059  16
 -10  -4   1 27880.6 2468.15  16
 -10   4   1 28097.6 2342.59  16
 -10  -4   0 2750.32 782.827  16
 -10   4   0 2869.45 738.821  16
 -10  -4  -1 1824.35 684.052  16
  10  -4   2 550.930 341.931  20
 -10  -4  -2 1426.52 572.108  16
  10  -4   3 1759.61 499.672  20
  10  -4   4 3205.69 651.592  20
  10  -4   5 5163.10 844.549  20
  10  -4   6 785.527 353.344  20
  10   4   6 533.917 581.910   9
  10  -4   6 497.110 588.711   9
  10   4   6 1140.10 640.505  13
  10  -4   7 1603.37 548.111  20
  10   4   7 1336.08 707.231   9
  10  -4   7 2247.93 919.876   9
  10   4   7 1583.76 765.612  13
  10   4   8 966.352 741.088   9
  10  -4   8 277.063 558.976   9
  10   4   8 1173.60 745.205  13
  10   4   9 8710.38 1200.06  24
  10   4   9 7060.45 1637.40   9
  10  -4   9 6101.27 1559.58   9
  10   4   9 5222.59 1316.26  13
  10   4  10 6104.24 976.792  24
  10   4  10 3672.85 1245.44   9
  10  -4  10 4249.82 1292.19   9
  10   4  11 142.428 290.431  24
  10  -4  11-87.1872 308.674  22
  10   4  11-926.672 691.273   9
  10  -4  11 258.179 456.744   9
  10   4  12 2553.46 605.311  24
  10  -4  12 2264.48 472.296  22
  10   4  12 3063.00 1163.22   9
  10   4  13 1779.29 508.194  24
  10  -4  13 1533.98 404.542  22
  10   4  13 2130.72 743.396   9
  10   4  14 497.560 268.626  24
  10  -4  14 789.580 368.822  22
 -10  -5  14 2832.61 810.132  11
 -10   5  14 1499.66 607.238  11
 -10  -5  13 513.543 559.151  11
 -10   5  13 574.276 338.483  26
 -10   5  13 152.574 371.660  11
 -10  -5  12 2337.06 987.577  11
 -10   5  12 1010.00 610.137  11
 -10  -5  11 371.331 540.829  11
 -10  -5  11 111.914 284.981  26
 -10   5  11 68.9890 427.873  11
 -10  -5  10 4012.21 1252.41  11
 -10  -5  10 4296.52 872.059  26
 -10  -5   9 626.579 697.324  11
 -10  -5   9 682.016 368.487  26
 -10  -5   8-401.443 611.619  11
 -10  -5   8-35.3907 427.510  26
  10  -5  -8-1892.38 873.403   5
 -10  -5   8-571.840 556.164  16
 -10   5   8 271.110 711.180  16
 -10  -5   7 386.903 575.437  11
 -10  -5   7 1058.89 712.133  16
 -10   5   7 136.706 401.625  16
 -10  -5   7 513.945 360.516  26
 -10  -5   6-44.7805 405.010  26
  10  -5  -6-1429.17 820.751   5
 -10  -5   6 335.745 557.381  16
 -10   5   6-256.225 506.410  16
 -10  -5   5-234.277 447.979  16
 -10   5   5 609.356 513.566  16
 -10  -5   4 1420.12 703.080  16
 -10   5   4 1159.06 641.502  16
 -10  -5   3 684.420 565.622  16
 -10   5   3 18.2690 365.537  16
 -10  -5   2 1285.75 522.308  16
 -10   5   2 657.022 479.090  16
 -10   5   1 10034.8 1445.73  16
 -10  -5   1 8459.02 1433.96  16
 -10  -5   0 7216.43 1273.07  16
 -10   5   0 5878.42 1072.58  16
 -10  -5  -1 1182.52 632.172  16
  10  -5   2 78075.0 2878.18  20
 -10  -5  -2 74072.9 4030.69  16
  10  -5   3 1204.64 447.936  20
  10  -5   4 343.697 359.076  20
  10  -5   5 3969.35 759.576  20
  10  -5   6 203.604 310.758  20
  10  -5   6 523.345 414.314   9
  10   5   6-233.798 410.092  13
  10  -5   7 11.9796 319.480  20
  10  -5   7-71.8391 645.931   9
  10   5   7-40.8855 347.478  13
  10   5   8 8888.11 1920.73   9
  10  -5   8 7604.81 1769.05   9
  10   5   8 9942.11 1843.84  13
  10   5   9 3770.37 831.041  24
  10   5   9 3034.94 1063.30   9
  10  -5   9 3541.15 1254.76   9
  10   5   9 2673.93 941.056  13
  10   5  10 3370.95 793.807  24
  10  -5  10 2811.71 550.461  22
  10   5  10 1882.90 984.759   9
  10  -5  10 3380.44 1277.68   9
  10   5  11-379.835 348.208  24
  10  -5  11 389.381 321.320  22
  10   5  11-59.9988 428.603   9
  10   5  12 106.966 319.580  24
  10  -5  12 152.061 308.587  22
  10   5  12 791.633 535.114   9
  10   5  13-20.6767 255.267  24
  10  -5  13 566.789 413.476  22
  10   5  13 125.530 414.810   9
  10   5  14-7.44595 189.996  24
  10   5  14 249.498 230.502  22
 -10  -6  14-9.46245 306.135  11
 -10   6  14 934.971 467.295  11
 -10  -6  13-75.7406 377.394  11
 -10   6  13 609.202 285.098  26
 -10  -6  12 1017.36 645.722  11
 -10   6  12 2632.64 888.244  11
 -10  -6  11 437.525 673.635  11
 -10   6  11 427.449 483.218  11
 -10  -6  10 1719.49 854.022  11
 -10  -6  10 502.648 282.845  26
 -10  -6   9 3260.69 1093.38  11
 -10  -6   9 3085.45 762.278  26
 -10  -6   8 18956.6 2688.33  11
 -10  -6   8 18330.1 1758.07  26
  10  -6  -8 19013.6 2525.66   5
 -10   6   8 19922.6 2472.38  16
 -10  -6   8 13432.6 2090.84  16
 -10  -6   7 22206.3 2856.67  11
 -10  -6   7 22361.9 1895.90  26
  10  -6  -7 24582.9 2910.00   5
 -10  -6   7 20723.5 2531.92  16
 -10   6   7 23790.0 2631.81  16
 -10  -6   6 6047.03 1478.22  11
  10  -6  -6 8780.85 1713.28   5
 -10  -6   6 7595.96 1601.75  16
 -10   6   6 9101.22 1599.75  16
 -10  -6   6 6233.18 1018.76  26
 -10  -6   5 8809.26 1605.57  16
 -10   6   5 8808.15 1555.91  16
 -10  -6   4 3393.98 1021.85  16
 -10   6   4 3554.88 1043.31  16
 -10  -6   3 9959.27 1603.61  16
 -10   6   3 9416.63 1531.54  16
 -10  -6   2 8376.41 1471.04  16
 -10   6   2 7834.20 1344.24  16
 -10  -6   1 27.5954 409.164  16
 -10   6   1 206.894 353.419  16
 -10  -6   0 6633.46 1258.84  16
 -10   6   0 6317.30 1104.10  16
 -10  -6  -1 124.136 463.791  16
  10  -6   2 2721.71 616.226  20
 -10  -6  -2 2672.35 850.335  16
  10  -6   3-109.909 372.334  20
 -10  -6  -3-74.7211 347.915  16
  10  -6   4 442.177 365.646  20
  10  -6   5 390.584 322.840  20
  10  -6   6 3383.80 707.122  20
  10   6   6 2721.14 970.238   9
  10   6   6 2945.32 1030.96  13
  10  -6   6 3453.14 1162.91   9
  10  -6   7 2170.49 599.831  20
  10   6   7 1417.56 745.185   9
  10  -6   7 796.398 667.976   9
  10   6   7 2032.07 878.481  13
  10   6   8 14948.1 1538.03  24
  10   6   8 14277.3 2376.89   9
  10  -6   8 11473.0 2107.20   9
  10   6   8 15112.3 2273.90  13
  10   6   9-4.62485 310.402  24
  10   6   9 48.9700 616.994   9
  10  -6   9 497.069 538.069   9
  10   6  10 14195.3 1514.15  24
  10  -6  10 16919.3 1223.85  22
  10   6  10 13207.9 2324.54   9
  10  -6  10 14215.2 2260.46   9
  10   6  11-121.328 307.819  24
  10  -6  11-319.912 428.949  22
  10   6  11-379.588 535.579   9
  10   6  12 2178.41 566.747  24
  10  -6  12 1021.46 368.871  22
  10   6  12 661.409 570.417   9
  10   6  13-249.577 297.192  24
  10   6  13-262.752 436.457   9
  10   6  14 127.443 220.036  24
  10   6  14-152.352 300.434  22
 -10  -7  14 543.974 404.787  11
 -10  -7  13 7817.67 1464.60  11
 -10   7  13 9030.30 1422.94  11
 -10   7  13 10356.5 1026.92  26
 -10  -7  12 428.137 488.928  11
 -10   7  12 1747.14 727.399  11
 -10  -7  11 1943.59 926.465  11
 -10  -7  10-23.5826 480.817  11
 -10  -7   9 1272.84 799.441  11
 -10  -7   9-45.5817 281.280  26
 -10  -7   8 1395.60 977.590  11
 -10  -7   8 2997.46 744.336  26
  10  -7  -8 2704.26 1088.51   5
 -10  -7   7 237.427 442.446  11
 -10  -7   7 1118.66 610.223  26
  10  -7  -7 220.596 616.792   5
 -10  -7   7 381.752 702.284  16
 -10   7   7 105.965 492.872  16
 -10  -7   6 2790.35 1085.91  11
 -10  -7   6 3641.12 809.983  26
  10  -7  -6 3604.42 1209.77   5
 -10  -7   6 3632.05 1051.70  16
 -10   7   6 3737.87 1106.57  16
 -10  -7   5 874.732 448.327  26
  10  -7  -5-453.059 469.222   5
 -10  -7   5 1864.38 745.418  16
 -10   7   5 493.129 446.993  16
 -10  -7   4 272.567 600.429  16
 -10   7   4-585.741 638.670  16
 -10  -7   3 14722.9 2057.93  16
 -10   7   3 12667.3 1817.51  16
 -10  -7   2 8764.26 1591.23  16
 -10   7   2 8999.65 1466.95  16
 -10  -7   1 5043.93 1159.86  16
 -10   7   1 2541.76 770.273  16
 -10  -7   0 27876.9 2711.20  16
 -10  -7  -1 6449.19 1308.73  16
  10  -7   2 1839.38 495.036  20
 -10  -7  -2 1808.57 687.759  16
  10  -7   3 11754.7 1181.97  20
  10  -7   4 42756.3 2265.47  20
  10  -7   5 40286.9 2282.74  20
  10   7   5 43602.4 3982.50   9
  10  -7   5 37222.4 3624.43   9
  10   7   5 40999.7 3613.82  13
  10  -7   6 8259.54 1087.41  20
  10   7   6 5595.68 1446.91   9
  10   7   6 9001.51 1754.91  13
  10  -7   6 7539.88 1686.81   9
  10  -7   7 4069.35 789.184  20
  10   7   7 4463.40 1423.36   9
  10   7   7 3248.86 1074.71  13
  10  -7   7 3788.88 1280.61   9
  10   7   8 13316.1 1467.64  24
  10   7   8 11668.5 2233.49   9
  10  -7   8 13449.8 2341.85   9
  10   7   8 11573.8 2043.06  13
  10   7   9-143.378 490.033  24
  10   7   9 285.252 489.057   9
  10  -7   9-380.018 554.531   9
  10   7  10 844.120 468.820  24
  10   7  10 2002.33 981.572   9
  10  -7  10-510.539 557.882   9
  10   7  11-482.998 443.466  24
  10  -7  11 450.174 313.358  22
  10   7  11 573.751 620.351   9
  10   7  12 153.020 401.265   7
  10   7  12-10.1079 269.318  24
  10  -7  12 676.851 385.487  22
  10   7  12-137.796 543.493   9
  10   7  13 52.6304 245.560  24
  10   7  13 116.566 357.561   9
  10   7  14 117.631 182.608  24
  10   7  14-112.165 275.458  22
 -10  -8  14-230.907 297.349  11
 -10  -8  13 4536.51 1094.95  11
 -10   8  13 4324.88 937.677  11
 -10  -8  12 1032.57 729.428  11
 -10  -8  11 3814.50 1197.57  11
 -10  -8  10-220.433 399.529  11
 -10  -8   9-151.721 693.713  11
 -10  -8   8-268.110 555.086  11
  10  -8  -8 330.905 729.046   5
 -10  -8   7 6986.90 1710.60  11
 -10  -8   7 7676.11 1159.81  26
  10  -8  -7 8651.59 1800.84   5
 -10  -8   7 10379.0 1873.64  16
 -10   8   7 8259.68 1627.75  16
  10   8  -7 6007.81 1539.42   1
 -10  -8   6 176.009 616.529  11
 -10  -8   6-176.626 290.883  26
  10  -8  -6-593.411 595.566   5
 -10  -8   6-1248.60 729.588  16
 -10   8   6-77.9690 507.515  16
 -10  -8   5 12073.9 2101.87  11
 -10  -8   5 12330.7 1421.34  26
  10  -8  -5 12084.7 1995.58   5
 -10  -8   5 11353.5 1855.83  16
 -10   8   5 11601.9 1867.35  16
  10  -8  -4 18342.0 2528.57   5
 -10  -8   4 20356.9 2466.91  16
 -10   8   4 18103.3 2255.87  16
 -10  -8   3 22226.4 2517.74  16
 -10   8   3 20984.8 2351.43  16
 -10  -8   2 2969.56 952.914  16
 -10   8   2 643.598 554.338  16
 -10  -8   1 3841.06 1136.21  16
 -10   8   1 3990.50 982.984  16
 -10  -8   0 36.2824 442.405  16
  10  -8   1 2025.93 576.890  20
 -10  -8  -1 435.557 585.924  16
  10  -8   2 3158.02 627.752  20
 -10  -8  -2 3519.49 1027.67  16
  10  -8   3 426.894 354.960  20
  10  -8   4 302.587 555.479   9
  10  -8   4-884.859 733.824   8
  10  -8   4-343.801 426.211  20
  10   8   4-888.856 617.566  13
  10  -8   5 8203.04 1695.34   8
  10  -8   5 10004.0 1201.40  20
  10   8   5 9628.00 1967.96   9
  10   8   5 10652.5 1931.23  13
  10  -8   5 12816.6 2246.74   9
  10  -8   6 1028.75 452.093  20
  10   8   6 482.150 548.095   9
  10   8   6 1514.84 778.564  13
  10  -8   6 2049.16 912.831   9
  10  -8   7 5424.12 878.820  20
  10   8   7 5267.92 1587.66   9
  10   8   7 3311.63 1147.93  13
  10  -8   7 4711.69 1497.15   9
  10   8   8 968.068 448.958  24
  10   8   8 793.725 832.509   9
  10  -8   8-143.825 473.267   9
  10   8   9 6701.15 1093.19  24
  10   8   9 7034.85 1719.07   9
  10  -8   9 4982.10 1390.15   9
  10   8  10 507.631 460.011  24
  10   8  10-230.315 506.424   9
  10  -8  10 458.589 532.481   9
  10   8  11 922.710 483.526  24
  10   8  11 1266.61 778.897   9
  10   8  12-198.339 483.333   7
  10   8  12 710.716 409.735  24
  10   8  12 508.422 563.479   9
  10   8  13 3049.98 735.050   7
  10   8  13 2124.44 526.272  24
  10   8  13 1533.24 649.521   9
 -10  -9  13 9198.15 1479.71  11
 -10  -9  12 665.063 579.833  11
 -10  -9  11-113.189 396.288  11
 -10  -9  10-297.716 436.479  11
 -10  -9   9-273.949 602.636  11
 -10  -9   8 214.664 631.930  11
  10  -9  -8-393.401 524.096   5
 -10  -9   7 1793.92 996.846  11
  10  -9  -7 237.018 583.760   5
 -10  -9   7 293.159 457.746  16
 -10  -9   6-1586.29 871.762  11
  10  -9  -6 94.3844 470.383   5
 -10  -9   6 584.863 565.494  16
 -10   9   6-409.375 701.742  16
  10  -9  -5 689.933 669.872   5
 -10  -9   5 986.441 770.413  16
 -10   9   5 598.728 656.589  16
 -10  -9   4 824.617 602.306  11
 -10  -9   4 2993.75 1015.33  16
  10  -9  -4 2778.02 1083.18   5
 -10   9   4 790.636 516.537  16
  10  -9  -3 18240.0 2540.55   5
 -10  -9   3 17972.5 2345.77  16
 -10   9   3 18740.2 2277.57  16
 -10  -9   2 1580.54 851.249  16
 -10   9   2 2489.17 842.784  16
 -10  -9   1 19407.8 2373.33  16
 -10   9   1 16307.9 1990.42  16
 -10  -9   0 1796.91 844.684  16
  10  -9   1 2296.10 556.930  20
 -10  -9  -1 2229.93 865.929  16
  10  -9   2 68606.1 2777.46  20
  10  -9   3 14560.4 2444.72   8
  10  -9   3 11664.9 1193.88  20
  10  -9   4 400.763 528.298   9
  10  -9   4 1496.28 1045.08   8
  10  -9   4 545.109 356.743  20
  10   9   4 287.438 478.653  13
  10  -9   5 99235.8 6185.24   8
  10  -9   5 101541. 3606.97  20
  10   9   5 108042. 6440.71   9
  10  -9   5 101509. 6260.21   9
  10   9   5 104524. 5842.15  13
  10  -9   6-657.280 624.403   8
  10  -9   6 62.6867 284.989  20
  10   9   6 354.615 655.466   9
  10   9   6-1369.55 752.560  13
  10  -9   6-544.419 607.147   9
  10   9   7 2078.24 633.318  24
  10   9   7 2745.99 1166.72   9
  10   9   7 1899.29 862.421  13
  10  -9   7 3464.42 1253.89   9
  10   9   8-14.0333 354.654  24
  10   9   8 904.496 745.395   9
  10  -9   8 233.112 561.567   9
  10   9   9 1204.27 526.544  24
  10  -9   9 896.952 721.732   9
  10   9  10 43.9288 368.225  24
  10   9  10-487.562 623.959   9
  10   9  11-165.959 310.378  24
  10   9  11 89.8271 593.105   9
  10   9  12 378.823 395.643   7
  10   9  12-435.828 271.404  24
  10   9  12-128.938 457.003   9
  10   9  13-739.039 403.765   7
  10   9  13-264.463 261.764  24
  10   9  13 85.4737 328.068   9
 -10 -10  13 329.413 410.324  11
 -10 -10  12 1336.73 706.994  11
 -10 -10  11-67.2235 534.204  11
 -10 -10  10 2355.65 1002.14  11
 -10 -10   9 2173.49 938.796  11
 -10 -10   8 5454.47 1412.43  11
  10 -10  -8 7062.85 1664.10   5
 -10 -10   7 2651.68 1244.87  11
  10 -10  -7 4913.07 1406.20   5
 -10 -10   6 388.372 480.261  11
  10  10  -6-154.201 544.513   1
  10 -10  -6 752.860 692.400   5
 -10 -10   6 426.173 579.347  16
 -10  10   6 1061.55 749.734  16
 -10 -10   5 2659.33 982.233  11
 -10 -10   5 3499.67 1166.07  16
  10 -10  -5 3245.12 1207.17   5
 -10  10   5 3286.91 1033.12  16
 -10 -10   4 17239.6 2532.92  11
 -10 -10   4 15726.8 2239.25  16
 -10  10   4 17504.8 2311.65  16
  10 -10  -4 13352.3 2268.91   5
 -10 -10   3 15799.2 2398.58  11
  10 -10  -3 17756.6 2648.82   5
 -10 -10   3 14116.9 2115.51  16
 -10  10   3 16453.7 2178.41  16
 -10 -10   2-1052.31 705.551  16
  10 -10  -2-1061.51 736.721   5
 -10  10   2 315.969 658.191  16
 -10 -10   1 1053.83 653.787  16
  10 -10  -1-1747.83 880.606   5
  10 -10   0 12572.0 1212.15  20
 -10 -10   0 13582.3 2072.50  16
  10 -10   1 189.817 517.665   8
  10 -10   1 371.436 324.808  20
  10 -10   2 3882.20 1347.48   8
  10 -10   2 3055.51 664.153  20
  10 -10   3 43.6472 754.992   8
  10 -10   3-87.0855 337.303  20
  10  10   3 529.715 554.542  13
  10 -10   4 6035.22 1543.38   9
  10 -10   4 7324.73 1810.03   8
  10 -10   4 5726.43 882.449  20
  10  10   4 8104.95 1816.48   9
  10  10   4 5621.83 1420.71  13
  10 -10   5 1607.75 880.567   9
  10 -10   5 1502.27 887.806   8
  10 -10   5 1215.15 486.850  20
  10  10   5 703.755 858.440   9
  10  10   5 1551.78 856.752  13
  10 -10   6 2166.98 866.185   8
  10 -10   6 3814.41 743.591  20
  10  10   6 3964.26 1480.63   9
  10  10   6 4053.58 1224.40  13
  10 -10   6 4114.78 1408.88   9
  10  10   7-820.613 617.782  24
  10  10   7 382.374 791.084   9
  10 -10   7 810.150 678.063   9
  10  10   8 1550.87 580.794  24
  10  10   8 2679.22 1170.12   9
  10 -10   8 331.021 494.668   9
  10  10   9 1781.76 654.708  24
  10  10   9 2927.68 1239.38   9
  10 -10   9 1696.56 841.052   9
  10  10  10 4097.84 872.434  24
  10  10  10 3166.94 1129.98   9
  10  10  11 721.673 399.373  24
  10  10  11-76.3252 430.391   9
  10  10  12 10445.2 1447.09   7
  10  10  12 12205.7 1164.72  24
  10  10  12 11068.0 1719.57   9
  10  10  13-56.7949 232.457   7
  10  10  13-243.576 249.555  24
 -10 -11  13-156.095 381.312  11
 -10 -11  12 2101.71 799.585  11
 -10 -11  11 1302.40 714.588  11
 -10 -11  10 886.291 642.865  11
 -10 -11   9-115.714 653.555  11
 -10 -11   8-660.176 833.083  11
  10 -11  -8 391.289 647.444   5
 -10 -11   7 636.473 662.228  11
  10 -11  -7 56.7667 437.948   5
 -10 -11   6 714.643 677.561  11
  10 -11  -6-2203.46 967.009   5
 -10 -11   5 1174.90 766.674  11
 -10 -11   5 1152.95 483.110  16
  10 -11  -5 1916.33 896.675   5
 -10  11   5 1959.72 853.373  16
 -10 -11   4 40.3845 453.126  11
 -10 -11   4-111.256 453.435  16
  10 -11  -4 394.476 667.265   5
 -10  11   4 483.076 616.693  16
 -10 -11   3 2162.64 1009.44  11
 -10 -11   3 1921.11 877.643  16
  10 -11  -3 3205.19 1085.76   5
 -10  11   3 3064.21 1062.08  16
  10 -11  -2 2868.81 909.759   8
 -10 -11   2 1540.92 855.408  11
 -10 -11   2 2300.16 1009.74  16
  10 -11  -2 1771.35 789.376   5
 -10  11   2 3308.93 972.364  16
  10 -11  -1 1698.50 1073.98   8
 -10 -11   1-557.358 571.729  16
  10 -11  -1 1264.00 897.621   5
  10 -11   0 19391.8 2920.06   8
  10 -11   0 18266.8 1479.28  20
  10 -11   0 18125.6 2517.08   5
  10 -11   1-677.638 715.799   8
 -10 -11  -1-129.981 443.991  25
  10 -11   1-343.906 463.337  20
  10 -11   1 42.3540 274.979  19
  10 -11   1 422.367 643.268   5
  10 -11   2 38651.8 4073.00   8
 -10 -11  -2 38489.9 2566.88  25
  10 -11   2 37654.5 2110.32  20
  10 -11   2 34282.3 2061.23  19
  10  11   2 39282.7 3408.86  13
  10 -11   3-314.069 604.580   8
  10 -11   3-412.042 300.593  20
  10  11   3-340.587 589.022   9
  10  11   3-845.310 617.443  13
  10 -11   4 63468.8 5160.81   8
  10 -11   4 62906.8 2806.56  20
  10  11   4 59328.6 4881.54   9
  10  11   4 63565.1 4588.03  13
  10 -11   5 29854.1 3579.69   8
  10 -11   5 30129.7 1972.43  20
  10  11   5 31423.1 3619.71   9
  10 -11   5 29233.7 3534.35   9
  10  11   5 27928.4 3099.96  13
  10 -11   6 7779.13 1745.31   8
  10  11   6 11981.9 2318.24   9
  10 -11   6 10403.8 2181.73   9
  10  11   7-60.6547 602.039   9
  10 -11   7-487.625 619.551   9
  10  11   8 2118.69 616.834  24
  10  11   8 3227.39 1225.43   9
  10 -11   8 3676.57 1227.23   9
  10  11   9 550.292 470.016  24
  10  11   9-127.644 487.257   9
  10  11  10 3297.86 762.544  24
  10  11  10 2768.44 1134.61   9
  10  11  11-544.850 460.960   7
  10  11  11 305.737 363.446  24
  10  11  11-550.941 625.450   9
  10  11  12 320.748 453.638   7
  10  11  12-475.675 297.682  24
  10  11  12 38.7159 437.972   9
 -10 -12  12-242.351 340.610  11
 -10 -12  11-769.834 550.687  11
 -10 -12  10 2963.84 1016.58  11
 -10 -12   9 560.266 426.068  11
 -10 -12   8-232.211 602.905  11
  10 -12  -8 36.5968 613.184   5
 -10 -12   7 4611.67 1470.97  11
  10 -12  -7 3722.35 1188.75   5
 -10 -12   6 5241.65 1465.48  11
  10 -12  -6 6151.83 1554.39   5
 -10 -12   5 5990.78 1651.82  11
  10 -12  -5 8026.67 1779.17   5
 -10 -12   4 717.411 692.406  11
 -10 -12   4 981.018 586.850  16
  10 -12  -4 1312.73 862.480   5
 -10  12   4 1236.48 720.992  16
 -10 -12   3-9.79643 454.132  11
 -10 -12   3 1311.48 837.174  16
  10 -12  -3-540.528 633.419   5
 -10  12   3-185.520 483.228  16
  10 -12  -2 3749.42 1195.66   8
 -10 -12   2 3919.80 1306.74  11
 -10 -12   2 5005.29 1317.64  16
  10 -12  -2 4958.21 1399.77   5
 -10  12   2 6441.68 1382.99  16
 -10 -12   1-491.742 650.613  11
  10 -12  -1 254.078 382.613  20
  10 -12  -1 315.374 596.238   5
  10 -12   0 567.219 681.703   8
 -10 -12   0 48.7778 377.773  25
  10 -12   0 60.8482 272.087  20
  10 -12   0 1170.91 780.286   5
  10 -12   1 406.135 642.641   8
 -10 -12  -1-513.809 566.622  25
  10 -12   1-221.419 305.345  20
  10 -12   1 159.863 255.445  19
  10 -12   1-1024.11 715.479   5
  10 -12   2 109.851 514.900   8
 -10 -12  -2-816.830 474.810  25
  10 -12   2-720.549 372.824  20
  10 -12   2-453.780 342.808  19
  10 -12   3 904.076 781.507   8
 -10 -12  -3-269.979 338.762  25
  10 -12   3 190.547 277.224  20
  10  12   3-397.718 507.562  13
  10 -12   4-89.3427 504.206   8
  10 -12   4 1050.70 446.497  20
  10  12   4 1299.71 1036.92   9
  10  12   4 507.078 509.728  13
  10 -12   5 2991.02 1194.78   9
  10 -12   5 1769.22 970.425   8
  10  12   5 2310.91 1183.75   9
  10 -12   6 2019.34 989.523   8
  10  12   6 1618.17 959.323   9
  10 -12   6 1728.58 826.123   9
  10  12   7 4248.73 1368.34   9
  10 -12   7 2044.34 1111.17   9
  10  12   8 2458.42 667.714  24
  10  12   8 1672.65 975.529   9
  10 -12   8 2650.90 1237.64   9
  10  12   9 3761.37 798.411  24
  10  12   9 2858.31 1156.03   9
  10  12  10 1767.75 585.863  24
  10  12  10 1934.54 919.109   9
  10  12  11-177.464 409.831   7
  10  12  11 151.986 254.665  24
  10  12  11 322.686 490.405   9
  10  12  12 2434.48 656.168   7
  10  12  12 2229.92 492.341  24
 -10 -13  12-340.969 267.585  11
 -10 -13  11-59.0683 425.846  11
 -10 -13  10 1637.78 884.563  11
 -10 -13   9 352.837 570.182  11
 -10 -13   8 103.056 468.908  11
  10 -13  -8 394.068 492.669   5
 -10 -13   7-556.882 604.859  11
  10 -13  -7 656.043 598.323   5
 -10 -13   6-1358.87 882.808  11
  10 -13  -6-160.262 505.252   5
 -10 -13   5-354.343 589.917  11
  10 -13  -5 4.94614 521.465   5
 -10 -13   4 351.481 536.168  11
  10 -13  -4 654.424 519.994   5
 -10 -13   3 2013.03 1156.24  11
  10 -13  -3 1426.08 729.203   5
 -10  13   3 843.773 587.535  16
  10 -13  -2-2040.50 982.579   8
 -10 -13   2-569.060 625.537  11
  10 -13  -2-173.668 852.631   5
  10 -13  -1 14609.0 2523.77   8
 -10 -13   1 13094.0 2328.15  11
 -10 -13   1 13184.2 1635.96  25
  10 -13  -1 14224.2 2383.43   5
  10 -13   0 4062.71 1350.69   8
 -10 -13   0 3713.71 1421.48  11
 -10 -13   0 3258.76 791.957  25
  10 -13   0 2660.76 999.501   5
  10 -13   1 874.691 876.761   8
 -10 -13  -1 299.403 420.927  25
  10 -13   1 693.528 398.430  19
  10 -13   1 315.444 825.079   5
  10 -13   2-871.244 777.761   8
 -10 -13  -2 463.034 308.707  25
  10 -13   2-363.783 379.432  19
  10 -13   3 1597.61 938.375   8
 -10 -13  -3 2023.12 709.912  25
  10  13   3 2317.13 964.586  13
  10 -13   4 1885.99 1088.70   8
  10  13   4 2557.57 1034.70   9
  10 -13   5 35120.0 3962.26   8
  10  13   5 35716.4 3837.95   9
  10 -13   5 40168.0 4244.17   9
  10 -13   6 3199.22 1314.02   8
  10  13   6 2428.79 1198.84   9
  10 -13   6 1115.82 808.118   9
  10 -13   7 7804.29 1854.18   8
  10  13   7 6999.93 1806.82   9
  10 -13   7 7619.21 1831.32   9
  10  13   8 524.514 397.701  24
  10  13   8-681.109 680.626   9
  10 -13   8-313.386 511.250   9
  10  13   9-848.858 429.495  24
  10  13   9 375.056 487.449   9
  10  13  10 531.509 371.304  24
  10  13  10-312.520 498.702   7
  10  13  10-743.930 635.167   9
  10  13  11-220.263 424.688   7
  10  13  11 81.5938 227.010  24
  10  13  12-302.303 338.911   7
  10  13  12 324.384 211.796  24
 -10 -14  11 506.578 422.605  11
 -10 -14  10 782.468 484.959  11
 -10 -14   9 589.818 560.490  11
 -10 -14   9 493.846 273.972  25
 -10 -14   8 2167.59 1002.71  11
 -10 -14   8 2296.22 710.878  25
  10 -14  -8 375.092 459.184   5
 -10 -14   7-151.361 537.030  11
  10 -14  -7 531.979 602.699   5
 -10 -14   6 417.023 459.855  11
  10 -14  -6 214.228 473.480   5
 -10 -14   5 9495.49 1989.00  11
  10 -14  -5 7653.52 1780.50   5
 -10 -14   4 369.717 695.132  11
  10 -14  -4 1429.34 816.573   5
 -10 -14   3 4266.43 1403.79  11
 -10 -14   3 4239.90 962.599  25
  10 -14  -3 2357.23 926.019   5
 -10 -14   2 191.264 553.558  11
  10 -14  -2 324.426 604.353   5
 -10 -14   2 396.252 373.661  25
  10 -14  -1 1704.28 942.926   8
 -10 -14   1 509.383 719.622  11
 -10 -14   1 102.979 389.626  25
  10 -14  -1 1241.27 789.191   5
  10 -14   0 10077.5 2119.56   8
 -10 -14   0 7713.67 1252.20  25
  10 -14   0 7457.35 1769.34   5
  10 -14   1 1.89536 747.061   8
 -10 -14  -1 223.017 430.841  25
  10 -14   1 978.968 706.285   5
  10 -14   2 32.1326 498.285   8
 -10 -14  -2-820.826 468.156  25
  10 -14   3-662.217 712.939   8
 -10 -14  -3-207.526 375.935  25
  10 -14   4 2464.61 1107.62   8
  10  14   4 3856.25 1326.78   9
  10 -14   5 1602.65 943.147   9
  10 -14   5 1228.19 827.420   8
  10  14   5 802.947 961.694   9
  10 -14   6 1230.76 928.647   8
  10  14   6 647.187 613.517   9
  10 -14   6-27.3908 468.783   9
  10 -14   7 794.553 787.894   8
  10  14   7 1968.11 1002.87   9
  10 -14   7 1408.46 824.003   9
  10  14   8 3026.32 695.299  24
  10  14   8 1429.00 882.817   9
  10 -14   8 2098.16 934.226   9
  10  14   9-50.1468 279.180  24
  10  14   9 259.508 524.403   9
  10  14  10 4197.25 973.882   7
  10  14  10 5021.24 782.697  24
  10  14  11-400.866 321.451   7
  10  14  11 274.926 240.667  24
 -10 -15  11 1141.50 590.735  11
 -10 -15  10 775.152 553.315  11
 -10 -15   9-41.5220 339.801  11
 -10 -15   8 298.134 368.140  11
 -10 -15   8-154.604 251.945  25
  10 -15  -8-330.046 372.349   5
 -10 -15   7-78.0597 452.872  11
  10 -15  -7-303.717 484.599   5
 -10 -15   7 241.040 349.551  25
 -10 -15   6-489.753 587.171  11
 -10 -15   6-22.1540 351.048  25
  10 -15  -6-259.533 497.955   5
 -10 -15   5-81.1893 489.974  11
 -10 -15   5 181.325 364.430  25
  10 -15  -5 95.6121 581.005   5
 -10 -15   4 573.585 701.339  11
 -10 -15   4 391.272 314.333  25
  10 -15  -4 936.410 772.799   5
 -10 -15   3 5027.40 1512.07  11
 -10 -15   3 3629.37 863.710  25
  10 -15  -3 2881.27 1171.06   5
 -10 -15   2-58.7241 554.518  11
 -10 -15   2 274.852 282.162  25
  10 -15  -2 918.900 762.818   5
  10 -15  -1 1404.27 1003.59   8
 -10 -15   1 514.812 611.449  11
 -10 -15   1 20.9809 344.005  25
  10 -15  -1 229.953 519.305   5
  10 -15   0 7898.57 1929.88   8
 -10 -15   0 7501.46 1221.47  25
  10 -15   0 6559.71 1661.31   5
  10 -15   1 54.1950 489.432   8
 -10 -15  -1 687.418 485.733  25
  10 -15   1 824.422 694.118   5
  10 -15   2 17880.6 2832.26   8
 -10 -15  -2 19520.3 1889.05  25
  10 -15   3-34.7609 691.737   8
  10 -15   4-62.6145 519.013   8
  10  15   4 221.035 567.530   9
  10 -15   5 5.53432 454.381   9
  10 -15   5-198.230 510.696   8
  10  15   5 71.9395 517.129   9
  10 -15   6 1374.81 847.248   8
  10  15   6 1493.25 825.057   9
  10 -15   6 2005.03 1159.86   9
  10 -15   7 1854.36 941.725   8
  10  15   7 1248.52 798.708   9
  10 -15   7 803.832 762.748   9
  10  15   8 76.1272 256.443  24
  10  15   9-78.6262 312.604   7
  10  15   9 38.0044 249.944  24
  10  15  10 761.010 478.508   7
  10  15  10 1835.53 450.100  24
  10  15  11 35.3458 302.834   7
  10  15  11 526.343 254.933  24
 -10 -16  10 4507.40 1042.08  11
 -10 -16   9 153.293 332.120  11
 -10 -16   8 7528.06 1533.18  11
 -10 -16   8 6969.44 966.985  25
  10 -16  -8 8044.11 1441.71   5
 -10 -16   7 4385.26 1275.80  11
 -10 -16   7 2732.28 673.157  25
  10 -16  -7 2700.69 944.111   5
 -10 -16   6 5469.43 1484.50  11
 -10 -16   6 6764.02 1097.69  25
  10 -16  -6 6172.70 1458.08   5
 -10 -16   5-25.4319 550.144  11
 -10 -16   5 248.318 400.076  25
  10 -16  -5 176.165 447.331   5
 -10 -16   4 2771.08 1066.09  11
 -10 -16   4 1832.25 612.033  25
  10 -16  -4 1501.21 919.787   5
 -10 -16   3-403.056 436.032  11
 -10 -16   3 589.129 385.578  25
  10 -16  -3-11.3716 528.382   5
 -10 -16   2 638.836 756.225  11
 -10 -16   2 272.314 475.792  25
  10 -16  -2 642.317 655.798   5
 -10 -16   1 696.710 441.047  25
  10 -16  -1 1395.42 845.822   5
  10 -16   0 1175.79 974.246   8
 -10 -16   0 689.551 410.264  25
  10 -16   0 998.036 702.829   5
  10 -16   1 676.046 801.092   8
  10 -16   1 661.169 683.638   5
 -10 -16  -1 548.607 383.201  25
  10 -16   2 249.459 558.799   8
 -10 -16  -2 864.561 504.629  25
  10 -16   3-12.3316 685.159   8
  10 -16   4 3473.70 1676.64   9
  10 -16   4-58.3680 762.287   8
  10 -16   5-1.75180 458.578   9
  10 -16   5 1531.19 876.766   8
  10 -16   6-169.738 537.066   8
  10 -16   6 904.299 693.007   9
  10 -16   7 1.39849 485.144   9
  10  16   8 299.607 479.386   7
  10  16   8 572.933 287.857  24
  10  16   9 209.086 316.218   7
  10  16   9 420.481 261.430  24
  10  16  10 3461.72 772.800   7
  10  16  10 3919.76 579.464  24
 -10 -17  10 1729.76 617.299  11
 -10 -17   9-681.274 488.919  11
 -10 -17   8-320.664 436.878  11
 -10 -17   8-88.1695 290.239  25
  10 -17  -8 814.061 496.639   5
 -10 -17   7 300.970 342.534  11
 -10 -17   7 800.195 401.671  25
  10 -17  -7 354.658 453.502   5
 -10 -17   6 700.992 558.369  11
 -10 -17   6 83.6333 249.984  25
  10 -17  -6-10.2660 434.116   5
 -10 -17   5 234.291 473.611  11
 -10 -17   5-125.619 323.097  25
  10 -17  -5-749.194 606.595   5
 -10 -17   4 51.0278 411.516  11
 -10 -17   4 191.369 258.706  25
  10 -17  -4-359.521 420.083   5
 -10 -17   3 498.476 693.996  11
 -10 -17   3 161.133 286.395  25
  10 -17  -3 478.662 663.031   5
 -10 -17   2 337.628 364.462  25
  10 -17  -2-1127.80 727.353   5
  10 -17  -1 1078.65 774.376   8
 -10 -17   1 377.699 313.774  25
  10 -17  -1 658.629 650.870   5
  10 -17   0 685.286 641.365   8
 -10 -17   0 1006.77 560.192  25
  10 -17   0-706.132 613.238   5
  10 -17   1 1517.18 973.186   8
 -10 -17  -1 1417.21 554.086  25
  10 -17   1 324.202 501.311   5
  10 -17   2 8975.21 1951.66   8
  10 -17   3 2958.39 1168.97   8
  10 -17   4-312.292 543.923   9
  10 -17   4-293.817 665.134   8
  10 -17   5 897.286 698.935   8
  10 -17   5 2172.65 974.558   9
  10 -17   6-418.812 721.169   8
  10  17   6-75.5969 339.519   7
  10 -17   6 1142.90 724.867   9
  10  17   7 548.461 292.457  24
  10  17   7 312.798 422.012   7
  10 -17   7 371.855 461.906   9
  10  17   8-460.425 452.954   7
  10  17   8-487.487 330.082  24
  10  17   9 447.021 329.737   7
  10  17   9 120.864 188.876  24
 -10 -18   9 418.529 390.466  11
 -10 -18   8 118.790 353.277  11
  10 -18  -8 191.347 319.706   5
 -10 -18   7 565.493 449.711  11
 -10 -18   7 613.744 361.886  25
  10 -18  -7 440.720 497.856   5
 -10 -18   6 1943.55 853.794  11
 -10 -18   6 613.854 310.107  25
  10 -18  -6 900.061 636.153   5
 -10 -18   5 7494.42 1585.47  11
 -10 -18   5 8741.46 1143.45  25
  10 -18  -5 7123.47 1524.48   5
  10  18  -4 652.057 476.802   3
 -10 -18   4 1023.09 707.810  11
 -10 -18   4 573.156 406.553  25
  10 -18  -4 1181.70 781.039   5
 -10 -18   3-112.125 315.837  25
  10 -18  -3 432.959 585.653   5
  10  18  -3 535.400 352.583   3
 -10 -18   2 812.282 466.440  25
  10 -18  -2 1635.89 896.722   5
  10 -18  -1-37.2587 604.154   8
 -10 -18   1-535.903 473.344  25
  10 -18  -1 281.237 399.243   5
  10 -18   0-275.216 530.975   8
 -10 -18   0 99.4450 287.968  25
  10 -18   0-316.793 485.880   5
  10 -18   1 758.214 678.059   8
  10 -18   1 835.250 589.291   5
  10 -18   2-1250.43 777.724   8
  10 -18   3-670.038 609.852   8
  10 -18   4-117.906 576.125   9
  10 -18   4 1200.00 774.582   8
  10 -18   5 1123.06 733.550   8
  10 -18   5 681.937 617.501   9
  10 -18   6 1591.40 682.821   8
  10  18   6 1421.94 591.360   7
  10 -18   6 1476.30 609.185   9
  10  18   7 2782.95 701.854   7
  10  18   7 2355.05 527.970  24
  10  18   8-385.446 264.451   7
  10  18   8 375.959 244.182  24
  10  18   9 218.698 221.756  24
  10  19  -7-258.745 479.759   3
 -10 -19   7-167.473 451.790  11
  10 -19  -7 118.794 302.365   5
  10  19  -6 706.394 449.299   3
 -10 -19   6 608.879 550.790  11
 -10 -19   6 232.562 213.940  25
  10 -19  -6-162.383 328.465   5
 -10 -19   5-212.430 319.369  25
  10 -19  -5-100.794 467.086   5
  10  19  -5-75.3155 349.788   3
 -10 -19   4 515.451 292.151  25
  10 -19  -4 781.656 636.115   5
  10  19  -4 287.206 425.198   3
 -10 -19   3-161.987 301.389  25
  10 -19  -3 579.064 545.531   5
  10  19  -3-721.726 489.554   3
 -10 -19   2 386.021 296.573  25
  10 -19  -2 2394.71 984.022   5
  10  19  -2 1767.04 637.398   3
 -10 -19   1 356.916 283.007  25
  10 -19  -1 821.868 629.250   5
  10 -19   0-502.310 576.381   8
  10 -19   0 290.243 535.432   5
  10 -19   1 3479.54 1173.53   8
  10 -19   1 2842.47 935.866   5
  10 -19   2 1237.86 805.527   8
  10 -19   3 10945.1 1924.00   8
  10 -19   4 397.736 440.305   9
  10 -19   4-10.6753 533.758   8
  10 -19   5 2859.81 948.182   8
  10 -19   5 4250.79 1204.56   9
  10 -19   6 730.276 488.310   9
  10  19   7 3685.85 559.273  24
  10  19   8 1107.85 293.123  24
  10 -20  -6 1117.06 561.932   5
  10  20  -6 1481.42 538.280   3
  10 -20  -5-256.627 382.697   5
  10  20  -5 599.495 405.567   3
  10 -20  -4 1438.91 775.071   5
  10  20  -4 705.942 452.704   3
  10 -20  -3 736.444 534.199   5
  10  20  -3 722.318 457.564   3
  10 -20  -2 3.37864 527.459   5
  10  20  -2 590.429 426.133   3
  10 -20  -1-105.057 335.903   5
  10 -20   0 262.503 394.573   8
  10 -20   0 677.789 471.692   5
  10 -20   1-886.799 606.347   8
  10 -20   1 681.839 504.399   5
  10 -20   2-636.940 533.649   8
  10 -20   3-250.997 484.237   9
  10 -20   3-245.392 508.710   8
  10 -20   4-495.833 490.780   8
  10 -20   4 234.524 332.761   9
  10 -20   5-337.729 406.707   9
  10  20   6 1189.30 355.474  24
  10 -21  -5 310.670 397.339   5
  10  21  -5-228.433 270.665   3
  10 -21  -4 316.904 299.791   5
  10  21  -4 1024.26 525.899   3
  10 -21  -3 530.176 519.091   5
  10  21  -3 528.630 390.364   3
  10  21  -2 908.329 476.181   3
  10 -21  -2-191.523 432.275   5
  10 -21  -1 1183.43 526.631   5
  10 -21   0 1001.53 622.788   5
  10 -21   1 616.727 452.390   5
  10 -21   2 5768.77 1267.50   9
  10 -21   2 4908.17 1148.61   8
  10 -21   3 819.090 578.290   9
  10 -21   3 268.371 366.699   8
  10 -21   4 1913.14 767.096   9
  10 -21   5 711.725 426.037   9
  10 -22  -4-436.905 358.713   5
  10 -22  -3-122.885 289.601   5
  10 -22  -2-887.541 475.917   5
  10 -22  -1 1523.03 643.694   5
  10 -22   0-222.769 381.769   5
  10 -22   1-613.314 461.467   9
  10 -22   1-867.890 442.314   5
  10 -22   2 946.959 525.921   9
  10 -22   3 568.766 384.249   9
  10 -23   0 895.632 478.498   9
 -11   0  14 3990.56 895.627  11
 -11   0  13 665.640 406.238  11
 -11   0  13-218.744 278.420  26
 -11   0  12 2344.18 842.089  11
 -11   0  12 3479.50 667.832  26
 -11   0  11-440.923 652.193  11
 -11   0  11-194.600 334.536  26
 -11   0  10 164.371 471.809  11
 -11   0  10 3091.89 727.665  26
 -11   0   9-316.782 400.007  26
 -11   0   8 151.477 275.165  26
 -11   0   8-206.764 580.451  16
  11   0  -7-2739.09 1085.34   5
 -11   0   7-342.667 484.986  16
  11   0  -6 732.511 812.031   5
 -11   0   6 2078.40 823.762  16
 -11   0   5-149.932 523.114  16
 -11   0   4 4018.66 1045.33  16
 -11   0   3-698.890 614.855  16
 -11   0   2 71530.8 4068.20  16
 -11   0   1-90.4679 387.762  16
 -11   0   0 50145.8 3278.87  16
 -11   0  -1-90.6102 423.982  16
  11   0   2-0.88438 315.854  20
  11   0   3-22.4796 256.339  20
  11   0   4 7214.35 936.693  20
  11   0   5 24.9711 305.285  20
  11   0   6 7415.10 965.088  20
  11   0   6 9451.96 1894.83   9
  11   0   6 7822.30 1579.65  13
  11   0   7 523.891 370.787  20
  11   0   7-331.356 526.143   9
  11   0   8 7856.35 1780.58   9
  11   0   9 540.472 578.668   9
  11   0  10 1487.31 870.437   9
  11   0  11-232.222 592.904   9
  11   0  12 622.872 545.852   9
  11   0  13-261.587 302.195  22
  11   0  14-233.750 278.903  22
 -11  -1  14 1661.26 626.118  11
 -11   1  14 1038.36 478.676  11
 -11  -1  13 683.557 467.603  11
 -11   1  13 1246.89 606.675  11
 -11   1  13 466.408 273.655  26
 -11  -1  13 605.610 319.865  26
 -11  -1  12 955.526 609.055  11
 -11   1  12 2033.58 780.553  11
 -11   1  12 1436.04 476.470  26
 -11  -1  12 1978.92 530.705  26
 -11  -1  11 1200.48 693.843  11
 -11   1  11 1556.83 775.824  11
 -11  -1  11 1224.02 445.418  26
 -11   1  11 1744.50 556.438  26
 -11  -1  10 5708.98 1437.69  11
 -11   1  10 8074.80 1707.76  11
 -11  -1  10 7858.22 1151.51  26
 -11   1  10 7874.13 1103.20  26
 -11  -1   9 719.104 523.271  11
 -11  -1   9 36.1307 279.702  26
 -11  -1   8 4805.22 891.601  26
  11   1  -8 4196.96 1209.45   5
  11  -1  -8 3554.56 1183.45   5
 -11  -1   8 3896.70 1106.70  16
 -11   1   8 3667.65 1137.45  16
 -11  -1   7 12425.3 1429.84  26
  11   1  -7 13605.9 2118.69   5
  11  -1  -7 12771.1 2127.35   5
 -11  -1   7 14462.9 2094.47  16
 -11   1   7 14753.1 2117.81  16
 -11  -1   6-1572.07 546.859  26
  11   1  -6-476.038 570.218   5
  11  -1  -6-266.136 797.866   5
 -11  -1   6-84.6515 481.433  16
 -11   1   6-144.900 444.663  16
 -11  -1   5 2389.88 966.869  16
 -11   1   5 2034.17 843.290  16
 -11  -1   4 381.275 526.557  16
 -11   1   4 616.045 454.264  16
 -11  -1   3-32.3429 443.832  16
 -11   1   3 13.2874 349.836  16
 -11  -1   2 28063.9 2609.08  16
 -11   1   2 27713.4 2529.27  16
 -11  -1   1 4729.34 1162.06  16
 -11   1   1 3365.59 904.807  16
 -11  -1   0 2056.35 732.087  16
 -11   1   0 1704.75 670.851  16
 -11  -1  -1 1660.12 645.400  16
  11   1   2-203.552 235.642  20
  11  -1   2-395.195 373.235  20
  11   1   3 3644.09 640.455  20
  11  -1   3 3838.43 673.605  20
  11   1   4-276.755 286.655  20
  11  -1   4 176.108 308.785  20
  11   1   5-85.9379 255.375  20
  11  -1   5 668.467 307.136  20
  11   1   6 2224.84 569.824  20
  11  -1   6 1397.66 492.286  20
  11   1   6 2481.00 1009.19   9
  11  -1   6 756.177 642.818   9
  11   1   6 226.395 437.458  13
  11  -1   6 1212.87 700.101  13
  11   1   7 74.6501 271.791  20
  11  -1   7 405.799 410.377  20
  11   1   7 213.649 465.140   9
  11  -1   7 17.3798 411.341   9
  11   1   7 343.264 503.548  13
  11   1   8 837.515 708.303   9
  11  -1   8 1263.50 740.659   9
  11   1   8 576.046 740.844  13
  11   1   9-101.883 394.743   9
  11  -1   9 658.026 628.254   9
  11   1  10 24803.4 2990.41   9
  11  -1  10 31770.8 3401.82   9
  11   1  11 7932.17 1645.72   9
  11  -1  11 10707.1 1919.25   9
  11   1  12 1610.50 502.507  24
  11  -1  12 41.2572 377.362  22
  11   1  12 755.495 588.967   9
  11  -1  12 1380.96 719.438   9
  11  -1  13 1287.40 345.106  22
  11   1  13 1258.35 370.562  22
  11  -1  14 2736.99 407.337  22
  11   1  14 1875.32 364.235  22
 -11  -2  14 43.2525 311.558  11
 -11  -2  13 584.991 464.932  11
 -11   2  13 8.61168 341.797  11
 -11  -2  13 299.076 310.272  26
 -11   2  13 463.008 264.849  26
 -11  -2  12 127.616 382.260  11
 -11   2  12 787.622 538.371  11
 -11  -2  12-34.1372 252.368  26
 -11   2  12-231.751 313.278  26
 -11  -2  11 576.670 617.714  11
 -11   2  11 522.536 575.009  11
 -11   2  11 691.107 439.010  26
 -11  -2  11 363.227 362.209  26
 -11  -2  10-477.967 569.573  11
 -11  -2  10-122.958 321.317  26
 -11  -2   9-2535.48 1016.31  11
 -11  -2   9 72.6243 325.087  26
 -11  -2   8-20.2272 298.560  26
  11  -2  -8 313.608 614.960   5
 -11  -2   8 826.922 784.975  16
 -11   2   8 687.587 576.567  16
 -11  -2   7-225.083 370.140  26
  11   2  -7-500.845 655.424   5
  11  -2  -7-414.742 836.920   5
 -11  -2   7 699.641 664.856  16
 -11   2   7 247.995 612.221  16
 -11  -2   6 262.782 301.144  26
  11   2  -6 367.910 549.972   5
  11  -2  -6 1381.56 1042.18   5
 -11  -2   6 916.296 782.850  16
 -11   2   6 1044.78 669.950  16
 -11  -2   5 5027.66 892.464  26
 -11  -2   5 6685.33 1436.75  16
 -11   2   5 6423.81 1379.79  16
 -11  -2   4 228.850 434.783  16
 -11   2   4 827.994 629.442  16
 -11  -2   3 24.6448 363.219  16
 -11   2   3 799.118 613.228  16
 -11  -2   2 8342.85 1457.87  16
 -11   2   2 8165.07 1397.69  16
 -11  -2   1 980.475 584.014  16
 -11   2   1 458.196 462.964  16
 -11  -2   0 90.6123 392.943  16
 -11   2   0-72.8848 396.696  16
 -11  -2  -1 30327.3 2575.02  16
  11   2   2 14729.2 1186.61  20
  11  -2   2 14117.6 1311.20  20
  11   2   3 7193.81 852.777  20
  11  -2   3 8272.91 1024.44  20
  11   2   4 186.126 266.380  20
  11  -2   4 507.584 418.740  20
  11   2   5 2113.18 528.644  20
  11  -2   5 2670.79 622.069  20
  11   2   5 261.954 530.096   9
  11  -2   5 2462.77 1107.67   9
  11   2   5 2182.76 836.302  13
  11   2   6 1944.25 519.864  20
  11  -2   6 2889.32 655.637  20
  11   2   6 1618.77 850.117   9
  11  -2   6 1954.49 797.753   9
  11   2   6 3000.52 977.836  13
  11  -2   6 3675.80 1104.85  13
  11  -2   7 381.303 399.801  20
  11   2   7 426.026 533.473   9
  11  -2   7-120.085 551.646   9
  11   2   7-454.677 498.447  13
  11   2   8-29.2162 491.588   9
  11  -2   8 304.270 637.693   9
  11   2   8 1612.53 802.202  13
  11   2   9 225.998 485.509   9
  11  -2   9 584.180 722.290   9
  11   2   9 802.955 574.370  13
  11   2  10 1286.27 773.756   9
  11  -2  10-120.950 468.071   9
  11   2  11 2276.82 880.847   9
  11  -2  11 401.282 542.916   9
  11   2  12 149.797 256.499  24
  11  -2  12-338.603 383.859  22
  11   2  12-902.828 608.906   9
  11  -2  12-968.771 616.840   9
  11  -2  13-10.6129 257.589  22
  11   2  13 171.510 256.352  22
  11  -2  14 205.038 291.402  22
  11   2  14-435.880 327.291  22
 -11  -3  14 544.524 392.865  11
 -11  -3  13 436.875 441.772  11
 -11   3  13 390.268 357.777  11
 -11   3  13 381.149 265.598  26
 -11  -3  12 904.738 546.208  11
 -11   3  12 566.314 534.050  11
 -11   3  12 456.633 361.608  26
 -11  -3  12 309.088 332.107  26
 -11  -3  11 70.4780 481.380  11
 -11   3  11 607.240 570.373  11
 -11  -3  11-89.0546 292.750  26
 -11   3  11 486.978 370.126  26
 -11  -3  10 2292.18 943.676  11
 -11  -3  10 1171.28 467.397  26
 -11  -3   9 6764.33 1573.33  11
 -11  -3   9 5866.38 964.423  26
 -11  -3   8-414.766 560.529  11
 -11  -3   8 542.280 415.382  26
  11  -3  -8 1355.79 778.349   5
 -11  -3   8 20.1554 776.306  16
 -11  -3   7 45051.5 2666.91  26
  11  -3  -7 43978.7 3972.47   5
 -11  -3   7 43966.5 3676.92  16
 -11   3   7 43326.3 3580.82  16
 -11  -3   6 4250.60 850.454  26
  11  -3  -6 5210.16 1334.01   5
 -11  -3   6 5036.99 1291.69  16
 -11   3   6 5207.23 1300.66  16
 -11  -3   5 17985.1 1643.07  26
  11   3  -5 21982.9 2737.42   5
  11  -3  -5 20503.8 2639.84   5
 -11  -3   5 18135.2 2334.33  16
 -11   3   5 20094.4 2339.09  16
 -11  -3   4 1161.27 694.093  16
 -11   3   4 771.166 580.764  16
 -11  -3   3 540.771 408.022  16
 -11   3   3 1426.10 722.153  16
 -11  -3   2 983.138 615.338  16
 -11   3   2-67.8025 383.005  16
 -11  -3   1-261.929 580.957  16
 -11   3   1 31.8962 357.602  16
 -11  -3   0 362.152 398.638  16
 -11   3   0 65.3937 329.218  16
  11   3   1 477.211 296.048  20
 -11  -3  -1-290.540 398.341  16
  11   3   2 513.889 283.826  20
  11  -3   2 664.939 358.266  20
  11  -3   3 76.9610 339.408  20
  11  -3   4 2546.42 618.664  20
  11  -3   5 1733.46 531.814  20
  11   3   5 2074.12 1040.98   9
  11  -3   5 838.730 673.838   9
  11   3   5 318.471 480.385  13
  11  -3   6 817.041 418.012  20
  11   3   6 263.064 646.179   9
  11  -3   6 69.3185 617.823   9
  11   3   6-247.897 408.284  13
  11  -3   7 506.054 398.852  20
  11   3   7 572.013 596.383   9
  11  -3   7 136.450 451.880   9
  11   3   7 1161.54 735.720  13
  11   3   8 5038.95 1404.85   9
  11  -3   8 4706.59 1412.61   9
  11   3   8 4479.64 1229.45  13
  11   3   9 10252.5 1974.09   9
  11  -3   9 9222.22 1916.01   9
  11   3   9 9383.38 1767.36  13
  11   3  10-515.336 581.173   9
  11  -3  10-170.512 558.806   9
  11   3  11 8055.63 1004.19  24
  11  -3  11 9879.40 904.116  22
  11   3  11 8224.15 1725.00   9
  11  -3  11 7454.55 1567.56   9
  11   3  12-639.236 376.944  24
  11  -3  12-189.373 364.943  22
  11   3  13 5531.35 733.216  24
  11  -3  13 5779.98 620.416  22
  11   3  13 6128.13 1225.38   9
  11  -3  14 942.833 346.469  22
  11   3  14-501.836 299.099  22
 -11  -4  14 1278.16 489.316  11
 -11  -4  13 131.179 380.529  11
 -11   4  13 242.859 383.717  11
 -11   4  13 497.265 279.508  26
 -11  -4  12 722.817 652.251  11
 -11   4  12 1062.35 466.270  26
 -11  -4  11 77.0726 373.879  11
 -11  -4  11-182.916 325.293  26
 -11  -4  10 6186.49 1506.46  11
 -11  -4  10 5477.93 938.747  26
 -11  -4   9 583.530 589.409  11
 -11  -4   9 100.084 294.995  26
 -11  -4   8 681.905 659.753  11
 -11  -4   8 159.442 319.013  26
  11  -4  -8 1116.24 912.004   5
 -11  -4   7-276.595 445.167  26
  11  -4  -7-425.971 593.109   5
 -11  -4   7 543.351 606.804  16
 -11   4   7-124.956 408.053  16
 -11  -4   6 446.041 419.424  26
  11  -4  -6 681.139 382.766   5
 -11  -4   6-489.607 561.108  16
 -11   4   6 66.1358 433.698  16
 -11  -4   5 383.956 346.609  26
  11  -4  -5 267.117 503.939   5
 -11  -4   5-354.474 490.419  16
 -11   4   5 221.484 546.773  16
 -11  -4   4 2100.50 803.903  16
 -11   4   4 1683.87 826.418  16
 -11  -4   3 67.9002 512.467  16
 -11   4   3 539.986 488.142  16
 -11  -4   2 18276.3 2200.63  16
 -11   4   2 19272.1 2131.08  16
 -11  -4   1 186.734 498.310  16
 -11   4   1 529.626 465.141  16
 -11  -4   0 38557.2 3040.49  16
 -11   4   0 38355.1 2802.03  16
 -11  -4  -1 4075.01 1099.16  16
  11  -4   2 89.4993 295.467  20
 -11  -4  -2 661.977 511.988  16
  11  -4   3 4145.33 775.535  20
  11  -4   4 5433.37 842.053  20
  11  -4   5 5180.62 862.717  20
  11   4   5 4073.23 1165.82   9
  11  -4   5 4631.39 1314.39   9
  11   4   5 2520.59 826.621  13
  11  -4   6 456.296 316.861  20
  11   4   6 914.541 644.308   9
  11  -4   6 574.876 520.257   9
  11   4   6 1089.46 679.476  13
  11  -4   7 1417.90 521.462  20
  11   4   7 701.054 477.175   9
  11  -4   7 1629.44 946.936   9
  11   4   7-293.331 430.613  13
  11   4   8 3184.71 1238.25   9
  11  -4   8 4007.73 1357.24   9
  11   4   8 3827.29 1281.72  13
  11   4   9 2032.39 948.786   9
  11  -4   9 1197.98 842.714   9
  11   4   9 1013.19 610.484  13
  11  -4  10-581.819 389.514  22
  11   4  10 151.857 544.500   9
  11  -4  10-287.484 482.047   9
  11   4  11-310.449 328.275  24
  11  -4  11-287.619 401.334  22
  11   4  11 207.289 515.483   9
  11  -4  11-1372.19 748.499   9
  11   4  12 102.807 255.669  24
  11  -4  12-611.017 410.347  22
  11   4  13 134.992 253.434  24
  11  -4  13 248.992 296.037  22
  11   4  13 542.117 470.569   9
  11   4  14 224.989 241.928  22
 -11  -5  13 109.723 437.268  11
 -11   5  13-171.978 254.305  26
 -11  -5  12 7601.30 1456.43  11
 -11   5  12 8062.71 1000.07  26
 -11  -5  11 524.870 575.485  11
 -11  -5  11-265.306 364.706  26
 -11  -5  10 20331.9 2666.69  11
 -11  -5  10 22860.8 1865.26  26
 -11  -5   9 550.843 606.100  11
 -11  -5   9 458.609 431.733  26
 -11  -5   8 2071.42 1002.24  11
 -11  -5   8 2529.34 720.194  26
  11  -5  -8 3212.92 1118.85   5
 -11  -5   7 135.709 316.914  26
  11  -5  -7-545.062 967.577   5
 -11  -5   7 281.073 570.997  16
 -11   5   7-21.8671 393.725  16
 -11  -5   6 55.1037 340.200  26
  11  -5  -6 317.463 567.331   5
 -11  -5   6-560.846 740.347  16
 -11   5   6-104.956 419.849  16
 -11  -5   5 1891.84 562.394  26
  11  -5  -5 1411.54 822.001   5
 -11  -5   5 1950.44 775.487  16
 -11   5   5 3320.05 1012.63  16
 -11  -5   4 19848.2 1698.09  26
  11  -5  -4 19509.7 2607.92   5
 -11  -5   4 19193.3 2397.00  16
 -11   5   4 19554.3 2316.36  16
 -11  -5   3 1375.72 714.231  16
 -11   5   3 1312.41 556.949  16
 -11  -5   2 22233.9 2492.50  16
 -11   5   2 21259.7 2267.63  16
 -11  -5   1 2463.63 921.209  16
 -11   5   1 877.326 615.442  16
 -11  -5   0 20739.7 2377.03  16
 -11  -5  -1 702.038 536.830  16
  11  -5   2 256.354 370.427  20
 -11  -5  -2-1903.22 754.740  16
  11  -5   3 29.8150 381.668  20
  11  -5   4 303.032 396.711  23
  11  -5   4 418.218 369.408  20
  11  -5   4 846.996 668.774   9
  11   5   4 750.974 557.686  13
  11  -5   5 327.023 463.354  20
  11   5   5 373.917 725.748   9
  11  -5   5 1545.52 970.843   9
  11   5   5 215.955 350.457  13
  11  -5   6-1.18898 380.813  20
  11   5   6-1319.96 831.781   9
  11  -5   6-1128.76 724.292   9
  11   5   6 140.914 400.936  13
  11  -5   7 840.055 444.180  20
  11   5   7 1141.75 728.262   9
  11  -5   7 11.3680 408.816   9
  11   5   7 1317.95 817.388  13
  11  -5   8 14981.7 2487.58   9
  11   5   8 14157.9 2455.90   9
  11   5   8 15828.8 2350.71  13
  11   5   9 2430.51 954.328   9
  11  -5   9 3707.51 1188.43   9
  11   5   9 3831.90 1148.81  13
  11   5  10 3608.93 764.141  24
  11   5  10 4110.14 1295.59   9
  11  -5  10 4329.17 1265.65   9
  11   5  11 91.8058 267.692  24
  11  -5  11-613.098 382.599  22
  11   5  11 535.424 576.666   9
  11  -5  11-504.387 532.117   9
  11   5  12-170.678 281.767  24
  11  -5  12-415.959 350.180  22
  11   5  12 296.815 583.487   9
  11   5  13 202.911 228.000  24
  11  -5  13 1421.28 406.411  22
  11   5  13 2424.84 835.890   9
  11   5  14 1899.47 346.311  22
 -11  -6  13 739.959 523.416  11
 -11   6  13 626.986 278.156  26
 -11  -6  12 794.519 672.893  11
 -11   6  12 119.677 234.530  26
 -11  -6  11-368.385 586.991  11
 -11  -6  10 6828.85 1577.61  11
 -11  -6  10 8665.68 1163.58  26
 -11  -6   9 932.318 831.278  11
 -11  -6   9 770.884 452.183  26
 -11  -6   8 868.369 743.635  11
 -11  -6   8 1277.55 510.675  26
  11  -6  -8 204.185 478.690   5
 -11  -6   7 1221.81 813.211  11
 -11  -6   7-189.997 377.944  26
  11  -6  -7-56.2418 438.409   5
 -11  -6   7 142.284 486.789  16
 -11  -6   6 3548.82 782.396  26
  11  -6  -6 3757.84 1267.43   5
 -11  -6   6 2548.34 887.955  16
 -11   6   6 4159.17 1215.21  16
 -11  -6   5-9.12861 366.485  26
  11  -6  -5 1452.78 818.441   5
 -11  -6   5 145.696 574.071  16
 -11   6   5 1309.06 673.364  16
 -11  -6   4 1188.41 530.910  26
  11  -6  -4 1835.24 737.763   5
 -11  -6   4 1316.82 682.643  16
 -11   6   4 1131.71 610.716  16
 -11  -6   3 4286.62 1215.57  16
 -11   6   3 5086.22 1230.90  16
 -11  -6   2 14484.1 2070.46  16
 -11   6   2 14550.6 1895.99  16
 -11  -6   1 9487.10 1619.10  16
 -11   6   1 11016.9 1587.66  16
 -11  -6   0 52175.3 3731.94  16
  11  -6   1 19120.9 1543.08  20
 -11  -6  -1 18400.7 2230.37  16
  11  -6   2-46.0624 306.940  20
 -11  -6  -2-161.091 510.745  16
  11  -6   3 4172.11 791.956  20
  11   6   4 25614.5 3260.45   6
  11  -6   4 20878.6 1669.00  23
  11  -6   4 24408.5 1801.27  20
  11  -6   4 23220.0 2871.89   9
  11   6   4 19413.0 2585.94   9
  11   6   4 20439.7 2557.10  13
  11  -6   5 1671.42 552.237  20
  11   6   5-318.085 768.168   9
  11   6   5 1910.83 897.970  13
  11  -6   5 1046.48 682.456   9
  11  -6   6-604.484 405.429  20
  11   6   6 603.774 482.914   9
  11  -6   6-823.761 658.874   9
  11   6   6-29.4343 341.690  13
  11  -6   7 173.937 362.429  20
  11   6   7 79.6242 466.928   9
  11  -6   7 1240.33 752.042   9
  11   6   7-128.229 436.190  13
  11   6   8 247.954 549.672   9
  11  -6   8 720.973 660.646   9
  11   6   9-396.872 603.375   9
  11  -6   9-167.493 428.472   9
  11   6  10 17.2402 299.719  24
  11   6  10 807.784 585.086   9
  11  -6  10-192.904 436.856   9
  11   6  11-614.886 362.343  24
  11   6  11 372.430 448.220   9
  11  -6  11-1307.57 705.698   9
  11   6  12-555.330 378.416  24
  11  -6  12 828.613 346.749  22
  11   6  12-166.483 530.577   9
  11   6  13-503.407 305.714  24
  11   6  13 63.0687 405.330   9
 -11  -7  13 207.748 309.925  11
 -11   7  13 141.914 264.481  26
 -11  -7  12 457.116 469.441  11
 -11  -7  11 929.825 635.756  11
 -11  -7  10 7987.62 1716.94  11
 -11  -7   9 4474.89 1309.14  11
 -11  -7   8 58.0564 461.191  11
  11  -7  -8-1133.29 735.856   5
 -11  -7   7 36225.3 3668.58  11
 -11  -7   7 37605.5 2504.54  26
  11  -7  -7 40305.6 3787.09   5
 -11  -7   6-1.51446 413.182  11
  11  -7  -6 1121.85 672.465   5
 -11  -7   6-491.518 557.621  16
 -11   7   6-169.675 476.146  16
 -11  -7   6 660.756 471.437  26
 -11  -7   5 885.997 453.334  26
  11  -7  -5 2467.20 1033.61   5
 -11  -7   5 1803.57 789.026  16
 -11   7   5 1107.79 792.050  16
 -11  -7   4 15190.3 1543.88  26
  11  -7  -4 13747.7 2207.85   5
 -11   7   4 15296.3 2130.17  16
 -11  -7   4 13422.5 2049.36  16
  11  -7  -3 5637.30 1490.32   5
 -11  -7   3 4067.35 1128.60  16
 -11   7   3 4236.42 1092.49  16
 -11  -7   2 2371.02 978.468  16
 -11   7   2 1472.55 714.463  16
 -11  -7   1-436.124 528.433  16
 -11   7   1-143.491 321.832  16
 -11  -7   0 33.2415 499.515  16
  11  -7   1 3081.77 733.836  20
 -11  -7  -1 1837.44 762.979  16
  11  -7   2 203.648 315.971  20
 -11  -7  -2-272.371 440.594  16
  11  -7   3-728.617 614.625   9
  11   7   3 908.478 632.129   6
  11  -7   3 564.885 392.029  23
  11  -7   3 1.60205 370.083  20
  11   7   3 1702.15 786.105  13
  11  -7   4 1288.19 472.441  23
  11  -7   4 904.851 367.301  20
  11   7   4 1246.31 652.813   9
  11   7   4 1975.70 859.329  13
  11  -7   4 1821.30 895.441   9
  11  -7   5-202.046 291.005  20
  11   7   5-1349.23 844.380   9
  11   7   5 564.270 715.510  13
  11  -7   5-116.006 443.774   9
  11  -7   6 885.810 399.570  20
  11   7   6 1516.14 822.533   9
  11   7   6 1332.87 792.035  13
  11  -7   6 1303.86 878.543   9
  11   7   7 276.724 534.022   9
  11   7   7 730.923 531.489  13
  11   7   8 5053.22 1566.13   9
  11  -7   8 2879.08 1026.66   9
  11   7   8 2440.16 1012.81  13
  11   7   9 2632.90 1074.50   9
  11  -7   9 2411.47 1085.00   9
  11   7  10 2404.43 678.543  24
  11   7  10 3492.74 1228.08   9
  11  -7  10 3234.90 1100.87   9
  11   7  11 6944.30 949.356  24
  11   7  11 6169.85 1458.49   9
  11   7  12-236.617 307.700  24
  11   7  12-431.093 595.724   7
  11   7  12 456.401 471.586   9
  11   7  13 989.483 312.565  24
  11   7  13 2766.32 794.752   9
 -11  -8  13 408.803 372.767  11
 -11   8  13 368.725 239.438  26
 -11  -8  12-843.604 556.560  11
 -11  -8  11-184.236 520.506  11
 -11  -8  10 167.566 416.234  11
 -11  -8   9 35.1212 577.390  11
 -11  -8   8 34.7610 448.972  11
  11  -8  -8-1282.81 780.517   5
 -11  -8   7 1729.18 906.207  11
  11  -8  -7-191.525 486.395   5
 -11  -8   6 1606.06 792.124  11
  11  -8  -6-418.293 699.414   5
 -11  -8   6 1205.84 762.342  16
 -11   8   6-105.442 548.066  16
 -11  -8   5 251.682 475.833  11
  11  -8  -5-493.580 730.641   5
 -11  -8   5 192.670 586.233  16
 -11   8   5-324.980 487.558  16
  11  -8  -4 161.138 554.591   5
 -11  -8   4 1197.78 780.138  16
 -11   8   4-257.816 530.269  16
  11  -8  -3 3283.41 1156.57   5
 -11  -8   3 5515.84 1409.94  16
 -11   8   3 3279.34 994.572  16
  11  -8  -2 6982.64 1548.32   5
 -11  -8   2 9670.52 1749.46  16
 -11   8   2 7867.08 1452.88  16
  11  -8  -1 2254.48 945.360   5
 -11  -8   1 128.823 757.223  16
 -11  -8   0-1028.85 679.234  16
  11  -8   1 32732.8 2000.25  23
  11  -8   1 39421.6 2223.79  20
 -11  -8  -1 38529.5 3413.83  16
  11  -8   2 2900.99 1117.84   9
  11  -8   2 3291.08 684.286  23
  11  -8   2 3596.35 679.395  20
 -11  -8  -2 2510.75 874.246  16
  11   8   2 2287.47 901.405  13
  11  -8   3 27196.4 1845.68  23
  11  -8   3 25833.4 1880.40  20
  11  -8   3 25622.5 3081.87   9
  11   8   3 26091.8 2937.33  13
  11  -8   4 11806.2 1263.84  23
  11  -8   4 12562.6 1338.49  20
  11   8   4 13153.5 2233.46   9
  11   8   4 8641.27 1693.00  13
  11  -8   4 14578.9 2359.85   9
  11  -8   5 4480.44 847.819  20
  11   8   5 3653.42 1327.73   9
  11   8   5 3599.02 1149.94  13
  11  -8   5 3141.80 1113.99   9
  11  -8   6 6111.69 936.582  20
  11   8   6 7279.44 1765.38   9
  11   8   6 4250.04 1227.44  13
  11  -8   6 5456.52 1491.64   9
  11   8   7 1181.22 853.672   9
  11   8   7 167.326 508.472  13
  11  -8   7-893.741 749.280   9
  11   8   8 663.900 749.282   9
  11  -8   8-1438.21 854.045   9
  11   8   9 3524.71 748.675  24
  11   8   9 3126.41 1225.86   9
  11  -8   9 2764.63 1077.55   9
  11   8  10 672.877 387.978  24
  11   8  10 1028.96 786.575   9
  11  -8  10 572.117 560.897   9
  11   8  11 87.7943 251.092  24
  11   8  11 214.270 437.950   9
  11   8  12-67.9323 258.024  24
  11   8  12-793.411 580.897   9
  11   8  12 164.439 337.934   7
  11   8  13 740.411 270.571  24
  11   8  13 240.426 322.564   9
 -11  -9  13 689.661 351.984  11
 -11   9  13 527.015 258.544  26
 -11  -9  12 1853.61 721.686  11
 -11  -9  11 1190.01 699.757  11
 -11  -9  10 2406.86 889.631  11
 -11  -9   9 2175.24 963.994  11
 -11  -9   8 510.417 624.998  11
  11  -9  -8 1727.88 798.072   5
 -11  -9   7 19914.8 2791.97  11
  11  -9  -7 19964.4 2689.58   5
 -11  -9   6 1347.44 760.885  11
  11  -9  -6 130.519 469.531   5
 -11  -9   5 1700.28 960.183  11
  11  -9  -5 2265.96 996.758   5
 -11  -9   5 1620.11 708.462  16
 -11   9   5 1296.75 895.360  16
  11  -9  -4 1568.42 840.705   5
 -11  -9   4 1060.08 636.588  16
 -11   9   4 1478.98 959.646  16
  11  -9  -3 2711.59 1207.59   5
 -11  -9   3 1730.63 884.848  16
 -11   9   3 1523.28 764.936  16
 -11  -9   2 802.472 691.878  16
  11  -9  -2 622.755 554.784   5
 -11   9   2-797.982 580.157  16
 -11  -9   1 719.795 559.357  16
  11  -9  -1-389.170 569.797   5
  11  -9   0 9793.74 1126.60  23
  11  -9   0 13065.0 1304.13  20
 -11  -9   0 10882.6 1843.74  16
  11  -9   0 9422.78 1770.20   5
  11  -9   1 62.5938 252.288  23
  11  -9   1 964.832 462.718  20
 -11  -9  -1 1606.57 777.728  16
  11  -9   1 2542.01 972.551   5
  11   9   1 43.0141 335.720  13
  11  -9   2 179.928 314.183  23
  11  -9   2-34.7539 312.465  20
  11   9   2 662.371 563.056  13
  11  -9   3 2992.34 1295.07   9
  11  -9   3 1486.43 497.302  23
  11  -9   3 2338.06 672.753  20
  11   9   3 2428.43 1225.23   9
  11   9   3 1552.46 673.924  13
  11  -9   4 53.5065 279.982  20
  11   9   4-823.104 759.482   9
  11   9   4 163.455 420.494  13
  11  -9   4 252.853 471.905   9
  11  -9   5 531.892 400.693  20
  11   9   5 1476.81 992.446   9
  11   9   5-132.948 507.375  13
  11  -9   5 345.464 537.938   9
  11   9   6 645.700 746.065   9
  11   9   6 570.194 593.037  13
  11  -9   6 157.291 529.091   9
  11   9   7 1550.12 1005.20   9
  11   9   7 1244.98 723.644  13
  11  -9   7 984.132 785.547   9
  11   9   8 3283.43 1272.08   9
  11  -9   8 3542.11 1247.11   9
  11   9   9 3034.82 699.987  24
  11   9   9 3346.17 1305.09   9
  11  -9   9 4511.87 1308.05   9
  11   9  10 687.846 419.297  24
  11   9  10-228.665 454.829   9
  11  -9  10 403.578 493.854   9
  11   9  11 11301.2 1156.67  24
  11   9  11 10088.4 1782.86   9
  11   9  12 73.5764 278.471   7
  11   9  12 436.646 244.984  24
  11   9  12 307.489 402.437   9
 -11 -10  12 467.974 433.384  11
 -11 -10  11 240.704 423.979  11
 -11 -10  10 1159.36 758.895  11
 -11 -10   9 1610.15 893.699  11
 -11 -10   8-319.642 520.919  11
  11 -10  -8-13.8292 375.245   5
 -11 -10   7 666.458 640.319  11
  11 -10  -7 597.440 618.693   5
 -11 -10   6 2511.20 1098.74  11
  11 -10  -6 1372.77 946.800   5
 -11 -10   5-104.967 508.592  11
  11 -10  -5 29.0214 492.812   5
 -11 -10   5 439.196 594.852  16
 -11 -10   4-394.311 581.745  11
  11 -10  -4-1470.21 864.891   5
 -11 -10   4-206.049 453.539  16
 -11  10   4 13.2497 384.585  16
 -11 -10   3 304.071 589.511  16
  11 -10  -3 42.0919 633.953   5
 -11  10   3 1078.91 449.735  16
 -11 -10   2 7037.20 1605.90  16
  11 -10  -2 7112.77 1673.92   5
 -11  10   2 5321.06 1218.01  16
 -11 -10   1 835.939 719.564  16
  11 -10  -1 1952.89 926.737   5
  11 -10   0 28276.1 3136.58   5
  11 -10   0 29767.5 1978.44  20
 -11 -10   0 31779.4 3253.73  16
  11 -10   1 12357.1 2373.24   8
 -11 -10  -1 10502.0 1378.40  25
  11 -10   1 10538.1 1125.47  23
  11 -10   1 11036.6 1215.36  20
  11 -10   1 10574.9 1907.05   5
  11  10   1 7204.39 1445.30  13
  11 -10   2 1346.55 889.625   8
  11 -10   2 1282.32 458.675  23
  11 -10   2 1432.60 461.218  20
  11  10   2 1945.66 790.400  13
  11 -10   3 449.131 395.543   9
  11 -10   3-547.609 629.122   8
  11 -10   3 211.877 338.151  23
  11 -10   3-57.1332 322.055  20
  11  10   3 1046.87 668.243  13
  11 -10   4 10391.8 2078.91   9
  11 -10   4 9238.80 2081.29   8
  11 -10   4 10450.8 1204.01  20
  11  10   4 10490.1 2088.44   9
  11  10   4 10382.0 1887.84  13
  11 -10   5 275.776 350.476  20
  11  10   5-849.968 722.548   9
  11  10   5 15.8177 584.792  13
  11 -10   5-17.6231 366.529   9
  11  10   6 7024.61 1806.54   9
  11  10   6 6138.45 1487.12  13
  11 -10   6 5213.43 1539.59   9
  11  10   7 3686.30 1344.78   9
  11 -10   7 2453.55 1241.46   9
  11  10   8 3545.62 765.658  24
  11  10   8 4409.15 1430.82   9
  11 -10   8 4268.55 1337.76   9
  11  10   9-143.648 337.634  24
  11  10   9 199.053 601.982   9
  11 -10   9 766.921 731.979   9
  11  10  10 652.626 371.685  24
  11  10  10-385.266 570.243   9
  11  10  11-595.580 336.758  24
  11  10  11 265.854 439.746   9
  11  10  12-132.925 357.421   7
  11  10  12-64.8662 212.901  24
  11  10  12-172.015 335.667   9
 -11 -11  12 2122.80 718.112  11
 -11 -11  11 171.295 369.106  11
 -11 -11  10 6835.73 1463.15  11
 -11 -11   9 599.679 558.991  11
 -11 -11   8 2165.32 981.051  11
  11 -11  -8 3842.81 1093.05   5
 -11 -11   7 981.360 716.032  11
  11 -11  -7 201.625 483.423   5
 -11 -11   6 19922.3 2826.62  11
  11 -11  -6 20287.3 2790.09   5
 -11 -11   5-890.292 735.383  11
  11 -11  -5 618.486 734.057   5
 -11 -11   4 4393.19 1339.94  11
  11 -11  -4 5033.93 1479.60   5
 -11 -11   3-749.196 630.775  11
 -11 -11   3 567.448 633.620  16
  11 -11  -3-763.317 725.848   5
 -11  11   3 974.716 635.192  16
 -11 -11   2 5871.40 1494.33  16
  11 -11  -2 4367.25 1340.10   5
  11 -11  -1 28.1102 374.409  20
 -11 -11   1 56.0954 589.003  16
  11 -11  -1-762.372 696.649   5
  11 -11   0 2183.10 1175.73   8
  11 -11   0 1318.69 438.858  20
  11 -11   0 159.701 465.438   5
  11 -11   1 1156.76 852.794   8
 -11 -11  -1 1799.00 686.125  25
  11 -11   1 1366.00 478.182  20
  11 -11   1 2034.47 923.951   5
  11 -11   2-1073.57 799.797   8
 -11 -11  -2-564.656 298.215  25
  11 -11   2 615.007 346.598  20
  11  11   2-544.169 537.541  13
  11 -11   3 1087.55 915.219   9
  11 -11   3-298.939 571.269   8
  11 -11   3 953.836 453.158  20
  11  11   3 1493.73 855.383  13
  11 -11   4 124.008 565.641   9
  11 -11   4-1421.89 892.463   8
  11 -11   4-278.552 308.216  20
  11  11   4-538.992 800.859   9
  11  11   4 1253.05 687.725  13
  11  11   5 475.055 598.263   9
  11  11   5 214.988 551.514  13
  11 -11   5-101.637 560.514   9
  11  11   6 1151.70 819.047   9
  11 -11   6-133.484 489.926   9
  11  11   7 3259.01 1218.71   9
  11 -11   7 1612.67 915.705   9
  11  11   8 6499.07 986.306  24
  11  11   8 4573.43 1453.31   9
  11 -11   8 6147.44 1582.69   9
  11  11   9 752.310 436.232  24
  11  11   9 375.038 601.253   9
  11 -11   9 1193.60 745.587   9
  11  11  10 10842.4 1160.86  24
  11  11  10 9675.45 1786.79   9
  11  11  11 2791.25 729.197   7
  11  11  11 3078.75 587.421  24
  11  11  11 2700.71 923.573   9
  11  11  12 850.602 437.385   7
  11  11  12 688.378 261.948  24
 -11 -12  12 4.51606 231.452  11
 -11 -12  11 11.8627 373.170  11
 -11 -12  10 1613.64 807.240  11
 -11 -12   9 1218.68 741.920  11
 -11 -12   8-190.648 561.586  11
  11 -12  -8-712.019 576.881   5
 -11 -12   7 1558.76 828.522  11
  11 -12  -7 420.886 636.596   5
 -11 -12   6-560.291 791.497  11
  11 -12  -6-57.9369 429.638   5
 -11 -12   5 534.273 644.528  11
  11 -12  -5 1524.99 807.050   5
 -11 -12   4-40.3537 538.545  11
  11 -12  -4 389.254 641.042   5
 -11 -12   3 1334.54 799.817  11
  11 -12  -3-358.383 551.168   5
  11 -12  -2 22516.7 3019.01   5
 -11 -12   2 17491.5 2503.43  16
  11 -12  -1 250.583 369.000  20
  11 -12  -1-526.966 645.421   5
  11 -12   0 13685.4 2531.96   8
 -11 -12   0 13135.0 1605.67  25
  11 -12   0 13602.8 1323.37  20
  11 -12   0 12995.0 2190.17   5
  11 -12   1 5019.68 1636.49   8
 -11 -12  -1 5069.78 1014.06  25
  11 -12   1 4242.28 768.390  20
  11 -12   1 4272.43 1275.64   5
  11 -12   2 1024.32 767.411   8
 -11 -12  -2 1055.30 522.551  25
  11 -12   2 603.588 419.812  20
  11  12   2 775.329 540.739  13
  11 -12   3 7719.82 1883.37   8
  11  12   3 6490.61 1417.54  13
  11 -12   4 52.8335 486.286   9
  11 -12   4-218.992 733.342   8
  11  12   4 292.518 627.289   9
  11  12   4 330.223 324.106  13
  11 -12   5 2055.28 929.127   8
  11  12   5 1737.17 909.293   9
  11 -12   5 2474.73 1111.51   9
  11  12   6 617.731 702.222   9
  11 -12   6 1919.54 959.310   9
  11  12   7 1006.57 775.569   9
  11 -12   7-3.53483 523.989   9
  11  12   8 1467.88 538.941  24
  11  12   8 2309.05 1053.80   9
  11 -12   8 2768.42 1092.14   9
  11  12   9 677.676 373.613  24
  11  12   9 369.717 636.486   9
  11 -12   9 1108.99 714.349   9
  11  12  10 776.653 325.090  24
  11  12  10 728.805 642.392   9
  11  12  11 1007.37 518.497   7
  11  12  11 766.845 300.442  24
  11  12  11 804.993 621.357   9
  11  12  12-10.8018 212.048   7
 -11 -13  11-254.964 339.585  11
 -11 -13  10 1175.05 697.348  11
 -11 -13   9 5645.78 1331.37  11
 -11 -13   9 4832.24 859.767  25
 -11 -13   8 1411.76 913.601  11
  11 -13  -8 36.7424 367.117   5
 -11 -13   7 21143.8 2755.67  11
  11 -13  -7 23353.0 2781.72   5
 -11 -13   6 38.0019 509.738  11
  11 -13  -6 495.403 596.807   5
 -11 -13   5 7262.77 1742.78  11
  11 -13  -5 4883.91 1420.61   5
 -11 -13   4 400.460 565.594  11
  11 -13  -4 1056.38 637.657   5
 -11 -13   3 504.849 782.775  11
  11 -13  -3-115.256 536.600   5
 -11 -13   2 1065.80 751.658  11
 -11 -13   2 352.564 322.332  25
  11 -13  -2 1083.04 764.123   5
 -11 -13   1 2152.09 726.824  25
  11 -13  -1 1975.69 962.136   5
  11 -13   0 750.559 931.100   8
 -11 -13   0 1287.28 603.803  25
  11 -13   0 1663.55 856.366   5
  11 -13   1-373.165 883.864   8
 -11 -13  -1-140.823 469.361  25
  11 -13   1 799.724 782.802   5
  11 -13   2 1912.32 1028.37   8
 -11 -13  -2 3740.35 886.444  25
  11 -13   3 1645.27 860.771   8
 -11 -13  -3 1493.12 533.966  25
  11  13   3 2282.48 888.242  13
  11 -13   4 358.732 749.315   9
  11 -13   4 962.047 715.280   8
  11  13   4-783.820 767.226   9
  11 -13   5 103.919 593.278   8
  11  13   5-283.440 605.689   9
  11 -13   5-613.662 574.810   9
  11  13   6 305.889 649.867   9
  11 -13   6 1210.21 968.341   9
  11  13   7-399.401 435.947  24
  11  13   7-98.1300 515.834   9
  11 -13   7 82.0062 663.271   9
  11  13   8 456.001 329.543  24
  11  13   8 661.228 716.690   9
  11 -13   8 1320.08 756.839   9
  11  13   9 53.0589 263.950  24
  11  13   9-133.279 458.000   9
  11 -13   9 291.542 525.509   9
  11  13  10 1226.05 464.296   7
  11  13  10 2398.52 530.505  24
  11  13  10 1565.26 799.701   9
  11  13  11 8265.76 1161.91   7
  11  13  11 9439.22 848.060  24
 -11 -14  11-187.370 303.444  11
 -11 -14  10-202.118 287.448  11
 -11 -14   9-286.442 429.844  11
 -11 -14   9 331.217 281.538  25
 -11 -14   8-527.002 633.598  11
 -11 -14   8-275.468 289.193  25
  11 -14  -8 486.276 558.058   5
 -11 -14   7 157.885 398.747  11
 -11 -14   7-103.166 320.893  25
  11 -14  -7 469.539 534.113   5
 -11 -14   6 119.285 465.997  11
 -11 -14   6 484.047 363.432  25
  11 -14  -6 1024.70 755.995   5
 -11 -14   5 62.9843 412.610  11
 -11 -14   5 45.0661 395.372  25
  11 -14  -5-447.025 604.708   5
 -11 -14   4 1522.30 901.281  11
 -11 -14   4 1967.14 672.444  25
 -11 -14   3 2039.67 947.370  11
 -11 -14   3 962.048 493.981  25
  11 -14  -3 382.525 655.392   5
 -11 -14   2 603.354 599.648  11
 -11 -14   2 1189.04 578.353  25
  11 -14  -2 735.153 669.500   5
 -11 -14   1 108.636 450.174  11
 -11 -14   1 109.431 283.158  25
  11 -14  -1-643.223 641.276   5
  11 -14   0-600.030 697.029   8
 -11 -14   0 162.417 368.853  25
  11 -14   0-942.524 704.699   5
  11 -14   1 6350.78 1729.13   8
 -11 -14  -1 4943.42 946.365  25
  11 -14   1 5218.12 1356.16   5
  11 -14   2 592.394 750.902   8
 -11 -14  -2 355.784 356.142  25
  11 -14   3 2957.41 1301.83   8
 -11 -14  -3 4082.01 859.777  25
  11 -14   4 7085.64 1811.20   9
  11 -14   4 6657.33 1697.35   8
  11  14   4 7708.32 1788.34   9
  11 -14   5-644.322 673.033   8
  11  14   5 1222.93 816.996   9
  11 -14   5 1548.94 924.294   9
  11  14   6 2560.83 1127.41   9
  11 -14   6 1628.35 995.685   9
  11  14   7 515.974 288.543  24
  11  14   7 104.950 616.432   9
  11 -14   7 1257.11 772.436   9
  11  14   8 98.6354 239.498  24
  11  14   8 354.887 500.843   9
  11 -14   8 799.424 586.894   9
  11  14   9 257.714 355.235   7
  11  14   9 965.831 408.175  24
  11  14   9 100.742 482.034   9
  11  14  10 1344.95 548.373   7
  11  14  10 1235.98 377.853  24
  11  14  11-608.028 353.213   7
 -11 -15  10 1619.21 642.468  11
 -11 -15   9 1832.47 741.803  11
 -11 -15   9 1696.38 445.254  25
 -11 -15   8 1095.00 704.224  11
 -11 -15   8 1026.61 422.496  25
  11 -15  -8 2141.01 832.799   5
 -11 -15   7 8121.08 1658.18  11
 -11 -15   7 7797.67 1101.03  25
  11 -15  -7 7607.19 1525.80   5
 -11 -15   6 1920.28 890.593  11
 -11 -15   6 1428.81 583.058  25
  11 -15  -6 590.619 581.098   5
 -11 -15   5 1880.61 838.213  11
 -11 -15   5 2083.98 703.395  25
  11 -15  -5 1783.70 840.212   5
 -11 -15   4 10798.2 2023.46  11
 -11 -15   4 9620.61 1357.27  25
  11 -15  -4 7969.82 1758.11   5
 -11 -15   3 1266.69 801.325  11
 -11 -15   3 487.676 337.846  25
  11 -15  -3 1.61403 497.035   5
 -11 -15   2 1937.76 905.845  11
 -11 -15   2 3869.72 887.624  25
  11 -15  -2 3238.53 1198.70   5
 -11 -15   1 740.700 507.988  25
  11 -15  -1 185.387 679.622   5
  11 -15   0-517.937 921.578   8
 -11 -15   0 128.695 359.032  25
  11 -15   0 35.2696 400.212   5
  11 -15   1-218.738 715.083   8
 -11 -15  -1-91.3713 338.456  25
  11 -15   1 218.299 580.502   5
  11 -15   2 428.441 473.680   8
 -11 -15  -2-571.879 484.568  25
  11 -15   3 461.023 601.340   8
  11 -15   4 743.747 676.930   9
  11 -15   4-604.706 639.203   8
  11 -15   5 73.6423 437.385   8
  11  15   5 313.641 693.880   9
  11 -15   5 110.761 462.850   9
  11  15   6 690.783 594.549   9
  11 -15   6 1974.05 897.778   9
  11  15   7-116.582 268.830  24
  11  15   7-533.320 619.648   9
  11 -15   7-680.869 438.937   9
  11  15   8 1683.28 452.466  24
  11 -15   8 1569.62 757.423   9
  11  15   9 1128.33 571.171   7
  11  15   9 1989.51 440.783  24
  11  15  10-169.042 257.738   7
  11  15  10 636.529 265.735  24
 -11 -16   9-245.043 350.142  11
 -11 -16   8 505.094 441.897  11
 -11 -16   8 665.518 348.092  25
  11 -16  -8-96.0355 315.011   5
 -11 -16   7 23.4737 417.059  11
 -11 -16   7-239.213 227.366  25
  11 -16  -7 822.001 648.068   5
 -11 -16   6-664.449 561.124  11
 -11 -16   6 94.6158 251.430  25
  11 -16  -6 17.9836 370.650   5
 -11 -16   5 515.041 565.478  11
 -11 -16   5 210.776 359.074  25
  11 -16  -5-343.114 453.519   5
 -11 -16   4 4072.72 1235.35  11
 -11 -16   4 3174.53 796.102  25
  11 -16  -4 2478.83 983.151   5
 -11 -16   3 866.143 711.544  11
 -11 -16   3 579.694 365.287  25
  11 -16  -3 380.003 594.807   5
 -11 -16   2 1195.58 513.320  25
  11 -16  -2 1546.70 817.165   5
 -11 -16   1 108.551 273.608  25
  11 -16  -1-96.9181 408.783   5
  11 -16   0 11401.3 2230.15   8
 -11 -16   0 11460.3 1446.75  25
  11 -16   0 12446.2 2070.76   5
  11 -16   1 196.749 758.636   8
 -11 -16  -1-160.875 354.757  25
  11 -16   1-73.6743 447.654   5
  11 -16   2-927.895 761.731   8
 -11 -16  -2 154.369 298.606  25
  11 -16   3 168.252 733.301   9
  11 -16   3-1867.20 964.202   8
  11 -16   4 2003.55 1074.26   9
  11 -16   4 1228.28 767.328   8
  11 -16   5-178.708 503.866   9
  11 -16   6 2985.02 1128.22   9
  11  16   7-197.021 438.875   7
  11  16   7-200.083 285.190  24
  11 -16   7-1066.87 661.526   9
  11  16   8 850.771 502.693   7
  11  16   8 570.147 261.688  24
  11  16   9 130.801 268.297   7
  11  16   9 197.233 224.198  24
 -11 -17   9 306.343 344.989  11
 -11 -17   8 2682.52 850.113  11
 -11 -17   8 1577.85 452.246  25
  11 -17  -8 2314.82 701.232   5
 -11 -17   7 8139.48 1525.70  11
 -11 -17   7 7255.97 947.431  25
  11 -17  -7 5567.06 1189.43   5
 -11 -17   6 64.6142 466.993  11
 -11 -17   6-358.350 374.309  25
  11 -17  -6 735.608 568.457   5
 -11 -17   5 3051.10 1036.07  11
 -11 -17   5 3177.21 739.444  25
  11 -17  -5 3869.64 1108.26   5
 -11 -17   4 3361.26 1111.44  11
 -11 -17   4 4805.38 911.719  25
  11 -17  -4 4775.87 1289.76   5
 -11 -17   3 413.869 358.466  25
  11 -17  -3 941.960 596.727   5
 -11 -17   2-459.726 427.236  25
  11 -17  -2-136.290 451.050   5
 -11 -17   1-19.0924 359.851  25
  11 -17  -1 202.107 395.498   5
 -11 -17   0 3117.78 808.653  25
  11 -17   0 2714.67 1083.01   5
  11 -17   1-652.042 630.235   8
 -11 -17  -1-179.192 281.734  25
  11 -17   1 71.0333 424.158   5
  11 -17   2-494.972 578.277   8
  11 -17   3-25.6656 562.779   9
  11 -17   3-547.641 600.191   8
  11 -17   4-1298.85 790.653   8
  11 -17   4 667.697 729.076   9
  11 -17   5 595.811 536.759   9
  11  17   6-256.456 305.020  24
  11  17   6-230.856 313.984   7
  11  17   7 122.306 430.868   7
  11  17   7 525.197 309.054  24
  11 -17   7-392.311 432.284   9
  11  17   8 3223.40 745.370   7
  11  17   8 4581.19 596.509  24
 -11 -18   8-142.847 268.485  11
 -11 -18   7-530.382 282.708  25
  11 -18  -7-156.804 292.173   5
 -11 -18   6-35.4490 373.318  11
 -11 -18   6 267.507 245.313  25
  11 -18  -6 496.276 448.667   5
 -11 -18   5 2353.08 599.114  25
  11 -18  -5 2515.24 839.813   5
 -11 -18   4 718.338 370.858  25
  11 -18  -4 269.246 409.645   5
 -11 -18   3 3430.37 730.638  25
  11 -18  -3 1644.68 811.290   5
 -11 -18   2 551.723 402.971  25
  11 -18  -2 308.014 416.908   5
 -11 -18   1 88.7798 280.225  25
  11 -18  -1-234.469 440.738   5
 -11 -18   0 3841.20 794.066  25
  11 -18   0 2615.78 916.495   5
  11 -18   1 3725.67 1059.26   5
  11 -18   2-1882.75 884.312   8
  11 -18   3 4317.12 1292.21   9
  11 -18   3 2613.61 1027.17   8
  11 -18   4-56.0259 377.000   9
  11 -18   5-1564.33 768.748   9
  11  18   6-114.030 181.856  24
  11 -18   6 501.330 457.535   9
  11  18   7 1193.06 539.766   7
  11  18   7 1403.41 356.713  24
  11 -18   7 2038.47 689.993   9
 -11 -19   6-584.244 349.430  25
  11 -19  -6-109.658 332.362   5
 -11 -19   5 6457.76 868.172  25
  11 -19  -5 5600.59 1170.22   5
 -11 -19   4-214.612 317.076  25
  11 -19  -4-133.983 426.475   5
 -11 -19   3 1056.46 392.415  25
  11 -19  -3 501.934 489.674   5
 -11 -19   2 69.9682 272.343  25
  11 -19  -2 653.346 492.525   5
  11 -19  -1 603.518 441.444   5
  11 -19   0 599.517 456.213   5
  11 -19   1 460.154 339.626   5
  11 -19   2 375.344 548.616   9
  11 -19   3 1068.12 737.933   9
  11 -19   4 1155.38 698.138   9
  11 -19   5-309.659 420.419   9
  11 -19   6-732.511 480.425   9
  11 -20  -6 65.9581 230.424   5
  11 -20  -5 143.318 278.751   5
  11 -20  -4 70.5693 303.734   5
  11 -20  -3-418.699 509.051   5
  11 -20  -2-324.416 482.989   5
  11 -20  -1 257.423 340.489   5
  11 -20   0 2762.32 820.480   5
  11 -20   1 124.331 318.071   5
  11 -20   2-193.076 323.536   9
  11 -20   3 882.630 543.309   9
  11 -20   4 874.784 508.906   9
  11 -20   5 1256.18 594.561   9
  11 -21  -4-551.357 514.502   5
  11 -21  -3 74.3717 389.147   5
  11 -21  -2 338.063 440.919   5
  11 -21  -1 97.3089 356.908   5
  11 -21   0 328.336 333.768   5
  11 -21   1 1293.52 612.128   9
  11 -21   2-111.270 326.438   9
  11 -21   3 753.332 448.750   9
  11 -22  -1 12.2648 239.698   9
  11 -22   0 1032.30 572.707   9
  11 -22   1 1768.76 593.562   9
 -12   0  13 827.715 468.350  11
 -12   0  13 670.361 333.836  26
 -12   0  12 1230.51 609.283  11
 -12   0  12 336.444 268.079  26
 -12   0  11-300.934 304.798  26
 -12   0  10 1871.55 576.999  26
 -12   0   9 267.377 319.177  26
  12   0  -8 11517.9 2000.71   5
 -12   0   8 10459.7 1315.35  26
 -12   0   7-269.430 402.028  26
  12   0  -7-371.822 558.321   5
 -12   0   7 545.626 407.179  16
 -12   0   6 23666.7 1919.50  26
  12   0  -6 23792.7 2995.26   5
 -12   0   6 22286.5 2622.36  16
 -12   0   5 268.311 269.740  26
  12   0  -5-275.763 750.195   5
 -12   0   5-155.002 558.151  16
 -12   0   4 3880.96 796.387  26
  12   0  -4 4329.75 1243.82   5
 -12   0   4 2997.31 1031.98  16
  12   0  -3-497.051 660.883   5
 -12   0   3-774.806 548.882  16
 -12   0   2-280.542 510.367  16
 -12   0   1-314.439 467.444  16
 -12   0   0 1745.47 795.165  16
  12   0   2 127.650 279.865  20
  12   0   3 1176.70 410.672  20
  12   0   4 3919.27 757.971  23
  12   0   4 4292.49 788.815  20
  12   0   4 4092.75 1260.13   9
  12   0   5 669.912 739.305   6
  12   0   5 138.251 288.600  20
  12   0   5 25.1299 532.982   9
  12   0   6 3820.05 1275.93   6
  12   0   6 4713.24 799.248  20
  12   0   6 3643.21 1245.99   9
  12   0   6 4242.36 1199.52  13
  12   0   7-169.048 321.064  20
  12   0   7 693.958 613.658   9
  12   0   7 381.320 537.872  13
  12   0   8 490.799 648.163   9
  12   0   8 1722.86 793.222  13
  12   0   9 514.335 534.518   9
  12   0  10 7277.75 1618.16   9
  12   0  11-284.117 381.435   9
  12   0  12 4159.66 544.814  22
  12   0  12 3736.67 1063.36   9
  12   0  13-564.744 297.983  22
 -12  -1  13-1005.71 498.071  11
 -12   1  13 478.741 277.932  26
 -12  -1  12 130.294 443.131  11
 -12  -1  12 284.433 291.401  26
 -12   1  12 469.107 320.485  26
 -12  -1  11-93.6278 371.397  11
 -12  -1  11 198.002 291.187  26
 -12  -1  10-125.630 279.175  26
 -12   1  10 166.928 297.097  26
 -12  -1   9-83.5418 296.848  26
 -12   1   9 91.4189 370.186  26
 -12   1   8 106.470 304.935  26
 -12  -1   8-279.800 306.395  26
  12  -1  -8-203.768 848.738   5
 -12  -1   7-33.3534 370.460  26
  12   1  -7 189.980 466.201   5
  12  -1  -7-819.440 660.678   5
 -12  -1   7 446.366 406.068  16
 -12   1   7-1025.54 658.867  16
 -12  -1   6 2741.57 734.345  26
  12   1  -6 479.844 609.412   5
  12  -1  -6 3301.08 1304.41   5
 -12  -1   6 1827.05 783.381  16
 -12   1   6 2149.82 963.068  16
 -12  -1   5 643.858 361.853  26
  12   1  -5 1560.60 936.922   5
  12  -1  -5 104.781 477.249   5
 -12  -1   5 637.719 576.850  16
 -12   1   5 547.336 566.423  16
 -12  -1   4 1712.17 529.881  26
  12   1  -4 1756.67 881.211   5
  12  -1  -4-159.340 462.533   5
 -12  -1   4 2582.38 957.307  16
 -12   1   4 1722.53 776.390  16
  12   1  -3 6807.66 1535.40   5
  12  -1  -3 6500.21 1394.70   5
 -12  -1   3 7399.23 1616.25  16
 -12   1   3 7304.20 1472.40  16
 -12  -1   2 377.643 392.486  16
 -12   1   2-267.391 410.322  16
 -12  -1   1 43246.2 3298.66  16
 -12   1   1 42350.1 3213.76  16
 -12  -1   0 1862.87 625.006  16
 -12   1   0 2061.95 745.354  16
  12   1   1 5952.15 862.382  20
  12   1   2 32798.0 1906.74  20
  12  -1   2 38375.2 2204.39  20
  12  -1   3-555.244 418.720  23
  12   1   3-91.4367 290.476  20
  12  -1   3-47.0829 276.612  20
  12   1   4 6460.58 934.559  23
  12  -1   4 6974.52 1029.27  23
  12   1   4 9287.49 2143.20   6
  12   1   4 7655.82 1006.33  20
  12  -1   4 6941.13 992.118  20
  12   1   4 6585.09 1510.79   9
  12  -1   4 8418.08 1737.84   9
  12   1   5 192.306 240.538  20
  12  -1   5 599.025 325.781  20
  12   1   5-11.0606 422.344   9
  12  -1   5-995.556 690.055   9
  12   1   5-1162.36 839.934   6
  12   1   5 134.912 443.638  13
  12   1   6 1593.72 439.012  20
  12  -1   6 2112.71 615.106  20
  12   1   6 1980.38 921.492   9
  12  -1   6 2125.72 897.257   9
  12   1   6 1747.22 832.996  13
  12  -1   6 1879.13 856.945  13
  12   1   7 634.255 726.127   9
  12  -1   7-1069.28 708.752   9
  12   1   7 505.936 510.528  13
  12  -1   7-396.778 496.012  13
  12   1   8 25.6650 391.993   9
  12  -1   8 818.750 770.774   9
  12   1   8 409.822 483.868  13
  12   1   9 895.379 692.950   9
  12  -1   9 970.824 618.530   9
  12   1   9 1226.07 695.220  13
  12   1  10-463.765 567.646   9
  12  -1  10-822.904 659.284   9
  12   1  11-901.863 635.507   9
  12  -1  11-359.078 653.697   9
  12  -1  12-456.714 314.364  22
  12   1  12 211.469 393.955   9
  12  -1  12-86.4275 491.784   9
  12  -1  13 310.190 226.678  22
  12   1  13 463.281 260.294  22
  12   1  13 483.698 430.303   9
 -12  -2  13 1356.68 562.588  11
 -12   2  13 1227.01 336.164  26
 -12  -2  12 131.614 392.622  11
 -12  -2  12-104.703 274.723  26
 -12   2  12 46.3964 221.321  26
 -12  -2  11 4664.32 1202.16  11
 -12  -2  11 5936.40 942.300  26
 -12   2  11 5155.76 821.397  26
 -12  -2  10-472.911 511.749  11
 -12  -2  10 119.360 258.950  26
 -12   2  10 722.535 398.237  26
 -12   2   9 6991.93 1077.34  26
 -12  -2   9 5411.47 944.162  26
 -12  -2   8 11270.8 1365.11  26
  12  -2  -8 10121.5 1894.36   5
 -12  -2   7 509.636 384.718  26
  12  -2  -7 365.965 395.892   5
 -12  -2   6 256.862 412.704  26
  12   2  -6-1195.60 809.219   5
  12  -2  -6 1654.84 1674.23   5
 -12  -2   6 227.949 508.681  16
 -12   2   6 853.209 614.907  16
 -12  -2   5 266.105 286.899  26
  12   2  -5-177.348 511.568   5
  12  -2  -5 1226.91 898.326   5
 -12  -2   5 60.5002 479.385  16
 -12   2   5 885.274 569.641  16
  12   2  -4-560.562 837.552   5
  12  -2  -4 18.1493 417.201   5
 -12  -2   4 346.085 399.405  16
 -12   2   4 229.943 388.087  16
 -12  -2   4 134.218 261.412  26
  12   2  -3 4394.54 1363.93   5
  12  -2  -3 4559.92 1272.22   5
 -12  -2   3 5105.56 1296.54  16
 -12   2   3 4542.03 1149.58  16
 -12  -2   2 70.6534 350.716  16
 -12   2   2-578.800 703.665  16
 -12  -2   1 15717.6 2040.93  16
 -12   2   1 14540.7 1920.43  16
 -12  -2   0 1062.08 671.864  16
 -12   2   0 729.539 497.869  16
  12   2   1 1274.89 409.858  20
 -12  -2  -1 1288.99 598.667  16
  12   2   2 326.082 298.150  20
  12  -2   2 289.496 322.982  20
  12   2   3 1155.86 906.001   6
  12  -2   3 181.981 283.366  23
  12   2   3 372.320 294.701  20
  12  -2   3 204.484 338.369  20
  12  -2   3-132.184 428.126   9
  12   2   4 195.115 614.979   6
  12   2   4 408.040 284.277  23
  12  -2   4-223.363 335.644  23
  12   2   4 56.6725 270.337  20
  12  -2   4 394.404 334.559  20
  12   2   4-163.378 477.479   9
  12  -2   4 515.550 718.199   9
  12   2   5 731.863 722.368   6
  12  -2   5-285.247 410.948  20
  12   2   5-1195.64 751.198   9
  12  -2   5-1416.86 812.689   9
  12   2   5-1659.60 788.318  13
  12  -2   6-63.6855 296.501  20
  12   2   6-77.8917 464.716   9
  12  -2   6 866.950 445.813   9
  12   2   6-975.072 637.139  13
  12  -2   6-971.384 677.358  13
  12   2   7 2250.59 1094.04   9
  12  -2   7 3284.95 1164.17   9
  12   2   7 3056.05 1091.91  13
  12   2   8 1114.52 805.624   9
  12  -2   8 277.945 478.037   9
  12   2   8 576.331 544.638  13
  12  -2   9 14332.7 2312.19   9
  12   2   9 13778.7 2288.16   9
  12   2   9 15078.9 2214.03  13
  12   2  10 827.122 641.654   9
  12  -2  10 1633.31 902.180   9
  12  -2  11 1107.84 334.717  22
  12   2  11 1266.86 718.558   9
  12  -2  11 2369.57 896.855   9
  12  -2  12 189.201 292.829  22
  12   2  12 788.754 536.087   9
  12  -2  12 672.365 565.528   9
  12  -2  13-249.865 248.177  22
  12   2  13 83.7315 269.274  22
 -12  -3  13 805.752 452.797  11
 -12   3  13 232.918 167.651  26
 -12  -3  12-125.806 394.593  11
 -12  -3  12 511.589 303.173  26
 -12   3  12 435.890 320.401  26
 -12  -3  11 3380.67 945.533  11
 -12  -3  11 4677.13 785.747  26
 -12   3  11 3385.57 707.178  26
 -12  -3  10-256.560 634.247  11
 -12  -3  10 62.0949 260.953  26
 -12   3  10 440.398 376.674  26
 -12  -3   9-67.4887 379.109  26
 -12  -3   8-410.485 434.066  26
  12  -3  -8-1525.94 821.410   5
 -12  -3   7 337.465 396.188  26
  12  -3  -7 70.9442 595.154   5
 -12  -3   6-211.396 442.407  26
  12  -3  -6 324.480 542.629   5
 -12  -3   6 304.905 449.135  16
 -12   3   6-221.909 467.384  16
 -12  -3   5-90.6836 307.025  26
  12  -3  -5-108.976 738.425   5
 -12  -3   5 1409.39 748.103  16
 -12   3   5 193.987 352.284  16
 -12  -3   4 505.951 383.482  26
  12   3  -4 1260.19 825.414   5
  12  -3  -4-62.0347 465.944   5
 -12  -3   4 373.781 494.093  16
 -12   3   4 1080.74 548.978  16
 -12  -3   3 10748.6 1271.18  26
  12   3  -3 13091.3 2370.55   6
  12   3  -3 12712.3 2134.90   5
  12  -3  -3 10767.5 1973.46   5
 -12  -3   3 8920.09 1625.77  16
 -12   3   3 11086.8 1722.05  16
 -12  -3   2 873.822 628.319  16
 -12   3   2 1163.62 721.432  16
 -12  -3   1 68538.5 4286.19  16
 -12   3   1 68262.4 4024.23  16
 -12  -3   0 7545.14 1409.48  16
 -12  -3  -1 40968.8 3223.98  16
  12  -3   2 532.258 258.178  23
  12  -3   2 330.331 394.841  20
  12  -3   3 519.361 357.793  23
  12  -3   3 1058.41 464.310  20
  12   3   3 736.677 557.103   9
  12  -3   3 1344.91 778.288   9
  12   3   4-260.248 288.461  23
  12  -3   4 444.609 350.024  23
  12  -3   4 182.171 307.081  20
  12   3   4 410.511 575.834   9
  12   3   5 792.973 823.041   6
  12  -3   5 1463.47 537.516  20
  12   3   5 275.518 535.773   9
  12  -3   5 1322.99 787.346   9
  12   3   5-605.084 552.827  13
  12  -3   6 68.2402 345.740  20
  12   3   6-422.030 557.162   9
  12  -3   6 100.679 465.815   9
  12   3   6-516.828 505.569  13
  12   3   7-864.124 703.571   9
  12  -3   7 397.409 598.811   9
  12   3   7 679.903 588.578  13
  12   3   8 2305.11 1043.73   9
  12  -3   8 2135.51 959.375   9
  12   3   8 2482.33 951.653  13
  12   3   9 4233.82 1342.94   9
  12  -3   9 4910.95 1450.09   9
  12   3   9 3308.62 1151.70  13
  12   3  10 239.506 493.470   9
  12  -3  10-558.784 555.957   9
  12  -3  11 84.7761 287.848  22
  12   3  11 467.735 428.090   9
  12  -3  11 997.723 573.687   9
  12  -3  12-410.410 354.937  22
  12   3  12 188.161 589.339   9
  12  -3  12 340.099 420.484   9
  12  -3  13-447.556 243.457  22
  12   3  13-138.887 316.068  22
  12   3  13 425.123 355.932   9
 -12  -4  13 2044.24 658.301  11
 -12   4  13 1568.12 377.265  26
 -12  -4  12 1345.96 614.294  11
 -12   4  12 852.147 336.267  26
 -12  -4  11 11197.2 1797.05  11
 -12  -4  11 14112.7 1342.95  26
 -12   4  11 13395.5 1302.16  26
 -12  -4  10 2242.63 937.584  11
 -12  -4  10 3180.00 737.049  26
 -12  -4   9 5130.80 1399.90  11
 -12  -4   9 4334.19 857.622  26
 -12  -4   8 2632.91 646.268  26
  12  -4  -8 3409.10 1194.25   5
 -12  -4   7 487.664 450.520  26
  12  -4  -7-989.283 686.744   5
 -12  -4   6 29124.8 2169.72  26
  12  -4  -6 31438.9 3381.11   5
 -12  -4   6 31944.1 3265.30  16
 -12   4   6 29306.3 3002.95  16
 -12  -4   5 11.8259 284.800  26
  12  -4  -5 76.9269 468.059   5
 -12  -4   5 1385.88 821.115  16
 -12   4   5 572.322 520.222  16
  12  -4  -4 3536.95 1212.04   5
 -12  -4   4 2862.15 919.759  16
 -12   4   4 3764.80 1208.44  16
 -12  -4   4 4909.71 877.311  26
 -12  -4   3 5453.66 912.688  26
  12   4  -3 6445.57 1619.77   6
  12  -4  -3 4801.62 1337.14   5
 -12  -4   3 5215.84 1299.73  16
 -12   4   3 5204.28 1251.52  16
  12  -4  -2 471.020 595.744   5
 -12  -4   2 309.921 423.013  16
 -12   4   2-30.5628 474.468  16
 -12  -4   1 6295.55 1357.36  16
 -12   4   1 6693.22 1229.68  16
 -12  -4   0-314.223 459.778  16
  12   4   1 2973.77 1330.46   6
  12  -4   1 2308.75 653.139  23
  12  -4   1 3217.74 755.589  20
 -12  -4  -1 1861.18 790.488  16
  12   4   2 794.718 930.658   6
  12  -4   2 166.921 323.271  23
  12  -4   2 388.421 404.288  20
  12   4   3-369.160 641.821   6
  12  -4   3 188.833 319.272  23
  12  -4   3-496.530 386.119  20
  12  -4   3-1190.85 745.946   9
  12   4   4 471.540 698.027   6
  12  -4   4 1055.60 468.732  23
  12  -4   4 1238.64 515.457  20
  12   4   4 951.670 570.915   9
  12  -4   4 2483.86 991.324   9
  12   4   4 1202.90 704.597  13
  12   4   5-1654.26 930.281   6
  12  -4   5-14.7319 422.896  20
  12   4   5 95.2465 435.827   9
  12  -4   5-1904.47 907.370   9
  12   4   5 416.059 545.514  13
  12  -4   6 2867.15 685.538  20
  12   4   6 4490.97 1327.94   9
  12  -4   6 2518.95 1169.11   9
  12   4   6 2980.02 977.651  13
  12  -4   7 608.281 797.470   9
  12   4   7 173.331 450.766  13
  12   4   8 2280.43 970.124   9
  12  -4   8 946.522 777.882   9
  12   4   8 1265.47 829.066  13
  12   4   9 16329.9 2512.24   9
  12  -4   9 18023.1 2585.79   9
  12   4   9 15683.8 2256.40  13
  12   4  10 69.5475 456.197   9
  12  -4  10 736.497 642.679   9
  12   4  11 1162.28 679.337   9
  12  -4  11 1573.36 715.059   9
  12  -4  12 4158.78 551.082  22
  12   4  12 3373.79 994.722   9
  12  -4  12 2538.11 826.877   9
  12   4  13-388.755 354.048  22
  12   4  13 737.561 455.867   9
 -12  -5  13 283.549 337.419  11
 -12   5  13 897.448 308.186  26
 -12  -5  12 432.048 349.953  11
 -12   5  12 998.005 369.871  26
 -12  -5  11 667.568 553.704  11
 -12   5  11-137.005 265.767  26
 -12  -5  10-575.323 569.337  11
 -12  -5  10 1574.29 511.132  26
 -12  -5   9-800.467 633.772  11
 -12  -5   9-400.311 381.275  26
  12  -5  -9 329.946 485.017   5
 -12  -5   8 215.748 281.587  26
  12  -5  -8-524.307 578.031   5
 -12  -5   7-53.4403 276.191  26
  12  -5  -7 622.471 455.317   5
 -12  -5   6 1762.95 561.381  26
  12  -5  -6 523.074 743.687   5
 -12  -5   6 1838.19 936.733  16
 -12   5   6 2766.04 1069.61  16
 -12  -5   5-477.451 355.714  26
  12  -5  -5 10.8390 401.176   5
 -12  -5   5 1325.52 895.262  16
 -12   5   5 932.062 787.714  16
 -12  -5   4 1321.95 515.451  26
  12  -5  -4 1451.84 919.590   5
 -12  -5   4 1248.95 827.679  16
 -12   5   4 1211.19 657.470  16
 -12  -5   3 321.914 350.225  26
  12  -5  -3 1803.99 1023.94   5
 -12  -5   3 310.097 648.412  16
 -12   5   3 787.001 636.287  16
 -12  -5   2 372.639 396.108  26
  12   5  -2 1956.85 1212.11   6
  12  -5  -2 566.463 601.315   5
 -12  -5   2 614.490 495.132  16
 -12   5   2 169.538 595.975  16
  12   5  -1 1675.04 940.529   6
  12  -5  -1 1309.04 749.666   5
 -12  -5   1 1506.98 606.765  16
 -12   5   1 1418.49 703.163  16
  12   5   0 2719.58 1095.02   6
 -12  -5   0 2595.15 815.666  16
  12   5   1 1052.50 872.606   6
  12  -5   1-184.710 282.744  23
  12  -5   1 11.5821 319.474  20
 -12  -5  -1 762.865 587.720  16
  12   5   2 42116.3 4261.57   6
  12  -5   2 34625.1 2169.48  23
  12  -5   2 44850.6 2491.23  20
  12  -5   2 34420.9 3425.23   9
  12   5   3 2181.37 1166.91   6
  12  -5   3 1695.02 595.313  23
  12  -5   3 2021.67 611.703  20
  12   5   3 1360.44 825.003   9
  12  -5   3 1497.59 783.154   9
  12   5   3 1780.07 826.222  13
  12   5   4 24926.8 3254.29   6
  12  -5   4 22855.9 1860.29  23
  12  -5   4 27440.2 2018.77  20
  12   5   4 26183.0 3123.60   9
  12  -5   4 29712.5 3306.98   9
  12   5   4 24801.7 2844.63  13
  12   5   5 2327.74 1194.53   6
  12  -5   5 5654.34 947.129  20
  12   5   5 3989.05 1304.61   9
  12  -5   5 5323.46 1464.76   9
  12   5   5 3209.27 1094.77  13
  12  -5   6 7515.40 1091.43  20
  12   5   6 7937.10 1796.95   9
  12  -5   6 5891.96 1526.59   9
  12   5   6 5970.00 1455.66  13
  12   5   7-320.270 764.165   9
  12  -5   7 192.348 487.918   9
  12   5   7 695.828 557.839  13
  12   5   8 225.541 527.792   9
  12  -5   8 422.434 493.075   9
  12   5   8 1166.01 643.830  13
  12   5   9 472.368 531.810   9
  12  -5   9 262.531 541.224   9
  12   5  10-824.610 786.721   9
  12  -5  10 391.457 589.769   9
  12   5  11 573.298 665.291   9
  12  -5  11 418.894 584.653   9
  12   5  12-55.8194 415.547   9
  12   5  13-1075.88 509.280   9
 -12   6  13-165.621 253.791  26
 -12  -6  12 953.306 526.007  11
 -12   6  12 543.291 346.033  26
 -12  -6  11 4514.15 1152.78  11
 -12  -6  10 1100.29 721.728  11
 -12  -6   9 561.837 583.002  11
 -12  -6   9-150.303 341.111  26
  12  -6  -9 476.203 517.615   5
 -12  -6   8 16200.6 2362.93  11
 -12  -6   8 14161.3 1537.05  26
  12  -6  -8 12335.4 2012.77   5
 -12  -6   7 711.281 483.680  26
  12  -6  -7 586.111 512.866   5
 -12  -6   6 26124.5 2080.53  26
  12  -6  -6 28173.4 3231.10   5
 -12  -6   5 8958.44 1247.47  26
  12  -6  -5 6854.53 1637.02   5
 -12  -6   5 10879.5 1924.70  16
 -12   6   5 10924.8 1870.93  16
 -12  -6   4 905.907 435.719  26
  12  -6  -4 71.5932 599.390   5
 -12  -6   4 783.680 644.421  16
 -12   6   4 1446.29 753.676  16
 -12  -6   3 1245.73 458.450  26
  12  -6  -3 1962.12 908.151   5
 -12  -6   3 1397.08 690.652  16
 -12   6   3 409.824 375.355  16
 -12  -6   2-55.4440 453.284  16
 -12   6   2 224.568 450.932  16
  12  -6  -1 230.872 523.578   5
 -12  -6   1 220.159 476.931  16
 -12   6   1 1148.52 698.914  16
  12  -6   0 744.771 647.225   9
  12   6   0 663.246 713.721   6
  12  -6   0 151.371 346.414  23
  12  -6   0 1279.77 858.469   5
 -12  -6   0 730.993 591.376  16
  12   6   1 5990.24 1649.45   6
  12  -6   1 4953.28 878.379  23
  12  -6   1 5741.57 962.385  20
 -12  -6  -1 3926.02 1086.27  16
  12  -6   1 4821.02 1226.14   9
  12   6   2-67.6981 508.512   6
  12  -6   2-401.111 339.492  23
  12  -6   2-109.208 318.295  20
 -12  -6  -2 229.732 413.152  16
  12   6   2-818.142 639.328  13
  12  -6   2 161.265 551.740   9
  12   6   3-64.9263 526.753   6
  12  -6   3-283.402 332.540  23
  12  -6   3 533.171 378.557  20
  12   6   3-1217.14 845.946   9
  12  -6   3-936.316 698.229   9
  12   6   3-1448.32 767.086  13
  12   6   4 3228.46 1154.77   6
  12  -6   4 2474.77 689.128  23
  12  -6   4 3892.15 801.693  20
  12   6   4 1827.02 867.570   9
  12  -6   4 2847.26 1167.26   9
  12   6   4 1940.60 844.277  13
  12   6   5-969.157 772.453   6
  12  -6   5 378.859 353.910  20
  12   6   5-1592.58 912.168   9
  12  -6   5 617.074 648.820   9
  12   6   5 356.309 562.126  13
  12   6   6 2392.96 1059.93   9
  12  -6   6 2895.73 993.496   9
  12   6   6 2587.68 1046.43  13
  12   6   7 3631.55 1257.82   9
  12  -6   7 3036.27 1146.61   9
  12   6   7 4070.27 1237.48  13
  12   6   8 2235.73 1067.16   9
  12  -6   8 1480.98 873.303   9
  12   6   8 1135.33 693.684  13
  12   6   9-845.891 677.731   9
  12  -6   9 118.107 531.944   9
  12   6  10 1827.81 841.080   9
  12  -6  10 824.115 498.778   9
  12   6  11 1258.22 708.000   9
  12  -6  11-871.346 602.567   9
  12   6  12 2173.43 618.653   7
  12   6  12 2500.11 834.410   9
 -12  -7  12-338.968 388.387  11
 -12   7  12 343.282 277.549  26
 -12  -7  11 2153.61 796.810  11
 -12  -7  10 423.556 483.906  11
 -12  -7   9-177.286 420.557  11
  12  -7  -9 726.703 564.539   5
 -12  -7   8-29.3632 386.014  11
  12  -7  -8 378.896 668.411   5
 -12  -7   7 2380.11 962.119  11
 -12  -7   7 1863.04 595.021  26
  12  -7  -7 1418.75 665.854   5
 -12  -7   6 2220.80 674.853  26
  12  -7  -6 2059.52 950.566   5
  12  -7  -5-258.156 542.600   5
 -12  -7   5-1538.04 789.817  16
 -12   7   5-259.601 437.762  16
  12  -7  -4 3833.59 1379.72   5
 -12  -7   4 3842.93 1213.69  16
 -12   7   4 3380.94 1156.50  16
  12  -7  -3 8332.62 1805.71   5
 -12  -7   3 6075.16 1458.27  16
 -12   7   3 7498.63 1530.15  16
  12  -7  -2 2295.36 1007.02   5
 -12  -7   2 2901.38 1125.44  16
 -12   7   2 3509.40 1046.22  16
  12  -7  -1 3448.14 1190.34   5
 -12  -7   1 3647.99 1117.55  16
  12  -7   0 391.150 548.623   9
  12  -7   0 1353.58 545.378  23
  12  -7   0-420.862 562.536   5
 -12  -7   0 1781.16 770.846  16
  12  -7   1 35563.7 2169.55  23
  12  -7   1 34538.3 3326.04   5
  12  -7   1 39479.9 2365.06  20
  12  -7   1 31881.9 3397.24   9
 -12  -7  -1 36137.7 3305.85  16
  12   7   1 35420.2 3372.29  13
  12   7   2 146.998 743.785   6
  12  -7   2 1247.73 517.785  23
  12  -7   2 824.466 395.711  20
 -12  -7  -2 2311.54 948.536  16
  12   7   2 1610.12 775.809  13
  12  -7   2 2347.88 896.193   9
  12  -7   3 4220.24 851.634  23
  12  -7   3 6835.37 1020.26  20
  12   7   3 5555.31 1477.80   9
  12   7   3 4782.65 1314.84  13
  12  -7   3 5579.92 1528.94   9
  12  -7   4 5274.80 902.082  23
  12  -7   4 5381.37 957.692  20
  12   7   4 3062.54 922.679   9
  12   7   4 5605.71 1331.50  13
  12  -7   4 5402.88 1498.31   9
  12  -7   5 466.415 300.801  20
  12   7   5 38.2979 792.190   9
  12   7   5 1162.84 699.224  13
  12  -7   5 811.600 692.573   9
  12   7   6-1030.90 756.690   9
  12  -7   6-972.966 752.149   9
  12   7   7 925.307 699.241   9
  12  -7   7 1240.17 695.496   9
  12   7   7 750.682 560.804  13
  12   7   8 1618.22 977.171   9
  12  -7   8 1811.32 866.952   9
  12   7   8 531.318 539.314  13
  12   7   9 1794.27 952.418   9
  12  -7   9 482.766 532.433   9
  12   7  10 476.598 630.696   9
  12  -7  10 184.658 376.995   9
  12   7  11 493.955 560.117   9
  12  -7  11 150.725 398.999   9
  12   7  12 166.941 298.363   7
  12   7  12 328.434 532.218   9
 -12  -8  12 287.294 405.324  11
 -12   8  12 79.6735 208.641  26
 -12  -8  11 5702.50 1228.88  11
 -12  -8  10 793.607 517.325  11
 -12  -8   9 11910.5 2030.46  11
  12  -8  -9 14113.5 1994.88   5
 -12  -8   8 340.367 526.311  11
  12  -8  -8 1112.73 641.660   5
 -12  -8   7 501.118 512.075  11
  12  -8  -7 194.855 553.827   5
  12  -8  -6 7164.93 1672.01   5
  12  -8  -5 5500.11 1606.38   5
  12  -8  -4 6275.96 1653.47   5
 -12  -8   4 7062.86 1570.90  16
 -12   8   4 7154.97 1578.05  16
  12  -8  -3 2411.07 1028.52   5
 -12  -8   3 2210.61 1014.47  16
 -12   8   3 1519.60 762.018  16
  12  -8  -2-87.5866 519.340   5
 -12  -8   2 1118.81 640.368  16
 -12   8   2 315.874 422.559  16
  12  -8  -1 6010.38 944.404  23
  12  -8  -1 5828.61 1533.75   5
 -12  -8   1 3933.73 1188.00  16
  12  -8   0 3433.64 1282.29   9
  12  -8   0 3896.87 799.686  23
  12  -8   0 3850.67 785.083  20
  12  -8   0 2596.83 967.884   5
 -12  -8   0 3453.92 1143.03  16
  12   8   0 4553.08 1162.41  13
  12  -8   1 213.147 701.092   9
  12  -8   1 182.732 316.438  23
  12  -8   1 495.278 336.602  20
  12  -8   1 323.892 509.107   5
 -12  -8  -1-212.671 590.307  16
  12   8   1 1261.51 765.833  13
  12  -8   2 429.765 500.930   9
  12  -8   2 785.992 479.207  23
  12  -8   2 257.057 297.897  20
  12   8   2 185.910 462.307  13
  12  -8   3 1614.56 560.680  23
  12  -8   3 1587.98 572.375  20
  12   8   3 988.853 622.961  13
  12  -8   3 2697.41 1041.83   9
  12  -8   4 1963.39 590.500  20
  12   8   4 939.228 715.090   9
  12   8   4 1839.31 961.855  13
  12  -8   4 2154.39 989.169   9
  12   8   5-47.3494 541.311  13
  12  -8   5 175.640 418.460   9
  12   8   6 625.098 477.741   9
  12   8   6-336.960 486.467  13
  12  -8   6-474.071 569.337   9
  12   8   7 3810.96 1358.59   9
  12  -8   7 2449.72 1096.78   9
  12   8   7 3304.69 1136.99  13
  12   8   8 6260.99 1645.06   9
  12  -8   8 5506.03 1535.93   9
  12   8   9 7170.94 1690.32   9
  12  -8   9 5848.60 1568.60   9
  12   8  10-248.109 443.381   9
  12  -8  10 728.252 577.230   9
  12   8  11 700.956 585.734   9
  12   8  12 348.030 352.097   7
  12   8  12 887.070 553.278   9
 -12  -9  12-4.67617 344.021  11
 -12   9  12 62.1115 188.894  26
 -12  -9  11 453.052 426.620  11
 -12  -9  10 795.074 611.038  11
 -12  -9   9 587.503 550.887  11
  12  -9  -9-388.285 457.891   5
 -12  -9   8 511.902 464.051  11
  12  -9  -8 93.5235 454.713   5
 -12  -9   7 447.962 427.851  11
  12  -9  -7 798.381 681.210   5
 -12  -9   6 664.784 648.800  11
  12  -9  -6 595.954 577.532   5
  12  -9  -5 269.509 478.800   5
  12  -9  -4 5260.27 1512.73   5
  12  -9  -3 8331.53 1876.66   5
 -12  -9   3 6685.03 1575.34  16
 -12   9   3 5605.79 1316.08  16
  12  -9  -2 2912.48 1168.94   5
 -12  -9   2 2426.88 966.822  16
  12  -9  -1 17127.3 1534.15  23
  12  -9  -1 18707.6 2658.42   5
 -12  -9   1 19756.0 2652.23  16
  12  -9   0 571.942 267.941  23
  12  -9   0 1131.07 445.705  20
  12  -9   0 1110.63 809.126   5
 -12  -9   0 133.415 468.536  16
  12  -9   1 3471.18 1092.74   9
  12  -9   1 2652.17 632.735  23
  12  -9   1 2955.47 708.083  20
  12  -9   1 3478.15 1128.56   5
 -12  -9  -1 935.966 536.666  16
  12   9   1 2004.18 995.746  13
  12  -9   2 2693.48 1103.44   9
  12  -9   2 1923.13 564.965  23
  12  -9   2 2544.58 685.648  20
  12   9   2 1146.87 650.714  13
  12  -9   3 17903.2 1534.99  23
  12  -9   3 20529.3 1714.02  20
  12  -9   3 16986.4 2612.86   9
  12   9   3 20041.2 2590.50  13
  12   9   4 7788.69 1776.81   9
  12   9   4 7420.09 1650.89  13
  12  -9   4 7053.13 1726.52   9
  12   9   5-125.311 456.539   9
  12   9   5-254.144 445.671  13
  12  -9   5 656.950 635.050   9
  12   9   6 6911.72 1784.71   9
  12   9   6 6645.09 1487.10  13
  12  -9   6 6241.51 1605.33   9
  12   9   7 1126.34 861.044   9
  12   9   7 330.574 548.289  13
  12  -9   7 1257.42 790.883   9
  12   9   8 318.297 728.316   9
  12  -9   8 245.854 548.316   9
  12   9   9 920.483 763.226   9
  12  -9   9 710.484 581.322   9
  12   9  10-56.3079 503.647   9
  12  -9  10 607.112 546.341   9
  12   9  11-885.871 653.235   9
  12   9  12-108.612 241.289   7
  12   9  12-79.5393 400.478   9
 -12  10  12 1462.92 361.514  26
 -12 -10  11 53.1089 364.388  11
 -12 -10  10 903.954 566.250  11
 -12 -10   9 1388.02 790.483  11
  12 -10  -9 1950.12 722.938   5
 -12 -10   8 11842.3 2007.97  11
  12 -10  -8 13505.7 2079.03   5
 -12 -10   7 217.982 585.530  11
  12 -10  -7 319.210 518.123   5
 -12 -10   6-1937.48 921.563  11
  12 -10  -6 1191.56 792.517   5
  12 -10  -5 6448.80 1634.39   5
  12 -10  -4 11273.7 2133.45   5
  12 -10  -3 8467.69 1852.21   5
  12 -10  -2 1209.33 451.463  23
  12 -10  -2-142.131 886.501   5
 -12 -10   2 935.082 639.767  16
  12 -10  -1 771.286 399.770  23
  12 -10  -1 416.959 360.485  20
  12 -10  -1 61.3300 580.138   5
 -12 -10   1-354.650 733.733  16
  12 -10   0 792.384 423.161  23
  12 -10   0 1628.19 543.754  20
  12 -10   0 819.314 670.550   5
 -12 -10   0 771.461 643.903  16
 -12 -10  -1 1033.64 579.181  25
  12 -10   1 550.536 367.851  23
  12 -10   1-1.14298 323.413  20
  12  10   1 597.812 534.137  13
  12 -10   2 1665.10 954.573   9
  12 -10   2 644.631 344.631  23
  12 -10   2 454.713 395.637  20
  12  10   2 1866.47 839.242  13
  12 -10   3 1364.65 476.714  23
  12  10   3 731.518 581.555  13
  12 -10   3 2538.02 1084.20   9
  12  10   4 4585.78 1357.51   9
  12  10   4 3770.95 1161.25  13
  12 -10   4 2519.32 1152.81   9
  12  10   5 1858.98 942.731   9
  12  10   5 1200.27 726.352  13
  12 -10   5 250.742 504.433   9
  12  10   6 2599.76 1224.35   9
  12  10   6 1780.97 862.562  13
  12 -10   6 2772.46 1099.85   9
  12  10   7 414.241 617.392   9
  12 -10   7 67.5756 419.130   9
  12  10   8 1253.63 836.433   9
  12 -10   8 219.470 464.110   9
  12  10   9 206.925 541.698   9
  12 -10   9 379.881 669.234   9
  12  10  10 3171.49 980.947   9
  12 -10  10 2736.94 970.804   9
  12  10  11 893.834 409.229   7
  12  10  11 1063.81 615.050   9
  12  10  12 4559.31 937.018   9
 -12 -11  11 287.622 286.882  11
 -12 -11  10-2.10943 308.739  11
 -12 -11   9-100.597 461.964  11
  12 -11  -9-239.940 370.000   5
 -12 -11   8-1017.45 666.967  11
  12 -11  -8-143.834 431.974   5
 -12 -11   7 168.245 399.160  11
  12 -11  -7 77.0760 422.214   5
 -12 -11   6 766.586 734.638  11
  12 -11  -6 2806.71 1107.08   5
 -12 -11   5 736.548 461.820  11
  12 -11  -5 2026.29 1097.92   5
  12 -11  -4 2076.54 1032.36   5
  12 -11  -3 6.72978 532.395   5
  12 -11  -2 1566.81 888.638   5
  12 -11  -1-1214.29 807.211   5
 -12 -11   0 124.439 395.619  25
  12 -11   0 349.641 521.023   5
 -12 -11  -1 3691.74 832.284  25
  12 -11   1 2154.86 946.072   5
  12 -11   2 7523.83 1817.94   9
  12  11   2 6303.28 1422.76  13
  12 -11   3 513.498 713.111   9
  12  11   3-429.229 472.594  13
  12  11   4 21192.9 2905.36   9
  12 -11   4 18371.9 2777.73   9
  12  11   4 21196.1 2698.15  13
  12  11   5 18.4029 567.920   9
  12  11   5 1135.63 828.586  13
  12 -11   5 964.912 784.225   9
  12  11   6 6437.65 1672.03   9
  12 -11   6 3863.64 1327.44   9
  12  11   7 483.584 791.922   9
  12 -11   7 109.861 488.761   9
  12  11   8-927.749 739.335   9
  12 -11   8-1105.48 754.732   9
  12  11   9 373.384 420.352   9
  12 -11   9-594.645 542.663   9
  12  11  10 303.663 475.983   9
  12 -11  10 2235.34 796.944   9
  12  11  11 174.242 298.422   7
  12  11  11-336.492 480.623   9
 -12 -12  11 261.160 345.588  11
 -12 -12  10 1195.96 573.180  11
 -12 -12  10 1219.59 388.517  25
 -12 -12   9 7286.05 1453.37  11
  12 -12  -9 7999.87 1357.66   5
 -12 -12   8 1526.42 762.648  11
  12 -12  -8 1857.63 797.918   5
 -12 -12   7-233.790 612.392  11
  12 -12  -7-809.102 628.496   5
 -12 -12   6 6039.86 1468.32  11
  12 -12  -6 5935.81 1544.04   5
 -12 -12   5 11824.8 2047.13  11
  12 -12  -5 11368.7 2111.39   5
 -12 -12   4 1129.82 740.171  11
  12 -12  -4 3143.91 1141.71   5
  12 -12  -3 1107.91 754.262   5
  12 -12  -2 2129.25 1149.51   5
 -12 -12   1 375.019 336.861  25
  12 -12  -1 378.782 671.027   5
 -12 -12   0 304.318 428.433  25
  12 -12   0 524.501 545.044   5
 -12 -12  -1 684.308 384.792  25
  12 -12   1-514.493 591.505   5
  12 -12   2 1617.03 850.080   9
 -12 -12  -2 1808.84 627.447  25
  12  12   2 591.714 520.848  13
  12 -12   3 2053.38 1079.95   9
  12  12   3 2200.21 882.479  13
  12  12   4 5573.08 1433.28   9
  12  12   4 4953.13 1312.27  13
  12 -12   4 6416.78 1752.41   9
  12  12   5-696.328 720.309   9
  12 -12   5-366.046 575.166   9
  12  12   6 711.334 658.685   9
  12 -12   6 178.185 472.081   9
  12  12   7 1037.30 872.257   9
  12 -12   7-394.027 570.355   9
  12  12   8 1157.46 857.605   9
  12 -12   8-98.4499 736.015   9
  12  12   9 259.896 435.474   9
  12 -12   9 824.378 585.433   9
  12  12  10 1341.81 689.941   9
  12  12  11 146.315 260.739   7
 -12 -13  10-164.483 363.522  11
 -12 -13  10 474.883 276.516  25
 -12 -13   9 709.642 590.367  11
 -12 -13   9 439.825 339.132  25
  12 -13  -9 700.968 538.399   5
 -12 -13   8 449.613 478.076  11
  12 -13  -8 1447.96 522.673   5
 -12 -13   8 628.841 414.794  25
 -12 -13   7-37.2029 412.061  11
  12 -13  -7 1537.39 804.664   5
 -12 -13   6 1472.04 771.544  11
  12 -13  -6-154.010 459.847   5
 -12 -13   5 1245.99 635.754  11
  12 -13  -5 2856.07 1178.98   5
 -12 -13   4-671.521 599.918  11
  12 -13  -4-1130.32 777.641   5
 -12 -13   3 3978.57 1314.91  11
 -12 -13   3 2297.42 707.177  25
  12 -13  -3 2765.63 1055.73   5
 -12 -13   2 691.125 414.210  25
  12 -13  -2 674.874 923.341   5
 -12 -13   1 11298.8 1478.66  25
  12 -13  -1 11013.5 2076.96   5
 -12 -13   0 4916.45 965.560  25
  12 -13   0 2888.33 1142.30   5
 -12 -13  -1 1052.10 496.516  25
  12 -13   1 1277.28 781.477   5
  12 -13   2 1922.94 984.664   9
 -12 -13  -2 828.841 456.209  25
  12 -13   3 2617.64 1159.74   9
  12  13   3 4446.39 1156.17  13
  12 -13   4 2795.04 1166.07   9
  12  13   5 1124.63 824.247   9
  12 -13   5 428.218 613.349   9
  12  13   6 2029.97 922.622   9
  12 -13   6 2232.03 1022.27   9
  12  13   7 326.395 447.874   9
  12 -13   7-249.149 450.425   9
  12  13   8 376.864 556.719   9
  12 -13   8 101.582 402.732   9
  12  13   9 644.149 564.103   9
  12 -13   9 729.381 532.371   9
  12  13  10 68.9162 288.658   7
 -12 -14  10 152.547 250.979  11
 -12 -14   9 3621.10 900.061  11
 -12 -14   9 3245.69 607.099  25
 -12 -14   8 1177.08 596.586  11
 -12 -14   8 473.513 335.929  25
  12 -14  -8 1022.39 586.436   5
 -12 -14   7 1091.16 640.847  11
 -12 -14   7 1275.42 523.140  25
  12 -14  -7 1521.69 811.097   5
 -12 -14   6 3281.03 1065.01  11
 -12 -14   6 3194.98 773.579  25
  12 -14  -6 2757.30 1040.45   5
 -12 -14   5 3229.00 1045.12  11
 -12 -14   5 2374.62 693.915  25
  12 -14  -5 1059.86 785.203   5
 -12 -14   4 910.110 645.224  11
 -12 -14   4 59.7530 327.796  25
  12 -14  -4 528.712 647.745   5
 -12 -14   3 5141.87 1416.32  11
 -12 -14   3 5694.06 1063.86  25
  12 -14  -3 5699.35 1564.79   5
 -12 -14   2 1457.08 590.355  25
  12 -14  -2 977.907 863.374   5
 -12 -14   1 2491.70 708.185  25
  12 -14  -1 2589.85 1065.96   5
 -12 -14   0 277.483 365.665  25
  12 -14   0-338.274 513.932   5
 -12 -14  -1 1140.07 512.764  25
  12 -14   1 1648.77 810.037   5
  12 -14   2 369.835 653.698   9
 -12 -14  -2 831.995 467.809  25
  12 -14   3 461.521 583.575   9
  12 -14   4-24.2880 518.224   9
  12  14   5-1024.97 729.016   9
  12 -14   5-52.9639 590.508   9
  12  14   6 232.045 540.954   9
  12 -14   6-247.114 675.823   9
  12  14   7 3163.06 1018.48   9
  12 -14   7 2798.82 980.225   9
  12  14   8 1077.46 598.426   9
  12 -14   8 2968.61 977.627   9
  12  14   9 2411.16 702.126   7
  12  14  10 67.3232 273.582   7
 -12 -15   9-689.971 441.502  11
 -12 -15   9 625.086 265.165  25
 -12 -15   8 616.449 490.282  11
 -12 -15   8 294.068 274.170  25
  12 -15  -8 619.226 443.616   5
 -12 -15   7 7.91610 427.221  11
 -12 -15   7 277.543 268.450  25
  12 -15  -7 618.027 607.723   5
 -12 -15   6 1577.03 771.048  11
 -12 -15   6-272.406 380.373  25
  12 -15  -6 933.654 563.504   5
 -12 -15   5 149.653 572.728  11
 -12 -15   5-83.9407 340.906  25
  12 -15  -5 308.983 545.495   5
 -12 -15   4 2526.84 929.645  11
 -12 -15   4 1626.52 581.940  25
  12 -15  -4 2571.79 1071.77   5
 -12 -15   3 7016.47 1577.89  11
 -12 -15   3 5304.41 1003.74  25
  12 -15  -3 4432.07 1308.87   5
 -12 -15   2 3922.28 884.080  25
  12 -15  -2 5073.22 1398.48   5
 -12 -15   1-48.6730 290.312  25
  12 -15  -1 1635.17 838.036   5
 -12 -15   0 1075.33 518.007  25
  12 -15   0 1524.82 783.143   5
 -12 -15  -1 12925.9 1481.74  25
  12 -15   1 9565.21 1753.40   5
  12 -15   2 7911.87 1801.59   9
 -12 -15  -2 7309.71 1085.85  25
  12 -15   3 139.218 460.146   9
  12 -15   4 4735.42 1458.28   9
  12 -15   5 363.338 429.145   9
  12 -15   6 224.523 547.263   9
  12 -15   7 481.420 475.723   9
  12  15   8-561.538 430.706   7
  12 -15   8-50.5524 345.831   9
  12  15   9-133.727 323.448   7
 -12 -16   8 2553.63 769.154  11
 -12 -16   8 2795.52 540.761  25
  12 -16  -8 3688.14 848.572   5
 -12 -16   7 1584.16 711.410  11
 -12 -16   7 1763.22 499.552  25
  12 -16  -7 1523.93 549.288   5
 -12 -16   6 10320.1 1721.01  11
 -12 -16   6 11833.5 1270.89  25
  12 -16  -6 12057.8 1829.37   5
 -12 -16   5 886.186 571.016  11
 -12 -16   5 437.442 295.058  25
  12 -16  -5 473.561 519.988   5
 -12 -16   4 6424.88 1440.60  11
 -12 -16   4 5660.22 972.197  25
  12 -16  -4 6284.84 1471.45   5
 -12 -16   3 934.358 494.690  25
  12 -16  -3 141.644 432.770   5
 -12 -16   2-131.553 311.765  25
  12 -16  -2-379.680 517.602   5
 -12 -16   1 631.649 434.790  25
  12 -16  -1 741.359 490.222   5
 -12 -16   0 852.139 497.825  25
  12 -16   0-338.267 474.929   5
 -12 -16  -1 455.414 327.891  25
  12 -16   1 329.523 441.872   5
  12 -16   2-380.748 588.800   9
  12 -16   3 703.656 666.650   9
  12 -16   4 966.176 699.418   9
  12 -16   5 155.599 520.732   9
  12 -16   6 2860.97 1009.92   9
  12  16   7 470.302 378.695   7
  12 -16   7 284.794 476.021   9
  12  16   8 1121.75 486.504   7
  12 -16   8 110.581 308.984   9
 -12 -17   7 198.265 317.368  11
 -12 -17   7 19.1715 210.700  25
  12 -17  -7-59.3831 281.053   5
 -12 -17   6 799.661 575.485  11
 -12 -17   6-66.5358 275.547  25
  12 -17  -6 642.008 440.485   5
 -12 -17   5 216.658 282.853  25
  12 -17  -5 416.505 486.532   5
 -12 -17   4 988.764 432.745  25
  12 -17  -4 1292.80 654.845   5
 -12 -17   3-170.168 292.178  25
  12 -17  -3-294.468 386.895   5
 -12 -17   2 1235.56 490.206  25
  12 -17  -2 1567.19 751.143   5
 -12 -17   1 533.910 334.702  25
  12 -17  -1 482.398 434.116   5
 -12 -17   0 1714.94 547.212  25
  12 -17   0 969.525 540.829   5
  12 -17   1 3776.23 1199.39   9
  12 -17   1 3862.27 1076.36   5
  12 -17   2 3950.41 1233.37   9
  12 -17   3-547.781 563.505   9
  12 -17   4 2842.82 982.839   9
  12 -17   5-229.005 571.780   9
  12  17   6 1658.06 601.437   7
  12 -17   6 2238.91 826.719   9
  12  17   7-177.989 293.898   7
  12 -17   7 259.993 447.793   9
 -12 -18   6 2816.64 523.504  25
  12 -18  -6 2465.01 772.645   5
 -12 -18   5 2656.53 571.071  25
  12 -18  -5 2452.69 753.731   5
 -12 -18   4 298.194 264.758  25
  12 -18  -4-106.055 327.264   5
 -12 -18   3 2619.30 632.974  25
  12 -18  -3 3293.37 1005.82   5
 -12 -18   2-198.198 265.982  25
  12 -18  -2 628.848 512.930   5
 -12 -18   1 719.516 358.749  25
  12 -18  -1-103.315 464.809   5
  12 -18   0 995.522 614.419   5
  12 -18   1 300.393 358.433   9
  12 -18   1 194.797 351.881   5
  12 -18   2 1104.21 665.625   9
  12 -18   3 851.668 690.254   9
  12 -18   4-205.202 429.448   9
  12 -18   5-124.762 385.298   9
  12 -18   6-383.832 362.879   9
 -12 -19   5-14.8990 194.728  25
  12 -19  -5 32.4536 294.852   5
 -12 -19   4 852.033 336.332  25
  12 -19  -4 581.874 423.729   5
 -12 -19   3 1760.01 497.533  25
  12 -19  -3 1654.17 682.006   5
  12 -19  -2-158.639 344.752   5
  12 -19  -1 2375.45 814.767   5
  12 -19   0-112.734 331.975   9
  12 -19   0-1131.81 549.942   5
  12 -19   1 8887.79 1548.57   9
  12 -19   2 1410.03 636.851   9
  12 -19   3 754.876 572.326   9
  12 -19   4-174.216 355.889   9
  12 -19   5 510.150 400.514   9
  12 -20  -4 3980.62 878.826   5
  12 -20  -3-154.258 309.265   9
  12 -20  -3-59.7804 298.096   5
  12 -20  -2-416.409 367.750   9
  12 -20  -2 494.129 340.536   5
  12 -20  -1 365.030 441.198   9
  12 -20  -1 297.000 345.304   5
  12 -20   0 139.709 331.874   9
  12 -20   0 1130.72 494.754   5
  12 -20   1 563.169 429.504   9
  12 -20   2 450.645 397.645   9
  12 -20   3 87.3136 359.549   9
  12 -20   4 295.442 346.214   9
  12 -21  -1-44.4705 252.475   9
  12 -21   0-234.808 296.362   9
  12 -21   1 590.726 432.239   9
 -13   0  12 1463.30 429.649  26
 -13   0  11-85.5941 262.262  26
 -13   0  10 20.3754 254.636  26
 -13   0   9-276.966 329.913  26
 -13   0   8 129.645 341.539  26
 -13   0   7-8.56884 348.527  26
  13   0  -7 42.3954 753.777   5
 -13   0   6-231.733 342.612  26
  13   0  -6-1402.93 854.210   5
 -13   0   5-351.735 349.740  26
  13   0  -5-153.936 500.939   5
 -13   0   5-1.32407 451.107  16
 -13   0   4 638.857 294.693  26
  13   0  -4 743.018 718.812   5
 -13   0   4 823.569 674.875  16
 -13   0   3 132.361 429.992  26
  13   0  -3 1794.24 934.223   6
  13   0  -3 867.303 704.590   5
 -13   0   3 405.107 544.751  16
  13   0  -2 18984.7 2887.42   6
  13   0  -2 21277.9 2785.40   5
 -13   0   2 21075.7 2466.31  16
  13   0  -1-1591.08 983.272   6
  13   0  -1-387.491 573.143   5
 -13   0   1 281.511 507.049  16
  13   0   0 70641.3 3064.75  23
  13   0   0 74172.1 4941.65   5
  13   0   0 77553.4 5891.32   6
 -13   0   0 61636.0 4001.92  16
  13   0   1-565.316 712.650   6
  13   0   1 238.385 294.541  23
  13   0   1-162.041 708.806   5
  13   0   1-189.316 370.615  20
  13   0   2 14716.6 1439.41  23
  13   0   2 17877.7 2941.15   6
  13   0   2 17824.6 1510.90  20
  13   0   2 15446.5 2353.53   9
  13   0   3-165.829 348.785  23
  13   0   3 180.532 787.983   6
  13   0   3-91.0235 293.031  20
  13   0   3 342.776 655.485   9
  13   0   4 4945.77 856.567  23
  13   0   4 3384.60 1362.46   6
  13   0   4 4116.54 776.941  20
  13   0   4 4534.37 1419.10   9
  13   0   5 11.8357 312.378  20
  13   0   5-41.8146 612.580   9
  13   0   5-731.571 587.313  13
  13   0   6 602.619 673.028   6
  13   0   6 1265.50 822.006   9
  13   0   6 754.409 659.766  13
  13   0   7 345.258 596.386   9
  13   0   7 1157.05 690.231  13
  13   0   8 292.432 594.774   9
  13   0   8 658.949 583.234  13
  13   0   9-911.684 670.722   9
  13   0  10 157.679 435.564   9
  13   0  11-318.035 508.726   9
  13   0  12-297.557 269.649  22
  13   0  12-756.488 510.010   9
 -13  -1  12 3073.73 558.309  26
 -13   1  12 3042.34 533.872  26
 -13  -1  11-113.596 215.554  26
 -13   1  11 143.082 224.199  26
 -13  -1  10 7591.28 1007.63  26
 -13   1  10 8541.85 1071.07  26
 -13  -1   9 66.6434 298.755  26
 -13   1   9 176.787 300.608  26
 -13  -1   8 774.730 435.776  26
 -13   1   8 519.258 365.728  26
  13  -1  -8 29.3850 593.835   5
 -13  -1   7 5771.71 987.621  26
 -13   1   7 5953.39 970.191  26
  13  -1  -7 6640.27 1588.98   5
 -13  -1   6 3050.05 715.355  26
 -13   1   6 2529.29 731.210  26
  13   1  -6 2209.23 1014.34   5
  13  -1  -6 2251.70 967.271   5
 -13  -1   5 173.896 306.268  26
  13   1  -5-655.696 662.450   5
  13  -1  -5-498.313 610.770   5
 -13  -1   5 321.287 483.164  16
 -13   1   5-59.2465 425.939  16
 -13   1   5 847.115 511.705  26
 -13  -1   4 579.464 292.000  26
 -13   1   4 1031.88 512.533  26
  13   1  -4 350.810 516.841   5
  13  -1  -4-712.817 679.396   5
 -13  -1   4 1390.08 794.760  16
 -13   1   4 88.3751 695.633  16
 -13  -1   3 312.011 314.041  26
 -13   1   3-132.594 312.069  26
  13   1  -3-624.656 694.940   6
  13  -1  -3 424.104 609.198   6
  13   1  -3 275.731 845.580   5
  13  -1  -3 42.4147 623.952   5
 -13  -1   3-66.0430 390.844  16
 -13   1   3-174.533 739.914  16
  13   1  -2 1154.56 703.693   6
  13  -1  -2-1522.56 919.912   6
  13   1  -2 1054.11 785.308   5
  13  -1  -2 1350.18 978.924   5
 -13  -1   2 109.746 399.190  16
 -13   1   2 844.777 644.356  16
  13   1  -1-47.9537 841.119   6
  13  -1  -1 1327.65 831.548   6
  13   1  -1 507.671 494.308   5
  13  -1  -1 2997.85 1097.54   5
 -13  -1   1 814.110 753.966  16
 -13   1   1 945.825 563.315  16
  13   1   0-426.110 714.339   6
  13  -1   0 1169.20 953.573   6
  13   1   0 226.270 409.442  23
  13  -1   0 550.626 381.338  23
  13   1   0 629.987 694.490   5
  13  -1   0-176.888 558.945   5
 -13  -1   0 713.251 579.069  16
  13   1   1 1211.87 781.038   6
  13   1   1 14.3322 258.052  23
  13  -1   1-290.281 314.428  23
  13   1   1-1069.37 710.597   5
  13  -1   1-1667.38 836.184   5
  13   1   1 15.2931 314.374  20
  13  -1   1 576.919 399.600  20
  13   1   2-177.362 542.142   6
  13   1   2 339.080 462.492  23
  13  -1   2 685.995 485.942  23
  13   1   2 835.248 428.639  20
  13  -1   2 606.519 402.403  20
  13   1   2 830.239 479.293   9
  13  -1   2-267.848 538.535   9
  13   1   3 1649.14 1055.41   6
  13   1   3 1943.51 508.922  23
  13  -1   3 927.804 427.264  23
  13   1   3 1323.11 460.639  20
  13  -1   3 2268.19 630.437  20
  13   1   3 933.568 790.921   9
  13  -1   3-876.234 680.379   9
  13   1   4 76.9000 518.349   6
  13   1   4 2262.69 632.522  23
  13  -1   4 1444.80 586.431  23
  13   1   4 1655.65 486.026  20
  13  -1   4 1602.93 566.634  20
  13   1   4 2719.38 1109.71   9
  13  -1   4 1457.52 819.561   9
  13   1   5 5649.82 1740.08   6
  13  -1   5 6634.96 1801.46   6
  13  -1   5 5750.03 915.321  20
  13   1   5 6217.24 1653.60   9
  13  -1   5 6031.31 1608.49   9
  13   1   5 4237.37 1224.41  13
  13   1   6 50.0853 449.754   6
  13  -1   6-822.523 711.432   6
  13   1   6 639.295 671.429   9
  13  -1   6-25.7218 591.376   9
  13   1   6 111.362 361.068  13
  13  -1   6-554.583 551.697  13
  13   1   7 780.731 867.441   9
  13  -1   7-123.841 534.692   9
  13   1   7-294.550 441.442  13
  13  -1   7-1214.03 708.841  13
  13   1   8 544.449 568.036   9
  13  -1   8 686.103 571.437   9
  13   1   8 1526.18 758.201  13
  13   1   9-94.4475 404.570   9
  13  -1   9 398.999 442.499   9
  13   1  10 10771.7 1900.84   9
  13  -1  10 10590.4 1821.98   9
  13  -1  11-212.256 323.771  22
  13   1  11 312.831 441.646   9
  13  -1  11-425.730 471.973   9
  13  -1  12-140.726 306.439  22
  13   1  12-311.382 327.048  22
  13   1  12 820.298 595.202   9
  13  -1  12 591.552 472.201   9
 -13   2  12 623.351 269.607  26
 -13  -2  11 196.305 275.549  26
 -13   2  11-60.9925 291.370  26
 -13  -2  10-410.536 385.361  26
 -13   2  10-122.748 306.499  26
 -13  -2   9 474.022 368.423  26
 -13   2   9 394.950 397.563  26
 -13   2   8-229.210 257.558  26
 -13  -2   8 37.2736 326.176  26
  13  -2  -8 759.475 676.068   5
 -13  -2   7 185.442 418.153  26
 -13   2   7 788.816 438.370  26
  13  -2  -7-238.026 805.206   5
 -13  -2   6 3686.64 820.154  26
 -13   2   6 5312.77 955.253  26
  13  -2  -6 2535.16 1026.91   5
 -13  -2   5 2695.04 695.824  26
 -13   2   5 3191.59 733.314  26
  13   2  -5 3226.31 1272.38   5
  13  -2  -5 2916.77 1126.25   5
 -13  -2   5 2779.90 941.826  16
 -13   2   5 3502.01 1088.93  16
 -13  -2   4 107.531 269.791  26
 -13   2   4-60.1984 323.367  26
  13   2  -4 1340.84 832.605   6
  13   2  -4 32.3779 433.827   5
  13  -2  -4 87.5124 520.757   5
 -13  -2   4-139.699 450.404  16
 -13   2   4 171.036 527.486  16
 -13  -2   3 405.340 262.355  26
 -13   2   3 114.354 272.347  26
  13   2  -3-866.379 756.127   6
  13  -2  -3 773.495 702.857   6
  13   2  -3 344.527 410.282   5
  13  -2  -3-1502.10 859.456   5
 -13  -2   3 396.855 437.743  16
 -13   2   3 1000.94 643.303  16
 -13  -2   2 3585.56 730.452  26
  13   2  -2 5205.20 1409.17   6
  13  -2  -2 5175.16 1558.75   6
  13   2  -2 3457.94 1152.79   5
  13  -2  -2 3175.81 1222.32   5
 -13  -2   2 4083.69 1200.38  16
 -13   2   2 3780.28 1161.31  16
  13   2  -1 5082.72 1633.49   6
  13   2  -1 4773.68 1347.10   5
  13  -2  -1 5131.09 1335.32   5
 -13  -2   1 5968.44 1306.53  16
 -13   2   1 3969.40 1129.95  16
  13   2   0 11700.1 2293.84   6
  13   2   0 11600.4 1194.40  23
  13  -2   0 11719.1 1313.76  23
  13   2   0 11184.3 1980.55   5
  13  -2   0 11826.1 2066.12   5
 -13  -2   0 11052.5 1726.37  16
  13   2   1 9486.64 2140.37   6
  13  -2   1 8601.93 1150.26  23
  13   2   1 5594.27 862.832  23
  13  -2   1 9207.88 1198.08  20
  13   2   1 6474.80 861.319  20
  13   2   2 1433.13 893.147   6
  13   2   2 314.188 319.505  23
  13  -2   2 563.328 433.195  23
  13  -2   2 791.065 416.081  20
  13   2   3 22075.3 3190.93   6
  13   2   3 20531.1 1642.84  23
  13  -2   3 18530.0 1737.42  23
  13  -2   3 21514.7 1778.08  20
  13   2   3 24281.3 2992.04   9
  13  -2   3 21193.4 2807.05   9
  13   2   4 1544.97 1054.46   6
  13   2   4 551.754 392.143  23
  13  -2   4 561.855 363.197  23
  13  -2   4 245.119 295.411  20
  13   2   4-246.592 565.265   9
  13  -2   4 135.830 702.914   9
  13   2   5 9838.82 2099.08   6
  13  -2   5 9208.81 1178.28  20
  13   2   5 9047.99 1911.72   9
  13  -2   5 7897.50 1802.28   9
  13   2   5 9490.48 1824.46  13
  13   2   6 4056.22 1347.22   6
  13  -2   6 1826.54 951.260   6
  13   2   6 2280.49 1084.38   9
  13  -2   6 1170.53 754.328   9
  13   2   6-94.0269 432.781  13
  13  -2   6-594.537 514.954  13
  13   2   7 583.516 644.346   9
  13  -2   7-1256.44 759.350   9
  13   2   7 295.797 482.210  13
  13   2   8-974.768 721.424   9
  13  -2   8-621.772 598.560   9
  13   2   8 39.2874 322.144  13
  13   2   9-681.689 625.469   9
  13  -2   9 68.2086 369.894   9
  13   2   9-1378.16 693.203  13
  13   2  10-249.511 484.935   9
  13  -2  10-499.608 707.928   9
  13   2  11 172.087 370.983   9
  13  -2  11-35.5135 349.633   9
  13  -2  12-70.1601 266.733  22
  13   2  12 292.016 381.416   9
  13  -2  12 750.102 479.656   9
 -13   3  12-97.4744 238.077  26
 -13  -3  11 916.611 375.677  26
 -13   3  11 1075.08 410.444  26
 -13  -3  10 472.178 340.701  26
 -13   3  10 834.071 352.004  26
 -13  -3   9 99.2915 284.457  26
 -13   3   9-226.735 240.977  26
  13  -3  -9-24.3745 361.785   5
 -13   3   8 6158.37 993.865  26
  13  -3  -8 7166.50 1576.62   5
 -13  -3   8 5523.50 957.392  26
 -13  -3   7 10582.3 1300.95  26
  13  -3  -7 11398.2 2079.74   5
 -13  -3   6 1043.35 434.688  26
  13  -3  -6 1110.85 718.571   5
 -13  -3   5 2889.37 705.648  26
  13  -3  -5 2739.93 1128.28   5
 -13  -3   5 4338.90 1235.09  16
 -13   3   5 2972.29 1007.77  16
 -13  -3   4 773.515 412.346  26
  13  -3  -4 1067.36 803.641   5
 -13  -3   4 1571.08 857.428  16
 -13   3   4 1699.14 716.764  16
 -13  -3   3-301.359 398.577  26
  13   3  -3-20.8562 541.872   6
  13  -3  -3-191.820 435.829   5
 -13  -3   3 327.289 434.772  16
 -13   3   3 268.954 574.159  16
 -13  -3   2 216.327 335.041  26
  13   3  -2-703.367 688.648   6
  13  -3  -2-58.2454 506.504   5
 -13  -3   2-323.357 621.417  16
 -13   3   2-200.606 556.381  16
  13   3  -1 410.577 689.984   6
  13  -3  -1 542.073 600.873   5
 -13  -3   1-489.269 445.411  16
 -13   3   1 618.602 550.719  16
  13   3   0-426.321 673.561   6
  13   3   0 30.4095 212.673  23
  13  -3   0 235.007 309.754  23
 -13  -3   0 206.557 477.809  16
  13   3   1 1474.54 945.095   6
  13   3   1 381.187 348.487  23
  13  -3   1 123.712 276.521  23
  13  -3   1-32.2570 342.830  20
  13  -3   1 1233.92 781.420   9
  13   3   2 383.780 663.855   6
  13   3   2 777.229 295.699  23
  13  -3   2 36.2062 280.585  23
  13  -3   2-245.570 412.586  20
  13  -3   2 914.484 702.210   9
  13   3   3 6597.69 1884.58   6
  13   3   3 3803.78 716.537  23
  13  -3   3 5659.55 1059.34  23
  13  -3   3 6466.72 1009.35  20
  13   3   3 6725.03 1619.38   9
  13  -3   3 4067.86 1276.97   9
  13   3   4 761.798 877.144   6
  13  -3   4-81.0149 349.504  23
  13  -3   4 263.885 423.171  20
  13   3   4 1212.54 919.982   9
  13  -3   4 245.078 475.110   9
  13   3   4 327.779 356.072  13
  13   3   5 5050.37 1563.88   6
  13  -3   5 5590.28 972.158  20
  13   3   5 6709.56 1705.45   9
  13  -3   5 7339.45 1678.89   9
  13   3   5 4427.22 1345.50  13
  13   3   6-179.816 525.668   9
  13  -3   6 254.067 594.617   9
  13   3   6-322.557 476.747  13
  13  -3   6-411.107 494.107  13
  13   3   7 1406.76 736.899   9
  13  -3   7 1187.22 703.202   9
  13   3   7 1993.49 948.390  13
  13  -3   8 100.237 390.531   9
  13   3   8 1166.72 682.547  13
  13   3   9-374.784 751.993   9
  13  -3   9 866.733 738.710   9
  13   3   9 113.830 358.757  13
  13   3  10 341.498 558.140   9
  13  -3  10 173.735 566.634   9
  13   3  11-259.900 441.388   9
  13  -3  11-376.660 455.174   9
  13   3  12 507.764 446.079   9
  13  -3  12 425.688 409.441   9
 -13   4  12-428.115 296.698  26
 -13   4  11 153.223 272.226  26
 -13   4  10 219.007 278.677  26
 -13  -4  10 251.396 245.044  26
 -13  -4   9 17.9110 356.861  26
 -13   4   9 300.590 325.524  26
  13  -4  -9-504.538 493.271   5
 -13  -4   8-33.2982 358.921  26
  13  -4  -8-107.738 819.761   5
 -13  -4   7 1591.40 564.022  26
  13  -4  -7 2858.62 1028.03   5
 -13  -4   6-202.683 376.767  26
  13  -4  -6 692.470 500.116   5
 -13  -4   5 1740.71 586.121  26
  13  -4  -5 1643.72 944.979   5
 -13  -4   4 978.019 389.135  26
  13  -4  -4 685.942 593.184   5
 -13  -4   4 708.173 619.910  16
 -13   4   4 1301.53 449.132  16
 -13  -4   3 480.288 326.040  26
  13   4  -3-138.534 734.787   6
  13  -4  -3-204.093 525.930   6
  13  -4  -3-445.767 576.154   5
 -13  -4   3 467.756 608.392  16
 -13   4   3-126.943 387.002  16
 -13  -4   2 5461.77 927.138  26
  13   4  -2 4943.65 1615.56   6
  13  -4  -2 5238.50 1413.05   5
 -13  -4   2 6252.81 1447.36  16
 -13   4   2 4700.31 1175.53  16
  13   4  -1 629.392 1109.42   6
  13  -4  -1-641.944 614.878   5
 -13  -4   1 1692.91 795.302  16
  13   4   0 39182.6 4234.29   6
  13  -4   0 41838.0 2488.29  23
  13  -4   0 32395.2 3322.73   5
 -13  -4   0 37769.2 3366.95  16
  13   4   1 250.784 590.102   6
  13  -4   1 149.948 321.844  23
  13  -4   1 78.1038 387.778  20
 -13  -4  -1 287.395 535.076  16
  13  -4   1-1.48050 858.266   9
  13   4   2 367.950 911.381   6
  13  -4   2 2472.79 725.516  23
  13  -4   2 1780.50 608.797  20
  13  -4   2 946.879 703.131   9
  13   4   3 27510.7 3623.92   6
  13  -4   3 27913.7 2080.70  23
  13  -4   3 26663.9 2018.42  20
  13   4   3 26913.8 3127.79   9
  13  -4   3 25655.1 3080.43   9
  13   4   4-1022.07 805.178   6
  13  -4   4 49.0078 306.638  23
  13  -4   4-223.148 386.195  20
  13   4   4 81.3924 463.444   9
  13  -4   4-1096.95 763.722   9
  13   4   4-825.909 588.279  13
  13   4   5 3645.68 1230.45   6
  13   4   5 4133.56 1313.37   9
  13  -4   5 3557.18 1265.91   9
  13   4   5 3924.22 1193.93  13
  13   4   6 1696.52 896.106   9
  13  -4   6 2008.11 1006.96   9
  13   4   6 948.268 659.837  13
  13   4   7 284.912 701.663   9
  13  -4   7 1813.77 899.414   9
  13   4   7 240.173 344.978  13
  13   4   8 186.566 488.948   9
  13  -4   8-792.205 671.336   9
  13   4   8-369.125 471.064  13
  13   4   9 385.490 489.019   9
  13  -4   9-23.2269 384.504   9
  13   4   9-595.022 518.167  13
  13   4  10 300.780 613.532   9
  13  -4  10 189.443 376.321   9
  13   4  11 1205.52 696.408   9
  13  -4  11 291.381 459.027   9
  13   4  12 498.769 546.191   9
  13  -4  12 1307.37 563.035   9
 -13   5  12 1353.24 352.529  26
 -13  -5  11 199.894 373.018  11
 -13   5  11 376.162 312.577  26
 -13   5  10 8482.61 1059.23  26
 -13  -5   9-351.506 346.723  26
  13  -5  -9-663.681 538.727   5
 -13  -5   8 11292.7 1344.91  26
  13  -5  -8 13012.0 2066.11   5
  13  -5  -7-1040.68 725.350   5
 -13  -5   7 455.410 473.458  26
 -13  -5   6 1445.75 543.050  26
  13  -5  -6 2172.11 1003.48   5
 -13  -5   5 436.437 296.007  26
  13  -5  -5 72.0017 551.533   5
 -13  -5   4 691.940 505.308  26
  13  -5  -4-165.730 727.492   5
 -13  -5   4 1258.38 693.911  16
 -13   5   4 894.511 630.516  16
 -13  -5   3 562.016 293.223  26
  13  -5  -3 1252.94 748.647   5
 -13  -5   3 680.079 650.204  16
 -13   5   3-282.013 479.001  16
  13   5  -2 5201.47 1663.14   6
  13  -5  -2 3577.81 1275.64   5
 -13  -5   2 3667.84 1136.10  16
 -13   5   2 4965.83 1154.10  16
  13   5  -1 121.144 571.255   6
  13  -5  -1 324.798 524.868   5
 -13  -5   1 1138.10 829.487  16
  13   5   0 8041.24 2039.34   6
  13  -5   0 9736.15 1236.84  23
  13  -5   0 8693.08 1736.80   5
 -13  -5   0 8539.64 1741.55  16
  13   5   1-1196.44 900.117   6
  13  -5   1-590.140 469.228  23
  13  -5   1 529.399 438.867  20
 -13  -5  -1 250.621 467.559  16
  13  -5   1-752.084 641.378   9
  13   5   2 257.766 644.491   6
  13  -5   2 889.001 517.014  23
  13  -5   2 862.915 563.212  20
  13  -5   2 864.667 677.831   9
  13   5   3 564.744 841.573   6
  13  -5   3-21.1459 348.466  23
  13  -5   3 128.809 342.816  20
  13  -5   3 1173.11 749.021   9
  13   5   3 1522.27 774.170  13
  13   5   4 1418.70 933.545   6
  13  -5   4 159.678 394.312  23
  13  -5   4 203.973 324.847  20
  13  -5   4 444.652 678.951   9
  13   5   4 375.351 573.568  13
  13   5   5-798.563 700.531   6
  13   5   5 287.379 706.121   9
  13  -5   5-414.574 585.090   9
  13   5   5 147.556 345.196  13
  13   5   6-427.775 777.912   9
  13  -5   6-1119.32 749.635   9
  13   5   6 139.887 355.496  13
  13   5   7-1118.89 785.279   9
  13  -5   7-390.655 454.315   9
  13   5   7-281.365 453.275  13
  13   5   8 10239.5 1970.61   9
  13  -5   8 9304.23 1874.91   9
  13   5   8 11038.2 1889.86  13
  13   5   9 956.735 767.535   9
  13  -5   9-169.525 540.376   9
  13   5  10 10377.8 1798.04   9
  13  -5  10 9871.60 1774.73   9
  13   5  11 788.408 601.660   9
  13  -5  11 513.313 372.199   9
  13   5  12 55.3790 376.657   9
 -13   6  12-271.389 217.020  26
 -13  -6  11-522.103 351.159  11
 -13   6  11 145.780 259.256  26
 -13  -6  10-579.240 483.776  11
 -13   6  10 44.0211 261.195  26
  13  -6  -9 202.673 408.064   5
  13  -6  -8 240.519 639.038   5
 -13  -6   7-248.490 344.270  26
  13  -6  -7-213.135 484.421   5
 -13  -6   6 1924.43 635.768  26
  13  -6  -6 2159.48 1084.82   5
 -13  -6   5 435.287 382.243  26
  13  -6  -5 165.579 478.602   5
  13  -6  -4 740.103 634.734   5
  13  -6  -3 4168.93 1288.23   5
 -13  -6   3 3319.50 939.780  16
 -13   6   3 5133.57 1265.22  16
  13  -6  -2 28621.2 3279.60   5
 -13  -6   2 27088.8 2975.19  16
 -13   6   2 25966.3 2727.31  16
  13  -6  -1 1391.27 865.257   5
 -13  -6   1 658.751 707.099  16
  13   6   0 40904.1 4394.58   6
  13  -6   0 42229.4 2541.08  23
  13  -6   0 37572.1 3548.39   5
  13  -6   0 49735.5 2760.00  20
  13  -6   0 39809.2 3690.95   9
 -13  -6   0 38121.6 3446.82  16
  13   6   1 21714.3 3180.86   6
  13  -6   1 21349.0 1814.56  23
  13  -6   1 23172.8 1917.34  20
  13  -6   1 17291.0 2296.72   5
  13  -6   1 18022.1 2610.70   9
 -13  -6  -1 23272.9 2666.83  16
  13   6   2 18948.1 3059.00   6
  13  -6   2 21118.8 1858.92  23
  13  -6   2 23652.4 1914.47  20
  13  -6   2 21007.8 2796.11   9
  13   6   2 18173.3 2477.99  13
  13   6   3 663.043 720.804   6
  13  -6   3-88.8564 315.269  23
  13  -6   3-291.547 422.620  20
  13  -6   3-494.093 598.198   9
  13   6   3 38.0216 552.112  13
  13   6   4-138.842 551.313   6
  13  -6   4 354.060 396.059  23
  13   6   4-301.718 559.162   9
  13  -6   4-355.736 575.028   9
  13   6   4 112.090 399.730  13
  13  -6   5-1109.60 755.543   9
  13   6   5 163.260 393.828  13
  13   6   6-619.536 806.026   9
  13  -6   6-31.1986 461.051   9
  13   6   6-191.361 379.624  13
  13   6   7 3007.98 1261.33   9
  13  -6   7 1654.10 881.475   9
  13   6   7 1375.91 916.354  13
  13   6   8-100.651 574.981   9
  13  -6   8 1153.20 689.057   9
  13   6   8-74.3437 332.086  13
  13   6   9-225.263 565.365   9
  13  -6   9-15.8531 574.365   9
  13   6  10 245.487 445.580   9
  13  -6  10 901.263 668.180   9
  13   6  11 8.41677 394.591   9
  13  -6  11-1791.88 716.493   9
  13   6  12 524.575 462.607   9
 -13   7  12 60.6726 207.746  26
 -13  -7  11 1267.19 584.323  11
 -13   7  11 3484.41 614.407  26
 -13  -7  10 3341.79 971.267  11
 -13  -7   9-952.119 602.549  11
  13  -7  -9 1162.73 774.450   5
  13  -7  -8 2605.61 1053.99   5
  13  -7  -7 15310.6 2337.23   5
  13  -7  -6 4587.10 1332.73   5
  13  -7  -5 46.8474 640.635   5
  13  -7  -4 3007.21 1271.25   5
  13  -7  -3 6545.74 1675.43   5
 -13   7   3 4746.94 1235.58  16
  13  -7  -2 7917.15 1823.84   5
 -13  -7   2 8058.01 1651.40  16
  13  -7  -1 2186.75 627.878  23
 -13  -7   1 2700.01 1023.45  16
  13  -7   0 298.728 397.885  23
  13  -7   0 1406.59 506.099  20
  13  -7   0 1086.10 928.779   5
 -13  -7   0 850.105 602.367  16
  13   7   0 1863.63 821.090  13
  13  -7   0-333.994 592.416   9
  13  -7   1-141.170 383.316  23
  13  -7   1-182.616 382.916  20
 -13  -7  -1 568.553 544.481  16
  13  -7   1-65.2239 464.468   9
  13  -7   2 1461.13 619.109  23
  13  -7   2 726.753 511.969  20
  13   7   2 1274.64 851.032  13
  13  -7   2 790.056 671.778   9
  13  -7   3 5848.98 972.361  23
  13  -7   3 6538.25 1595.35   9
  13   7   3 4839.02 1265.77  13
  13   7   4 1299.94 802.219   9
  13  -7   4 1349.04 775.107   9
  13   7   4 128.008 526.111  13
  13   7   5 460.598 543.308   9
  13  -7   5-36.4650 470.232   9
  13   7   5 85.0845 481.721  13
  13   7   6-99.3948 470.018   9
  13  -7   6 53.0653 440.699   9
  13   7   6 162.072 554.212  13
  13   7   7 10799.3 2077.91   9
  13  -7   7 6909.49 1680.85   9
  13   7   7 8932.66 1743.64  13
  13   7   8 424.962 527.652   9
  13  -7   8 1258.76 869.150   9
  13   7   8 588.962 496.467  13
  13   7   9 409.015 511.646   9
  13  -7   9 126.754 428.220   9
  13   7  10 4832.97 1262.48   9
  13  -7  10 2993.50 1045.33   9
  13   7  11 1421.26 690.668   9
  13  -7  11 1912.39 682.020   9
  13   7  12 239.456 292.620   9
 -13   8  12 472.044 280.452  26
 -13  -8  11 394.729 342.889  11
 -13   8  11 491.764 274.288  26
 -13  -8  10-647.384 500.179  11
 -13  -8   9 63.0251 356.667  11
  13  -8  -9 57.7365 346.087   5
  13  -8  -8-1412.52 736.285   5
  13  -8  -7 1009.15 693.764   5
  13  -8  -6 2019.49 946.689   5
  13  -8  -5 1035.49 812.187   5
  13  -8  -4 1848.80 952.372   5
  13  -8  -3 5148.87 1481.99   5
  13  -8  -2 8315.96 1788.63   5
  13  -8  -1 6239.12 1546.90   9
  13  -8  -1 3946.49 804.218  23
  13  -8  -1 4042.73 1245.00   5
 -13  -8   1 4891.63 1401.62  16
  13  -8   0-51.3399 396.819  23
  13  -8   0 650.844 428.771  20
  13  -8   0-459.153 562.722   5
 -13  -8   0 1090.57 706.340  16
  13   8   0 1100.96 677.182  13
  13  -8   0 1033.35 460.658   9
  13  -8   1 2349.08 648.754  23
  13  -8   1 1787.29 580.167  20
  13  -8   1 3314.76 1099.99   5
 -13  -8  -1 3734.82 1166.73  16
  13   8   1 2441.60 1012.54  13
  13  -8   1 1868.28 909.624   9
  13  -8   2 8254.89 1144.67  23
  13   8   2 10007.7 1830.80  13
  13  -8   2 11629.8 2123.65   9
  13  -8   3 27167.4 1979.50  23
  13  -8   3 27672.6 3301.70   9
  13   8   3 31226.9 3234.94  13
  13   8   4-755.676 635.450  13
  13  -8   4 335.926 682.759   9
  13   8   5 2738.63 1122.85   9
  13  -8   5 873.251 717.761   9
  13   8   5 1508.85 724.645  13
  13   8   6 514.371 447.989   9
  13   8   6-256.799 434.401  13
  13   8   7 3800.62 1217.75   9
  13  -8   7 5408.13 1469.08   9
  13   8   7 4235.36 1205.08  13
  13   8   8 110.079 419.366   9
  13  -8   8 348.005 590.973   9
  13   8   9 994.231 775.751   9
  13  -8   9 320.617 472.145   9
  13   8  10 347.963 488.764   9
  13  -8  10 704.399 543.711   9
  13   8  11-319.911 420.511   9
  13  -8  11-868.935 527.001   9
 -13  -9  11 1079.53 502.026  11
 -13   9  11 1079.41 359.122  26
 -13  -9  10 2401.71 816.864  11
 -13  -9   9-710.776 559.127  11
  13  -9  -9 389.482 442.200   5
 -13  -9   8 1386.14 571.401  11
  13  -9  -8 1029.05 690.103   5
  13  -9  -7 5259.70 1408.63   5
  13  -9  -6 544.640 620.567   5
  13  -9  -5 1502.97 983.997   5
  13  -9  -4 14446.5 2411.57   5
  13  -9  -3-34.9507 585.407   5
  13  -9  -2 7846.89 1078.90  23
  13  -9  -2 7925.74 1766.51   5
  13  -9  -1 3684.29 1174.45   9
  13  -9  -1 3074.26 735.512  23
  13  -9  -1 2059.41 1069.84   5
  13  -9   0-196.995 514.417   9
  13  -9   0 517.926 362.707  23
  13  -9   0 400.935 797.184   5
  13  -9   1-145.422 317.233  23
  13   9   1 382.659 557.418  13
  13  -9   1-229.561 596.645   9
  13  -9   2-131.452 324.953  23
  13   9   2-183.513 390.481  13
  13  -9   2 271.142 526.805   9
  13  -9   3 2946.65 693.259  23
  13   9   3 1451.15 702.588  13
  13  -9   3 2845.80 1097.17   9
  13   9   4 1107.31 590.523   9
  13   9   4 666.184 559.633  13
  13  -9   4 218.956 468.402   9
  13   9   5 5550.93 1399.71  13
  13  -9   5 4210.66 1321.88   9
  13   9   6-239.307 578.441   9
  13   9   6 543.289 546.125  13
  13  -9   6 11.7891 463.619   9
  13   9   7 1654.13 942.002   9
  13  -9   7 827.703 681.837   9
  13   9   7 724.156 589.619  13
  13   9   8 1131.37 819.121   9
  13  -9   8 2240.14 920.864   9
  13   9   9 491.707 526.260   9
  13  -9   9 284.029 389.953   9
  13   9  10 1670.23 771.452   9
  13  -9  10 1368.29 588.049   9
  13   9  11 1147.58 464.814   7
  13   9  11 1370.76 594.650   9
 -13  10  11 161.747 183.794  26
 -13 -10  10 700.564 455.519  11
 -13 -10   9 532.679 496.355  11
  13 -10  -9-132.865 387.374   5
 -13 -10   8 602.942 497.918  11
  13 -10  -8 1117.71 754.343   5
 -13 -10   7 1147.27 667.437  11
  13 -10  -7 1598.03 895.313   5
  13 -10  -6-80.1192 479.830   5
  13 -10  -5-3789.96 1266.01   5
  13 -10  -4 8546.60 1871.21   5
  13 -10  -3 1775.94 582.054  23
  13 -10  -3 1601.00 905.774   5
  13 -10  -2 3301.82 697.370  23
  13 -10  -2 2092.99 992.858   5
  13 -10  -1 9592.51 1984.25   9
  13 -10  -1 9117.31 1100.64  23
  13 -10  -1 9739.87 1913.78   5
 -13 -10   0 18410.9 1838.98  25
  13 -10   0 19314.0 1635.09  23
  13 -10   0 19361.1 2656.97   5
  13 -10   0 19159.8 2733.78   9
  13 -10   1 1288.79 874.393   9
  13 -10   1-67.7325 347.578  23
  13 -10   1 417.277 490.755   5
  13  10   1 603.412 554.200  13
  13 -10   2 29231.6 1970.72  23
  13 -10   2 25073.4 3184.52   9
  13  10   2 29015.8 3064.38  13
  13  10   3 1555.89 794.013  13
  13 -10   3 2208.85 1120.32   9
  13  10   4 655.188 609.460   9
  13  10   4 190.972 407.124  13
  13 -10   4 875.403 623.853   9
  13  10   5 6114.90 1594.75   9
  13  10   5 4174.31 1204.29  13
  13 -10   5 3664.23 1276.80   9
  13  10   6 487.699 721.984   9
  13  10   6-531.876 516.630  13
  13 -10   6 343.443 670.066   9
  13  10   7 576.879 688.779   9
  13 -10   7 613.021 632.292   9
  13  10   8 369.084 653.013   9
  13 -10   8 1123.96 729.403   9
  13  10   9 449.453 532.181   9
  13 -10   9-430.512 487.985   9
  13  10  10 418.695 471.618   9
  13 -10  10 281.071 382.506   9
  13  10  11-262.360 341.039   7
  13  10  11 339.887 309.781   9
 -13 -11  10 1075.05 513.400  11
 -13 -11  10 716.670 328.660  25
 -13 -11   9-1448.70 636.921  11
  13 -11  -9 598.407 493.479   5
 -13 -11   8 10986.9 1720.67  11
  13 -11  -8 12441.4 1866.43   5
 -13 -11   7-746.664 566.767  11
  13 -11  -7 625.040 557.566   5
  13 -11  -6-104.283 560.934   5
  13 -11  -5-58.2083 539.269   5
  13 -11  -4 669.995 665.912   5
  13 -11  -3 6214.60 869.435  23
  13 -11  -3 4612.10 1369.14   5
  13 -11  -2-386.116 568.657   9
  13 -11  -2 1242.86 434.793  23
  13 -11  -2 804.276 602.773   5
  13 -11  -1 1136.12 761.093   9
 -13 -11   1 1110.74 513.923  25
  13 -11  -1 1334.75 486.579  23
  13 -11  -1-420.635 866.605   5
  13 -11   0 226.822 576.685   9
 -13 -11   0-358.010 274.423  25
  13 -11   0 125.439 329.584  23
  13 -11   0-404.800 560.042   5
  13 -11   1 164.461 527.791   9
 -13 -11  -1 694.631 446.911  25
  13 -11   1-29.9032 283.314  23
  13 -11   1 1210.20 603.763   5
  13 -11   2 1270.98 482.539  23
  13  11   2-398.923 478.619  13
  13 -11   2 1039.37 569.530   9
  13  11   3 21.4861 570.904  13
  13 -11   3 626.718 722.510   9
  13  11   4 507.604 600.485  13
  13 -11   4 428.739 664.236   9
  13  11   5 13.9523 548.797   9
  13  11   5 708.745 667.910  13
  13 -11   5 62.9010 447.272   9
  13  11   6 955.239 838.291   9
  13 -11   6 156.307 578.890   9
  13  11   7 1398.13 931.212   9
  13 -11   7 1297.18 895.324   9
  13  11   8 2531.71 986.575   9
  13 -11   8 1458.47 735.487   9
  13  11   9 2116.32 840.576   9
  13 -11   9 715.672 513.831   9
  13  11  10 7099.27 1284.99   9
  13 -11  10 6226.70 1175.35   9
 -13 -12  10 644.366 395.414  11
 -13 -12  10 299.803 225.084  25
 -13 -12   9 418.483 369.188  11
 -13 -12   9 329.535 298.722  25
  13 -12  -9 708.559 438.712   5
 -13 -12   8 265.942 408.666  11
  13 -12  -8 590.662 405.401   5
 -13 -12   7 393.578 432.151  11
  13 -12  -7-439.418 548.775   5
 -13 -12   6 238.469 434.725  11
  13 -12  -6 634.492 667.597   5
  13 -12  -5-182.556 491.916   5
  13 -12  -4 1371.08 825.214   5
  13 -12  -3 14050.1 2329.82   5
 -13 -12   2 1588.33 592.422  25
  13 -12  -2 1969.16 984.057   5
 -13 -12   1 351.284 407.723  25
  13 -12  -1-229.768 511.997   5
  13 -12   0 12842.8 2235.99   9
 -13 -12   0 13067.6 1527.91  25
  13 -12   0 11691.4 2029.10   5
  13 -12   1 971.054 770.043   9
 -13 -12  -1 1116.57 502.223  25
  13 -12   1 1366.01 746.275   5
  13  12   2 2074.77 843.692  13
  13 -12   2 2334.30 987.902   9
  13  12   3 4906.05 1307.79  13
  13 -12   3 4186.25 1357.39   9
  13  12   4 600.030 506.399  13
  13 -12   4 737.231 635.211   9
  13  12   5-73.3734 508.974   9
  13 -12   5 309.179 522.945   9
  13  12   6 2547.00 1064.44   9
  13 -12   6 2692.05 1030.16   9
  13  12   7 1890.05 906.127   9
  13 -12   7 1979.92 964.339   9
  13  12   8 642.072 637.057   9
  13 -12   8 851.662 619.115   9
  13  12   9-961.238 601.914   9
  13 -12   9 261.625 391.420   9
  13  12  10-499.015 352.712   7
  13  12  10 114.808 307.993   9
 -13 -13   9 347.458 345.800  11
 -13 -13   9-26.5040 223.983  25
 -13 -13   8 1788.98 510.449  25
  13 -13  -8 1040.60 561.317   5
 -13 -13   7 1375.16 664.181  11
 -13 -13   7 1594.10 540.798  25
  13 -13  -7 1514.13 731.387   5
 -13 -13   6 420.605 428.063  11
 -13 -13   6 542.426 432.154  25
  13 -13  -6-544.277 467.687   5
 -13 -13   5 3380.07 1071.58  11
 -13 -13   5 4124.57 875.721  25
  13 -13  -5 3373.54 1144.93   5
 -13 -13   4 251.589 392.014  25
  13 -13  -4 299.919 678.910   5
 -13 -13   3 6943.90 1131.30  25
  13 -13  -3 7780.81 1729.55   5
 -13 -13   2 554.663 425.522  25
  13 -13  -2-934.090 709.933   5
  13 -13  -1-350.119 529.797   9
 -13 -13   1-215.039 398.017  25
  13 -13  -1 497.455 585.476   5
  13 -13   0 333.726 581.751   9
 -13 -13   0 118.104 329.426  25
  13 -13   0 832.856 626.116   5
  13 -13   1 189.707 543.005   9
 -13 -13  -1 1139.02 507.367  25
  13 -13   1 472.734 531.955   5
  13 -13   2 220.838 436.408   9
  13 -13   3 2225.21 1030.99   9
  13 -13   4 537.647 714.407   9
  13  13   5 441.780 550.484   9
  13 -13   5 476.155 582.017   9
  13  13   6-228.557 485.342   9
  13 -13   6 277.164 416.598   9
  13  13   7 2715.97 903.678   9
  13 -13   7 4152.55 1254.92   9
  13  13   8 1128.36 634.013   9
  13 -13   8 2133.16 843.573   9
  13  13   9 791.517 447.705   9
  13 -13   9 1197.45 576.635   9
 -13 -14   8 273.393 345.224  11
  13 -14  -8 189.525 283.813   5
 -13 -14   8-479.074 293.375  25
 -13 -14   7 913.129 535.503  11
 -13 -14   7 338.697 258.707  25
  13 -14  -7 935.074 609.665   5
 -13 -14   6 596.461 542.446  11
 -13 -14   6 122.455 277.852  25
  13 -14  -6 360.262 531.081   5
 -13 -14   5 1453.66 694.299  11
 -13 -14   5 899.460 499.660  25
  13 -14  -5 645.941 611.641   5
 -13 -14   4 191.780 364.410  25
  13 -14  -4-44.2930 518.413   5
 -13 -14   3 1680.68 581.808  25
  13 -14  -3 4049.75 1260.77   5
 -13 -14   2 12.7883 322.511  25
  13 -14  -2 345.636 480.983   5
  13 -14  -1 2083.14 902.740   9
 -13 -14   1 2538.69 738.831  25
  13 -14  -1 2311.66 1000.47   5
  13 -14   0 3000.45 1105.04   9
 -13 -14   0 2632.67 676.993  25
  13 -14   0 2297.14 836.750   5
  13 -14   1 8997.77 1862.45   9
 -13 -14  -1 11377.1 1348.22  25
  13 -14   1 10047.4 1752.83   5
 -13 -14  -2 4704.75 836.657  25
  13 -14   2 4036.71 1284.06   9
  13 -14   3 4022.47 1292.53   9
  13 -14   4 873.230 816.836   9
  13  14   5 1166.80 589.005   9
  13 -14   5 71.6469 511.056   9
  13  14   6 1528.26 762.335   9
  13 -14   6 509.974 532.561   9
  13  14   7-77.1344 370.325   9
  13 -14   7 194.214 428.147   9
  13 -14   8-69.0507 317.353   9
  13  14   9 30.0959 252.903   7
 -13 -15   8 1304.45 545.716  11
 -13 -15   8 2525.20 521.695  25
  13 -15  -8 3294.12 768.026   5
 -13 -15   7 2139.20 674.093  11
 -13 -15   7 2143.77 539.732  25
  13 -15  -7 3120.58 855.287   5
 -13 -15   6 167.147 281.370  25
  13 -15  -6-1.09969 419.220   5
 -13 -15   5-64.9356 361.348  11
 -13 -15   5 194.614 330.462  25
  13 -15  -5 82.3486 400.724   5
 -13 -15   4 454.330 359.079  25
  13 -15  -4-446.027 614.703   5
  13 -15  -3 737.188 460.113   9
 -13 -15   3 282.517 343.365  25
  13 -15  -3-212.718 434.132   5
 -13 -15   2 1603.96 552.657  25
  13 -15  -2 619.138 626.768   5
  13 -15  -1 2327.16 909.724   9
 -13 -15   1 416.163 380.146  25
  13 -15  -1 1358.80 741.798   5
  13 -15   0 1035.09 760.104   9
 -13 -15   0 1322.75 497.393  25
  13 -15   0 2623.24 876.752   5
  13 -15   1-318.604 503.836   9
 -13 -15  -1-337.861 363.600  25
  13 -15   1-697.137 552.517   5
  13 -15   2 605.776 752.664   9
  13 -15   3 1025.43 677.222   9
  13 -15   4 780.506 715.947   9
  13 -15   5 529.662 571.300   9
  13 -15   6-160.417 525.149   9
  13 -15   7 162.690 346.308   9
  13  15   8 1847.52 546.102   7
  13 -15   8 619.474 440.938   9
 -13 -16   7-234.566 271.695  25
  13 -16  -7 122.916 394.105   5
 -13 -16   6 760.546 321.303  25
  13 -16  -6 560.353 460.760   5
 -13 -16   5 453.708 340.491  25
  13 -16  -5 445.753 464.466   5
 -13 -16   4 480.841 387.378  25
  13 -16  -4 238.755 407.721   5
  13 -16  -3 1750.91 694.971   9
 -13 -16   3 1730.87 541.385  25
  13 -16  -3 632.204 596.347   5
  13 -16  -2 1894.64 753.220   9
 -13 -16   2 1501.57 514.832  25
  13 -16  -2 1513.23 671.352   5
  13 -16  -1 318.588 531.741   9
 -13 -16   1-347.612 350.364  25
  13 -16  -1-756.233 768.554   5
 -13 -16   0 14546.2 1437.19  25
  13 -16   0 12977.2 1853.94   5
  13 -16   0 13676.7 2064.40   9
  13 -16   1-90.1181 410.527   9
 -13 -16  -1-142.380 331.610  25
  13 -16   2 4493.06 1260.64   9
  13 -16   3 909.684 597.681   9
  13 -16   4 708.573 607.504   9
  13 -16   5-22.4266 343.477   9
  13  16   6 60.5588 276.384   7
  13 -16   6 567.965 598.184   9
  13  16   7 347.410 281.604   7
  13 -16   7 239.000 346.192   9
 -13 -17   6 375.591 304.708  25
  13 -17  -6-977.069 500.652   5
 -13 -17   5 989.483 390.920  25
  13 -17  -5 438.359 360.210   5
 -13 -17   4 1291.46 433.505  25
  13 -17  -4 772.861 418.460   5
  13 -17  -3 2307.94 765.164   9
 -13 -17   3 2305.03 569.670  25
  13 -17  -3 2350.34 755.484   5
  13 -17  -2-166.629 403.435   9
 -13 -17   2 170.490 240.926  25
  13 -17  -2-267.604 413.627   5
  13 -17  -1 643.401 507.821   9
 -13 -17   1 804.162 385.404  25
  13 -17  -1 132.395 423.264   5
  13 -17   0 966.011 618.257   9
 -13 -17   0 416.860 292.820  25
  13 -17   0 866.353 521.617   5
  13 -17   1 371.526 329.672   9
  13 -17   2 318.636 441.380   9
  13 -17   3 193.901 445.208   9
  13 -17   4-590.575 503.623   9
  13 -17   5 45.8532 354.597   9
  13 -17   6 486.261 424.715   9
 -13 -18   5 1293.04 348.144  25
  13 -18  -5 1797.09 687.759   5
 -13 -18   4 228.051 213.594  25
  13 -18  -4 586.689 524.941   5
  13 -18  -3 2123.11 699.772   9
 -13 -18   3 1801.83 473.742  25
  13 -18  -3 2062.98 700.420   5
  13 -18  -2 1092.57 518.511   9
 -13 -18   2 1373.71 447.388  25
  13 -18  -2 1115.00 567.751   5
  13 -18  -1 133.372 301.318   9
  13 -18  -1 168.639 352.187   5
  13 -18   0 511.709 486.501   9
  13 -18   0 717.050 453.398   5
  13 -18   1 1062.68 584.345   9
  13 -18   2 1327.53 731.897   9
  13 -18   3 2588.15 842.426   9
  13 -18   4 455.698 356.049   9
  13 -18   5 497.857 429.396   9
  13 -19  -4 3491.49 800.225   5
  13 -19  -3 519.355 432.888   5
  13 -19  -2 539.499 427.285   5
  13 -19  -2 756.741 506.678   9
  13 -19  -1 242.686 313.507   5
  13 -19  -1 248.625 283.145   9
  13 -19   0 251.830 287.433   5
  13 -19   0-57.1711 416.282   9
  13 -19   1 147.523 284.838   9
  13 -19   2 282.811 357.919   9
  13 -19   3-487.038 391.602   9
  13 -19   4-109.060 307.500   9
  13 -20   0 1878.20 619.656   9
  13 -20   1 561.866 370.526   9
 -14   0  11 302.389 265.316  26
 -14   0  10 1783.82 503.375  26
 -14   0   9-648.062 434.158  26
 -14   0   8 372.041 338.620  26
 -14   0   7 82.5352 307.815  26
 -14   0   6 8541.72 1183.83  26
  14   0  -6 8967.47 1815.13   5
 -14   0   5-315.547 372.337  26
  14   0  -5-1052.92 771.327   5
 -14   0   4 2587.51 643.958  26
  14   0  -4 3108.21 1245.17   5
 -14   0   3 460.315 322.710  26
  14   0  -3-210.107 507.314   5
  14   0  -2 460.996 752.805   6
  14   0  -2 2095.91 1067.24   5
 -14   0   2 286.885 479.446  16
  14   0  -1-138.506 499.639   6
  14   0  -1 99.1394 262.477  23
  14   0  -1-2842.20 1102.32   5
 -14   0   1-3337.77 1032.25  16
  14   0   0-898.269 770.334   6
  14   0   0-183.759 256.338  23
  14   0   0 94.9206 450.649   5
  14   0   0 876.801 462.655  20
  14   0   1 90.7222 264.065  23
  14   0   1-165.867 489.718   5
  14   0   1-275.341 297.204  20
  14   0   2-415.922 702.894   6
  14   0   2 272.468 354.814  23
  14   0   2 822.522 459.784  20
  14   0   2-304.456 524.796   9
  14   0   3 803.748 748.265   6
  14   0   3-557.959 475.940  23
  14   0   3-163.603 308.503  20
  14   0   3-96.6230 417.726   9
  14   0   4 5012.36 1647.34   6
  14   0   4 5203.85 923.313  23
  14   0   4 2916.23 1082.55   9
  14   0   5 422.001 638.046   6
  14   0   5-429.677 561.755   9
  14   0   5-936.124 653.954  13
  14   0   6 11404.4 2171.54   6
  14   0   6 8527.71 1813.55   9
  14   0   6 8908.01 1741.46  13
  14   0   7 204.894 388.715   9
  14   0   7-1565.05 758.599  13
  14   0   8 9773.65 1867.72   9
  14   0   8 7765.68 1623.58  13
  14   0   9-849.437 619.948   9
  14   0  10-716.267 543.689   9
  14   0  11 844.706 554.621   9
 -14   1  12 925.444 314.103  26
 -14  -1  11 845.732 350.975  26
 -14   1  11 152.307 282.707  26
 -14  -1  10-115.143 214.265  26
 -14   1  10-417.989 315.650  26
 -14  -1   9-68.1200 299.210  26
 -14   1   9-1.09421 359.622  26
 -14  -1   8 387.411 317.930  26
 -14   1   8-22.1035 244.665  26
 -14  -1   7 1313.59 520.929  26
 -14   1   7 473.691 455.381  26
  14  -1  -7-93.9288 549.974   5
 -14  -1   6 2742.70 706.557  26
 -14   1   6 2503.81 702.680  26
  14  -1  -6 2792.22 999.195   5
 -14  -1   5-220.423 375.859  26
 -14   1   5 23.7529 267.270  26
  14   1  -5-752.556 690.241   5
  14  -1  -5 137.274 493.124   5
 -14  -1   4 241.985 330.270  26
 -14   1   4-341.745 366.075  26
  14   1  -4-76.4993 560.222   5
  14  -1  -4-642.961 628.876   5
 -14  -1   3-303.913 340.228  26
  14   1  -3-979.966 751.479   6
  14  -1  -3 1137.06 1110.72   6
  14   1  -3 666.292 737.690   5
  14  -1  -3-117.820 640.936   5
  14   1  -2 2821.00 1281.21   6
  14  -1  -2 4556.25 1580.20   6
  14   1  -2 3235.29 1193.70   5
  14  -1  -2 2240.33 986.509   5
 -14  -1   2 1812.50 777.457  16
 -14   1   2 4172.01 1169.72  16
  14   1  -1 8899.84 2026.67   6
  14  -1  -1 9617.00 2120.51   6
  14   1  -1 7955.00 1047.73  23
  14   1  -1 6544.33 1564.38   5
  14  -1  -1 6803.32 1618.56   5
 -14  -1   1 6320.66 1410.93  16
 -14   1   1 7014.36 1448.12  16
  14   1   0 2764.25 1277.46   6
  14  -1   0 1943.05 962.321   6
  14   1   0 1810.38 554.966  23
  14  -1   0 2709.05 676.723  23
  14   1   0 3421.12 1173.21   5
  14  -1   0 2709.38 929.618   5
  14   1   0 3040.26 644.616  20
  14  -1   0 2768.82 690.741  20
  14   1   1 5558.56 1678.59   6
  14  -1   1 7568.56 2023.58   6
  14   1   1 5287.31 892.054  23
  14  -1   1 5160.60 931.450  23
  14   1   1 5187.87 838.396  20
  14  -1   1 4555.23 841.625  20
  14   1   2 14627.1 2680.04   6
  14   1   2 12591.9 1351.81  23
  14  -1   2 12530.5 1460.76  23
  14  -1   2 13903.7 2641.33   6
  14   1   2 11408.8 1211.08  20
  14  -1   2 13890.0 1429.31  20
  14  -1   2 18683.2 2565.79   9
  14   1   3 3099.43 1388.67   6
  14   1   3 1666.05 506.993  23
  14  -1   3 2481.46 682.859  23
  14  -1   3 2509.64 1364.16   6
  14   1   3 1389.25 845.557   9
  14  -1   3 1950.97 970.763   9
  14   1   4 1928.29 1106.48   6
  14  -1   4 1053.90 539.633  23
  14  -1   4 1006.12 714.370   6
  14   1   4 1650.69 753.169   9
  14  -1   4 724.432 528.456   9
  14   1   5 1425.83 955.818   6
  14  -1   5 2327.44 1152.04   6
  14   1   5 1818.99 951.571   9
  14  -1   5 772.769 440.537   9
  14   1   5-91.0081 401.997  13
  14  -1   5 1580.61 724.656  13
  14   1   6 1470.45 1014.78   6
  14  -1   6 2518.21 1199.29   6
  14   1   6 3482.62 1255.53   9
  14  -1   6 2214.87 986.541   9
  14   1   6 1843.39 916.423  13
  14  -1   6 2253.53 935.246  13
  14   1   7-763.204 614.526   9
  14  -1   7-18.0579 410.616   9
  14   1   7 321.365 373.473  13
  14  -1   7 560.927 512.064  13
  14   1   8-22.7726 511.761   9
  14  -1   8 274.538 477.232   9
  14   1   8 843.394 574.738  13
  14   1   9 35.2692 428.873   9
  14  -1   9-133.560 475.479   9
  14   1   9 569.963 488.592  13
  14   1  10-3.47440 407.747   9
  14  -1  10-346.850 507.973   9
  14   1  11 53.3362 249.594  22
  14   1  11-402.977 513.448   9
  14  -1  11-182.787 431.314   9
  14   1  12 334.632 357.113   9
 -14   2  12 540.283 250.560  26
 -14   2  11 455.287 241.818  26
 -14  -2  10 2559.99 580.086  26
 -14   2  10 3088.12 634.752  26
 -14  -2   9 13543.5 1325.61  26
 -14   2   9 12707.7 1303.39  26
 -14  -2   8 576.987 344.834  26
 -14   2   8 338.224 351.031  26
 -14  -2   7 6801.68 1039.18  26
 -14   2   7 6328.85 1028.48  26
  14  -2  -7 5394.18 1367.94   5
 -14  -2   6 850.040 419.483  26
 -14   2   6 1795.44 567.558  26
  14  -2  -6 344.122 516.116   5
 -14  -2   5 5084.17 904.355  26
 -14   2   5 4723.32 851.437  26
  14  -2  -5 5079.99 1451.65   5
 -14  -2   4-79.1412 368.398  26
 -14   2   4-403.081 302.726  26
  14  -2  -4-428.817 494.707   5
 -14  -2   3 290.599 392.893  26
  14   2  -3-365.103 593.240   6
  14  -2  -3-819.248 718.720   6
  14  -2  -3 506.572 524.803   5
  14   2  -2-1177.54 884.144   6
  14  -2  -2 1479.81 902.546   6
  14  -2  -2 524.498 801.346   5
 -14  -2   2 717.874 490.855  16
 -14   2   2-188.240 421.237  16
  14   2  -1 379.641 542.071   6
  14  -2  -1-180.091 843.261   6
  14   2  -1 834.448 433.697  23
  14  -2  -1 632.660 410.053  23
  14  -2  -1 729.441 494.489   5
 -14  -2   1 135.465 595.970  16
  14   2   0 797.024 742.681   6
  14  -2   0-474.426 713.548   6
  14   2   0-283.755 300.843  23
  14  -2   0 330.549 384.599  23
  14  -2   0-364.734 456.382   5
  14  -2   0 669.076 400.536  20
  14   2   1 1142.08 861.977   6
  14   2   1 1528.76 515.683  23
  14  -2   1 927.989 900.093   6
  14  -2   1 1787.49 637.684  23
  14  -2   1 1940.06 594.910  20
  14   2   2 2230.92 1060.76   6
  14   2   2 2770.73 656.055  23
  14  -2   2 2188.06 719.779  23
  14  -2   2 2792.44 680.587  20
  14  -2   2 3118.85 920.955   9
  14   2   3 539.140 699.004   6
  14   2   3 1557.86 507.560  23
  14  -2   3 661.893 421.339  23
  14   2   3 1422.03 882.268   9
  14  -2   3 117.791 441.565   9
  14   2   4-63.6301 756.245   6
  14  -2   4-21.3934 314.061  23
  14  -2   4 168.878 534.349   6
  14   2   4 1198.76 762.102   9
  14  -2   4 1625.40 884.304   9
  14   2   5 4916.80 1468.76   6
  14  -2   5 7491.29 1812.86   6
  14   2   5 5735.45 1524.54   9
  14  -2   5 4678.98 1417.11   9
  14   2   5 6099.09 1509.06  13
  14  -2   5 4596.88 1308.50  13
  14   2   6 1763.99 892.915   6
  14  -2   6-1908.01 953.811   6
  14   2   6-129.941 516.206   9
  14  -2   6-241.221 555.051   9
  14   2   6 62.7470 493.352  13
  14  -2   6 1841.58 850.317  13
  14   2   7-1468.68 827.086   9
  14  -2   7-764.019 735.344   9
  14   2   7 9.43541 341.461  13
  14  -2   7 765.344 367.229  13
  14   2   8 741.260 641.295   9
  14  -2   8 1199.19 822.126   9
  14   2   8 2041.26 783.764  13
  14   2   9 12272.1 1967.85   9
  14  -2   9 14671.2 2255.76   9
  14   2   9 11123.4 1728.84  13
  14   2  10 1970.49 804.555   9
  14  -2  10 1144.25 656.626   9
  14   2  11 4335.49 1076.49   9
  14  -2  11 4098.94 1025.39   9
 -14   3  12 538.387 277.309  26
 -14   3  11 134.474 266.704  26
 -14  -3  10-132.342 237.757  26
 -14   3  10-377.772 344.399  26
 -14  -3   9 570.693 364.662  26
 -14   3   9 550.555 408.834  26
 -14  -3   8-102.629 284.190  26
 -14   3   8-229.954 252.221  26
  14  -3  -8-560.607 541.412   5
 -14  -3   7 3157.82 709.347  26
 -14   3   7 2724.50 708.050  26
  14  -3  -7 3285.53 1154.33   5
 -14  -3   6-142.428 343.192  26
 -14   3   6-143.109 330.575  26
  14  -3  -6-364.619 712.497   5
 -14  -3   5 5803.14 973.619  26
 -14   3   5 6624.10 1036.65  26
  14  -3  -5 6313.98 1618.26   5
 -14  -3   4 1063.68 461.208  26
 -14   3   4 906.683 343.036  26
  14  -3  -4 1173.79 547.250   5
 -14  -3   3 2829.21 695.943  26
  14   3  -3-351.313 621.100   6
  14  -3  -3 3809.43 1481.58   6
  14  -3  -3 2536.12 1066.76   5
 -14  -3   2 1695.70 557.437  26
  14   3  -2 1136.78 909.298   6
  14  -3  -2-60.1477 505.438   6
  14  -3  -2 1391.13 728.008   5
 -14  -3   2 1831.84 719.965  16
 -14   3   2 1088.50 653.059  16
  14   3  -1 23959.6 3366.33   6
  14  -3  -1 22240.3 3198.32   6
  14   3  -1 25400.8 1747.59  23
  14  -3  -1 26140.5 2064.39  23
  14  -3  -1 26196.7 3110.10   5
 -14  -3   1 21952.7 2589.06  16
  14   3   0 481.300 597.025   6
  14   3   0-46.0966 275.144  23
  14  -3   0-59.3200 377.363  23
  14  -3   0-543.824 564.898   5
  14  -3   0 253.132 384.031  20
 -14  -3   0 202.484 434.558  16
  14   3   1 5058.32 1551.55   6
  14   3   1 5815.11 879.482  23
  14  -3   1 5657.95 1134.13  23
  14  -3   1 5848.55 1013.32  20
  14   3   2-37.4729 838.712   6
  14   3   2-574.348 339.635  23
  14  -3   2 110.747 336.806  23
  14  -3   2 326.859 436.247  20
  14  -3   2-236.506 462.351   9
  14   3   3 4647.19 1586.97   6
  14   3   3 4479.12 779.597  23
  14  -3   3 3849.27 823.208  23
  14   3   3 4543.95 1353.12   9
  14  -3   3 5197.19 1448.68   9
  14   3   4-1283.80 862.771   6
  14  -3   4 143.693 354.106  23
  14   3   4 215.825 518.588   9
  14  -3   4-974.909 699.268   9
  14   3   4-858.745 594.458  13
  14   3   5 2988.70 1129.11   6
  14   3   5 3392.92 1214.69   9
  14  -3   5 2535.26 1098.05   9
  14   3   5 3663.06 1196.06  13
  14   3   6 1890.76 1013.54   6
  14  -3   6 2727.17 1260.78   6
  14   3   6 1368.95 773.690   9
  14  -3   6 2436.87 971.830   9
  14   3   6 2524.92 1001.29  13
  14  -3   6 1026.40 621.940  13
  14  -3   7 141.374 458.376   6
  14   3   7 310.046 527.246   9
  14  -3   7-782.324 628.279   9
  14   3   7 635.026 615.699  13
  14   3   8 582.251 601.095   9
  14  -3   8-1011.58 685.093   9
  14   3   8-450.222 472.464  13
  14   3   9-302.839 490.808   9
  14  -3   9 58.8119 333.875   9
  14   3  10-645.507 510.061   9
  14  -3  10-1483.13 726.527   9
  14   3  11 881.015 555.896   9
  14  -3  11-140.105 351.100   9
 -14   4  11 518.412 250.585  26
 -14   4  10 1656.14 461.803  26
 -14  -4   9 9970.83 1140.17  26
 -14   4   9 10577.6 1173.14  26
 -14  -4   8 620.487 442.563  26
 -14   4   8 244.798 245.165  26
 -14  -4   7 10339.7 1253.12  26
 -14   4   7 10272.2 1253.61  26
  14  -4  -7 8555.22 1694.41   5
 -14  -4   6 669.066 409.935  26
 -14   4   6 798.183 400.183  26
  14  -4  -6 754.216 740.344   5
 -14  -4   5 2888.50 770.200  26
 -14   4   5 3361.50 748.336  26
  14  -4  -5 4426.30 1345.23   5
 -14  -4   4 2257.94 624.773  26
 -14   4   4 1803.47 558.725  26
  14  -4  -4 2639.33 1125.64   5
  14  -4  -3-115.218 921.332   6
  14  -4  -3 943.307 512.503   5
  14  -4  -2 598.581 734.348   6
  14  -4  -2-443.492 606.455   5
  14   4  -1 105.646 822.634   6
  14   4  -1 194.827 256.666  23
  14  -4  -1 469.049 420.812  23
  14  -4  -1-1490.26 819.491   5
 -14  -4   1-144.276 499.096  16
  14   4   0-186.121 870.786   6
  14   4   0-245.596 322.746  23
  14  -4   0 135.410 423.100  23
  14  -4   0 79.6394 326.437  20
 -14  -4   0 1273.01 699.599  16
  14   4   1 803.681 919.532   6
  14  -4   1-550.678 460.694  23
  14  -4   1 169.533 311.904  20
  14  -4   1-691.686 642.793   9
  14   4   2 555.558 854.101   6
  14  -4   2 176.098 393.815  23
  14  -4   2-834.684 688.843   9
  14   4   3 935.647 786.865   6
  14  -4   3 327.276 420.365  23
  14  -4   3 98.0195 724.302   9
  14   4   3 363.268 441.078  13
  14   4   4 29.2805 505.852   6
  14  -4   4 528.457 416.369  23
  14   4   4-177.408 919.132   9
  14  -4   4-79.5370 424.691   9
  14   4   4 664.829 423.097  13
  14   4   5 315.573 587.737   6
  14   4   5-257.213 538.301   9
  14  -4   5 71.3104 436.693   9
  14   4   5 738.187 450.832  13
  14   4   6 6073.26 1531.02   9
  14  -4   6 6731.10 1626.68   9
  14   4   6 4472.38 1305.17  13
  14  -4   7 355.105 741.478   6
  14   4   7-949.901 892.780   9
  14  -4   7 629.611 662.219   9
  14   4   7 218.467 327.196  13
  14   4   8 844.282 575.326   9
  14  -4   8 1503.43 767.169   9
  14   4   8 2119.53 877.278  13
  14   4   9 4450.12 1226.64   9
  14  -4   9 6634.26 1502.70   9
  14   4  10 81.5922 419.752   9
  14  -4  10 130.210 393.645   9
  14   4  11 3566.20 987.045   9
  14  -4  11 2685.77 829.431   9
 -14   5  11 1191.96 378.238  26
 -14   5  10 197.994 254.606  26
 -14   5   9-168.393 296.924  26
  14  -5  -9 62.0214 329.118   5
 -14   5   8 374.756 334.897  26
  14  -5  -8 378.141 398.275   5
 -14  -5   7 128.758 362.144  26
 -14   5   7-1511.26 539.992  26
  14  -5  -7-215.825 579.465   5
 -14  -5   6 1979.22 616.703  26
 -14   5   6 2355.03 643.621  26
  14  -5  -6 1600.61 875.059   5
 -14  -5   5 215.212 345.895  26
 -14   5   5 486.395 395.945  26
  14  -5  -5 1350.67 881.854   5
 -14   5   4 3270.99 742.910  26
  14  -5  -4 2568.06 1154.39   5
  14  -5  -3 1771.02 933.550   6
  14  -5  -3 2487.39 1021.57   5
  14  -5  -2 6633.74 1636.61   5
  14   5  -1 5023.29 1650.81   6
  14  -5  -1 5553.20 978.613  23
  14  -5  -1 3347.17 1171.24   5
  14   5   0-1104.08 830.201   6
  14  -5   0-68.6498 475.146  23
  14  -5   0-369.858 543.410   5
  14   5   1 1255.22 893.432   6
  14  -5   1 2337.69 684.167  23
  14  -5   1 1713.41 965.566   9
  14   5   2 9578.15 2256.27   6
  14  -5   2 10556.9 1341.88  23
  14  -5   2 9762.84 2000.34   9
  14   5   2 8965.95 1778.33  13
  14   5   3-641.815 671.561   6
  14  -5   3 191.573 383.044  23
  14  -5   3 587.761 592.255   9
  14   5   3-19.6671 404.245  13
  14   5   4 5220.48 1533.91   6
  14   5   4 5638.20 1474.65   9
  14  -5   4 6533.58 1650.46   9
  14   5   4 4590.74 1314.45  13
  14   5   5-63.3270 419.770   9
  14  -5   5-163.631 718.961   9
  14   5   5 165.950 356.249  13
  14   5   6 822.804 540.236   9
  14  -5   6 1710.61 894.211   9
  14   5   6 1299.07 747.474  13
  14  -5   7 622.761 820.060   6
  14   5   7-335.404 730.476   9
  14  -5   7-33.1687 368.629   9
  14   5   7-175.945 356.387  13
  14   5   8-115.031 510.914   9
  14  -5   8-556.750 545.410   9
  14   5   8 4.82044 357.547  13
  14   5   9-604.150 541.001   9
  14  -5   9 224.950 568.941   9
  14   5  10-191.036 413.426   9
  14  -5  10 217.548 343.734   9
  14   5  11 225.530 372.808   9
  14  -5  11 37.5963 309.096   9
 -14   6  11 3748.78 588.062  26
 -14   6  10 5483.96 774.689  26
 -14   6   9 149.929 287.843  26
  14  -6  -9-159.015 527.056   5
 -14   6   8 20.5931 271.675  26
  14  -6  -8 590.950 573.839   5
  14  -6  -7 30.6457 394.700   5
  14  -6  -6 3692.97 1138.72   5
  14  -6  -5 1979.90 1061.28   5
  14  -6  -4 2815.69 1198.99   5
  14  -6  -3 1045.01 749.132   5
  14  -6  -2 1143.29 714.885   5
  14  -6  -1 1508.34 604.475  23
  14  -6  -1 1104.18 845.566   5
  14  -6   0-199.554 448.720  23
  14  -6   0 332.236 552.154   5
  14  -6   1 104.902 346.102  23
  14  -6   1 318.318 563.756   9
  14  -6   2 1293.27 544.951  23
  14  -6   2 3131.81 1127.79   9
  14   6   2 1579.04 931.347  13
  14  -6   3 2212.88 718.912  23
  14  -6   3 2223.30 1006.73   9
  14   6   3 2428.63 986.580  13
  14   6   4 1026.65 721.374   9
  14  -6   4 725.872 487.254   9
  14   6   4 248.024 464.998  13
  14   6   5-959.128 743.416   9
  14  -6   5 181.599 471.884   9
  14   6   5 69.9002 352.550  13
  14   6   6 6921.34 1604.09   9
  14  -6   6 3661.99 1254.37   9
  14   6   6 5907.68 1428.74  13
  14   6   7 1886.19 969.177   9
  14  -6   7 3987.72 1327.59   9
  14   6   7 2521.16 939.274  13
  14   6   8 2145.23 833.850   9
  14  -6   8 897.780 643.704   9
  14   6   8 1614.44 751.563  13
  14   6   9 374.833 452.023   9
  14  -6   9 307.715 440.851   9
  14   6  10 993.388 621.873   9
  14  -6  10 132.917 451.318   9
  14   6  11 10.1253 396.725   9
  14  -6  11-951.635 513.457   9
 -14   7  11 315.192 227.873  26
 -14   7  10-369.783 258.764  26
 -14   7   9-255.894 279.581  26
  14  -7  -9-1684.56 672.003   5
 -14   7   8 337.777 316.539  26
  14  -7  -8 240.891 410.674   5
  14  -7  -7 2799.45 1028.28   5
  14  -7  -6 233.478 503.294   5
  14  -7  -5 11604.9 2136.74   5
  14  -7  -4 125.579 571.696   5
  14  -7  -3 5667.49 1536.40   5
  14  -7  -2 5719.20 972.359  23
  14  -7  -2 4517.46 1368.11   5
  14  -7  -1 13135.2 1424.04  23
  14  -7  -1 13410.5 2272.77   5
  14   7  -1 11503.9 1924.76  13
  14  -7   0 336.680 354.022  23
  14  -7   0-263.026 608.500   5
  14  -7   0 809.991 559.994   9
  14   7   0 1450.06 593.021  13
  14  -7   1 3823.20 841.868  23
  14  -7   1 1916.85 895.069   9
  14   7   1 4712.46 1314.46  13
  14  -7   2 10827.4 1362.15  23
  14  -7   2 12691.1 2259.73   9
  14   7   2 12731.8 2089.43  13
  14  -7   3-38.6886 479.620  23
  14  -7   3 1090.10 747.620   9
  14   7   3-474.706 515.694  13
  14   7   4 3785.30 1200.74   9
  14  -7   4 3963.45 1251.59   9
  14   7   4 4056.89 1174.30  13
  14   7   5 1161.93 851.455   9
  14  -7   5 89.4513 512.986   9
  14   7   5 89.2980 376.660  13
  14   7   6 1369.64 934.375   9
  14  -7   6 1160.29 769.993   9
  14   7   6 1493.26 799.624  13
  14   7   7 239.411 584.239   9
  14  -7   7-231.512 412.434   9
  14   7   7 22.1919 325.388  13
  14   7   8 528.293 592.669   9
  14  -7   8 634.835 677.814   9
  14   7   9 549.141 661.299   9
  14  -7   9-261.223 414.327   9
  14   7  10-72.6395 425.332   9
  14  -7  10-567.320 475.588   9
  14   7  11 334.122 415.143   9
 -14   8  11 1487.55 352.170  26
 -14   8  10-135.006 248.214  26
 -14   8   9 10544.4 1111.68  26
  14  -8  -9 8299.76 1391.35   5
  14  -8  -8 297.112 460.726   5
  14  -8  -7 3820.46 1218.22   5
  14  -8  -6-165.076 525.195   5
  14  -8  -5 9419.26 1946.33   5
  14  -8  -4 346.105 538.511   5
  14  -8  -3 1871.04 946.520   5
  14  -8  -2 1525.03 523.324  23
  14  -8  -2 3075.09 1130.34   5
  14  -8  -1 8006.17 1111.95  23
  14  -8  -1 7628.34 1658.74   5
  14  -8   0 705.753 356.251  23
  14  -8   0-185.440 471.665   5
  14   8   0 1197.91 690.284  13
  14  -8   1 557.188 356.611  23
  14   8   1 464.171 424.691  13
  14  -8   1 438.480 572.344   9
  14  -8   2 957.625 463.126  23
  14  -8   2 1331.65 735.992   9
  14   8   2 1039.21 586.461  13
  14  -8   3 2013.30 623.320  23
  14  -8   3 3380.06 1246.81   9
  14   8   3 2367.48 921.154  13
  14   8   4 1131.07 749.355   9
  14  -8   4-120.879 492.997   9
  14   8   4-171.754 540.499  13
  14   8   5 1750.42 878.160   9
  14  -8   5 633.215 383.093   9
  14   8   5 1025.65 588.318  13
  14   8   6 1108.65 804.728   9
  14  -8   6 692.144 470.900   9
  14   8   6 618.602 415.436  13
  14   8   7 600.694 507.264   9
  14  -8   7 11.9353 515.325   9
  14   8   7 381.378 595.428  13
  14   8   8 1224.84 859.211   9
  14  -8   8 770.026 616.334   9
  14   8   9 6297.73 1353.47   9
  14  -8   9 6718.41 1407.46   9
  14   8  10 418.395 438.324   9
  14  -8  10-1488.45 632.750   9
  14   8  11 2851.26 725.980   9
 -14   9  10-359.287 243.937  26
 -14   9   9-110.509 265.591  26
  14  -9  -9-134.883 309.171   5
  14  -9  -8-622.828 502.298   5
  14  -9  -7 1476.32 741.554   5
  14  -9  -6-2.88186 406.970   5
  14  -9  -5 1523.00 818.200   5
  14  -9  -4 5823.92 1544.05   5
  14  -9  -3 988.253 440.204  23
  14  -9  -3 2756.81 1041.81   5
  14  -9  -2 6213.63 968.268  23
  14  -9  -2 4606.40 1392.07   5
  14  -9  -1 47268.8 2545.72  23
  14  -9  -1 39907.7 3830.13   5
 -14  -9   0 3754.60 878.153  25
  14  -9   0 3364.92 737.278  23
  14  -9   0 2729.01 1037.86   5
  14   9   0 3211.30 990.647  13
  14  -9   0 4394.33 1259.49   9
  14  -9   1 3639.95 716.705  23
  14   9   1 3689.39 1077.26  13
  14  -9   1 2782.73 1057.42   9
  14  -9   2 1137.74 438.402  23
  14   9   2 2470.47 927.368  13
  14  -9   2 677.902 639.639   9
  14   9   3 1953.50 878.033  13
  14  -9   3 3211.69 1038.73   9
  14   9   4-82.6568 431.555  13
  14  -9   4-346.031 537.523   9
  14   9   5 885.567 695.217   9
  14  -9   5-622.436 596.944   9
  14   9   5 1724.72 782.842  13
  14   9   6 830.726 753.825   9
  14  -9   6-244.756 471.115   9
  14   9   6 224.053 384.643  13
  14   9   7 1277.75 970.268   9
  14  -9   7-731.199 608.448   9
  14   9   8 1444.50 792.829   9
  14  -9   8 1566.15 802.811   9
  14   9   9 430.767 483.607   9
  14  -9   9 166.475 346.001   9
  14   9  10 1034.32 587.038   9
  14  -9  10 109.292 359.017   9
 -14  10  10 3454.91 547.398  26
 -14  10   9 1416.92 414.078  26
  14 -10  -9 1628.75 610.401   5
  14 -10  -8-385.441 432.808   5
  14 -10  -7 2859.07 984.719   5
  14 -10  -6 4308.15 1225.35   5
  14 -10  -5 2112.16 973.373   5
  14 -10  -4 3489.04 648.852  23
  14 -10  -4 2312.97 983.230   5
  14 -10  -3 456.593 342.385  23
  14 -10  -3 259.063 476.860   5
  14 -10  -2 400.915 304.538  23
  14 -10  -2 928.670 708.642   5
  14 -10  -1 306.083 369.145  23
  14 -10  -1 933.842 730.783   5
  14 -10  -1 240.242 555.221   9
 -14 -10   0 84.6342 301.031  25
  14 -10   0 102.662 264.001  23
  14 -10   0-117.029 443.639   5
  14 -10   0-238.726 528.605   9
  14 -10   1-493.798 358.649  23
  14  10   1-546.372 517.250  13
  14 -10   1-993.488 717.766   9
  14 -10   2 729.110 378.929  23
  14  10   2 41.7627 540.817  13
  14 -10   2 177.787 717.343   9
  14  10   3 1181.71 687.061  13
  14 -10   3 1370.79 836.737   9
  14  10   4 2294.03 946.739  13
  14 -10   4 3126.07 1224.58   9
  14  10   5 2924.30 1089.89   9
  14  10   5 1959.05 812.695  13
  14 -10   5 2457.61 1092.31   9
  14  10   6 3465.44 1166.53   9
  14 -10   6 2938.20 1101.35   9
  14  10   7 997.410 696.880   9
  14 -10   7-45.6851 512.207   9
  14  10   8 9133.67 1619.53   9
  14 -10   8 7219.89 1491.55   9
  14  10   9 2026.28 796.385   9
  14 -10   9 2020.13 733.889   9
  14  10  10 831.254 440.843   9
 -14  11   9 82.1682 190.055  26
 -14 -11   9-99.2741 239.849  25
  14 -11  -8 1163.88 589.656   5
  14 -11  -7 430.652 437.859   5
  14 -11  -6 798.239 295.695  23
  14 -11  -6 374.825 576.854   5
  14 -11  -5 351.355 273.747  23
  14 -11  -5 377.242 574.400   5
  14 -11  -4 8870.60 981.139  23
  14 -11  -4 6861.14 1593.27   5
  14 -11  -3 115.724 290.886  23
  14 -11  -3 1144.19 788.174   5
 -14 -11   2 8328.78 1234.79  25
  14 -11  -2 8356.61 1001.08  23
  14 -11  -2 10063.5 1947.61   5
 -14 -11   1 1153.59 452.909  25
  14 -11  -1 527.399 378.149  23
  14 -11  -1 778.115 740.863   5
  14 -11  -1 54.3057 399.252   9
 -14 -11   0 2926.97 695.926  25
  14 -11   0 1655.62 480.333  23
  14 -11   0 1973.26 782.280   5
  14 -11   0 1351.89 799.910   9
  14 -11   1 8089.53 1000.63  23
  14 -11   1 7506.84 1712.51   9
  14  11   2 3053.25 911.553  13
  14 -11   2 2154.15 970.852   9
  14  11   3 3824.00 1073.20  13
  14 -11   3 3283.70 1156.34   9
  14  11   4 728.877 555.991  13
  14 -11   4 745.578 715.851   9
  14  11   5 262.133 666.690   9
  14  11   5 558.410 505.438  13
  14 -11   5-76.9080 392.152   9
  14  11   6 2735.20 1008.01   9
  14 -11   6 2608.90 1080.09   9
  14  11   7 443.942 638.267   9
  14 -11   7 764.998 608.979   9
  14  11   8 520.943 540.413   9
  14 -11   8 728.570 496.516   9
  14  11   9 809.992 530.820   9
  14 -11   9-439.934 421.473   9
 -14  12   9 1666.13 383.043  26
 -14 -12   9 1741.24 442.093  25
 -14 -12   8 593.577 332.343  25
  14 -12  -8-42.2575 373.115   5
  14 -12  -7 1380.46 650.322   5
  14 -12  -6 688.351 420.888   5
  14 -12  -5-234.968 483.319   5
  14 -12  -4 1088.80 805.161   5
 -14 -12   3 346.755 338.010  25
  14 -12  -3-20.7639 480.825   5
 -14 -12   2 334.991 381.066  25
  14 -12  -2 720.048 667.997   5
 -14 -12   1 2436.78 684.929  25
  14 -12  -1 2712.62 1079.13   5
  14 -12  -1 2588.35 992.812   9
 -14 -12   0 484.238 387.179  25
  14 -12   0 1507.96 759.860   5
  14 -12   0 783.667 632.305   9
  14 -12   1-392.561 511.272   9
  14  12   2-621.789 513.927  13
  14 -12   2-330.821 654.702   9
  14  12   3 48.9782 337.956  13
  14 -12   3 499.861 599.774   9
  14 -12   4 888.361 707.651   9
  14  12   5-121.451 451.468   9
  14 -12   5-190.922 486.670   9
  14  12   6-643.015 379.542   9
  14 -12   6 731.844 648.717   9
  14  12   7-185.668 516.286   9
  14 -12   7 379.169 509.317   9
  14  12   8 786.533 485.196   9
  14 -12   8 2110.94 839.791   9
  14  12   9 819.469 412.257   9
 -14 -13   8 219.249 184.560  25
  14 -13  -8 1046.44 573.536   5
 -14 -13   7 913.300 383.343  25
  14 -13  -7 2438.45 850.169   5
 -14 -13   6-299.588 310.145  25
  14 -13  -6 210.975 478.474   5
 -14 -13   5 1466.29 507.553  25
  14 -13  -5 658.752 579.444   5
 -14 -13   4 370.094 342.338  25
  14 -13  -4-50.2832 580.440   5
 -14 -13   3-142.524 267.823  25
  14 -13  -3-296.361 556.054   5
 -14 -13   2 1763.53 577.150  25
  14 -13  -2 2950.82 1065.90   5
  14 -13  -2 1205.85 763.032   9
 -14 -13   1 16955.6 1627.90  25
  14 -13  -1 15299.1 2210.98   5
  14 -13  -1 16745.3 2337.37   9
 -14 -13   0 732.757 415.053  25
  14 -13   0 1037.45 680.662   5
  14 -13   0 1800.49 878.664   9
 -14 -13  -1 4550.74 838.876  25
  14 -13   1 4751.01 1301.27   9
  14 -13   2 1468.13 764.531   9
  14 -13   3 1264.54 822.988   9
  14 -13   4-459.946 598.122   9
  14 -13   5 431.449 537.908   9
  14  13   6 394.478 478.235   9
  14 -13   6-233.806 549.642   9
  14  13   7 329.951 411.786   9
  14 -13   7 797.256 423.821   9
  14 -13   8 194.302 345.986   9
 -14 -14   8 50.8968 186.699  25
 -14 -14   7 3237.75 614.049  25
  14 -14  -7 2583.89 766.161   5
 -14 -14   6 2423.83 577.103  25
  14 -14  -6 2061.67 782.805   5
 -14 -14   5 3754.37 727.985  25
  14 -14  -5 3526.84 1074.06   5
 -14 -14   4 609.830 318.383  25
  14 -14  -4 1365.52 722.853   5
 -14 -14   3 169.572 327.151  25
  14 -14  -3-333.633 687.647   5
 -14 -14   2 203.256 244.375  25
  14 -14  -2 1338.78 756.320   5
  14 -14  -2 480.740 509.330   9
 -14 -14   1 623.512 401.352  25
  14 -14  -1 825.975 643.572   5
  14 -14  -1 875.009 600.415   9
 -14 -14   0 516.088 374.857  25
  14 -14   0 660.094 530.602   5
  14 -14   0 727.358 579.890   9
 -14 -14  -1-114.852 307.791  25
  14 -14   1 256.502 454.120   9
  14 -14   2-679.332 593.132   9
  14 -14   3 737.141 611.163   9
  14 -14   4 571.790 555.940   9
  14 -14   5 212.074 450.617   9
  14 -14   6 1952.69 855.199   9
  14 -14   7 565.318 484.049   9
 -14 -15   7 1699.48 407.462  25
  14 -15  -7 772.609 359.536   5
 -14 -15   6 40.3662 187.285  25
  14 -15  -6 140.907 348.445   5
 -14 -15   5 920.072 333.721  25
  14 -15  -5 463.456 525.007   5
 -14 -15   4 2971.91 643.652  25
  14 -15  -4 1482.15 641.033   5
 -14 -15   3 1346.81 471.446  25
  14 -15  -3 1644.38 794.218   5
 -14 -15   2 5883.88 913.040  25
  14 -15  -2 7442.50 1472.57   5
  14 -15  -2 4814.32 1102.86   9
 -14 -15   1-100.043 287.952  25
  14 -15  -1 456.485 595.975   5
  14 -15  -1-287.258 427.283   9
 -14 -15   0-42.0059 228.543  25
  14 -15   0 509.699 500.592   9
 -14 -15  -1 1653.17 490.106  25
  14 -15   1 1395.06 680.807   9
  14 -15   2 614.524 533.931   9
  14 -15   3 397.723 461.223   9
  14 -15   4 2541.32 915.226   9
  14 -15   5 415.119 470.234   9
  14 -15   6 1466.46 641.712   9
  14 -15   7-990.427 506.466   9
 -14 -16   6 628.207 279.188  25
  14 -16  -6 916.316 473.540   5
 -14 -16   5 321.636 255.698  25
  14 -16  -5 601.961 486.660   5
 -14 -16   4 2121.54 541.175  25
  14 -16  -4 3030.07 869.488   5
 -14 -16   3 455.361 263.209  25
  14 -16  -3 195.798 377.736   5
 -14 -16   2 29.3142 227.996  25
  14 -16  -2 501.189 401.341   5
  14 -16  -2 547.478 442.022   9
 -14 -16   1-52.7271 244.585  25
  14 -16  -1-0.96873 341.277   5
  14 -16  -1 563.823 517.300   9
 -14 -16   0 334.573 234.385  25
  14 -16   0 198.264 423.864   9
  14 -16   1 65.3374 309.419   9
  14 -16   2 920.104 605.457   9
  14 -16   3 2.22071 366.227   9
  14 -16   4-414.022 519.871   9
  14 -16   5 744.364 583.583   9
  14 -16   6 1945.21 650.488   9
 -14 -17   5 457.237 231.990  25
  14 -17  -5 557.573 403.571   5
 -14 -17   4 689.510 313.089  25
  14 -17  -4 670.998 405.141   5
 -14 -17   3-17.8384 205.656  25
  14 -17  -3 267.400 303.192   5
 -14 -17   2 1636.04 430.402  25
  14 -17  -2 1268.29 661.305   5
  14 -17  -2 1848.28 673.415   9
  14 -17  -1-392.611 372.989   5
  14 -17  -1 505.006 424.279   9
  14 -17   0 174.306 318.996   5
  14 -17   0 166.312 342.781   9
  14 -17   1 971.112 459.884   9
  14 -17   2 478.039 291.552   9
  14 -17   3 150.121 308.537   9
  14 -17   4-11.7450 273.271   9
  14 -17   5 493.621 388.768   9
  14 -18  -3-81.0509 325.485   5
  14 -18  -2 233.357 299.326   5
  14 -18  -1 38.9998 236.095   5
  14 -18  -1 720.818 435.178   9
  14 -18   0-94.1255 363.220   9
  14 -18   1 466.244 359.459   9
  14 -18   2 913.111 445.552   9
  14 -18   3-65.3473 285.728   9
 -15   0  10-78.4340 235.466  26
 -15   0   9 93.7167 259.319  26
 -15   0   8 3855.00 736.994  26
 -15   0   7 372.389 306.459  26
 -15   0   6 13409.9 1408.47  26
 -15   0   5 511.798 297.247  26
 -15   0   4 3025.01 753.616  26
  15   0  -4 4749.75 1329.76   5
  15   0  -3 260.545 535.983   6
  15   0  -3 427.101 445.886   5
  15   0  -2 3731.01 1458.48   6
  15   0  -2 2245.85 617.175  23
  15   0  -2 2423.99 996.722   5
  15   0  -1-1086.02 850.974   6
  15   0  -1-752.258 413.303  23
  15   0  -1-88.8606 559.011   5
  15   0   0 15118.8 2665.26   6
  15   0   0 16368.1 1534.68  23
  15   0   1-1228.81 910.358   6
  15   0   1 341.322 344.324  23
  15   0   2 498.125 678.839   6
  15   0   2 175.541 400.642  23
  15   0   3-226.859 768.852   6
  15   0   3-320.572 294.527  23
  15   0   3-896.899 661.040   9
  15   0   4 23951.1 3279.68   6
  15   0   4 24193.8 2930.17   9
  15   0   4 22055.3 2732.46  13
  15   0   5-409.278 569.985   6
  15   0   5-386.015 405.784   9
  15   0   5 19.2897 348.389  13
  15   0   6 961.489 562.692   9
  15   0   6 131.774 349.034  13
  15   0   7-193.171 593.340   9
  15   0   7-31.1276 406.135  13
  15   0   8-1645.73 777.047   9
  15   0   8 851.794 539.592  13
  15   0   9-377.873 452.499   9
  15   0  10-423.782 443.110   9
  15   0  11-341.984 348.653   9
 -15   1  11 1713.91 390.814  26
 -15  -1  10 420.697 291.884  26
 -15   1  10 264.254 257.197  26
 -15  -1   9 810.686 349.638  26
 -15   1   9 316.353 270.522  26
 -15  -1   8 8397.39 1052.02  26
 -15   1   8 8172.28 1029.48  26
 -15  -1   7-78.5385 297.173  26
 -15   1   7 203.376 272.961  26
 -15  -1   6 15529.9 1499.17  26
 -15   1   6 17278.3 1572.52  26
  15  -1  -6 16676.4 2400.90   5
 -15  -1   5-71.6726 273.351  26
 -15   1   5 6.68784 258.447  26
  15  -1  -5 589.216 654.537   5
 -15  -1   4-450.287 398.709  26
 -15   1   4 576.743 361.463  26
  15  -1  -4-44.1038 526.215   5
 -15  -1   3-97.2954 281.653  26
  15   1  -3-37.3539 466.322   6
  15  -1  -3-180.308 630.568   6
  15  -1  -3 642.963 644.139   5
  15   1  -2-1532.24 918.405   6
  15  -1  -2 424.194 932.043   6
  15   1  -2 456.583 364.127  23
  15  -1  -2 770.081 432.119  23
  15  -1  -2 164.166 498.687   5
  15   1  -1-475.983 892.481   6
  15  -1  -1-1164.08 838.781   6
  15   1  -1 405.365 352.844  23
  15  -1  -1 698.186 480.567  23
  15  -1  -1-203.150 858.158   5
  15   1   0-1661.50 1014.13   6
  15  -1   0 603.138 871.964   6
  15   1   0 705.414 389.119  23
  15  -1   0 115.788 306.581  23
  15  -1   0-531.469 769.359   5
  15   1   1-31.4282 670.979   6
  15  -1   1 744.459 732.440   6
  15   1   1 78.4573 280.910  23
  15  -1   1 464.658 460.371  23
  15   1   2 571.659 450.240   6
  15  -1   2 79.1653 557.761   6
  15   1   2 386.784 315.986  23
  15  -1   2 1530.03 530.588  23
  15  -1   2 847.592 645.247   9
  15   1   3 387.400 831.083   6
  15  -1   3 44.4935 500.632   6
  15   1   3 181.767 361.435  23
  15  -1   3-47.5579 290.721  23
  15   1   3-59.3205 415.821   9
  15  -1   3-611.448 600.118   9
  15   1   4 10925.8 2250.48   6
  15  -1   4 10402.8 2227.30   6
  15   1   4 13898.1 2255.25   9
  15  -1   4 10222.0 1953.78   9
  15   1   4 13026.9 2110.84  13
  15   1   5 4928.66 1432.74   6
  15  -1   5 5030.82 1502.03   6
  15   1   5 4006.62 1230.79   9
  15  -1   5 5731.54 1500.08   9
  15   1   5 4946.78 1311.08  13
  15  -1   5 4464.10 1311.41  13
  15   1   6-985.906 574.481   6
  15  -1   6 278.977 620.619   6
  15   1   6 382.679 492.247   9
  15  -1   6-308.003 460.467   9
  15   1   6 1173.08 709.340  13
  15  -1   6 323.366 473.152  13
  15   1   7 1401.89 661.281   9
  15  -1   7 1593.95 877.120   9
  15   1   7 1623.89 754.773  13
  15  -1   7 1230.72 734.821  13
  15   1   8 2160.24 826.010   9
  15  -1   8 1035.97 606.700   9
  15   1   8 3473.71 957.312  13
  15   1   9 1525.67 685.748   9
  15  -1   9 654.691 593.646   9
  15   1  10 3083.15 931.230   9
  15  -1  10 2914.51 875.588   9
  15   1  11 798.708 540.369   9
  15  -1  11 517.823 509.517   9
 -15   2  11 125.935 198.406  26
 -15   2  10-47.5348 200.138  26
 -15  -2   9-393.001 316.133  26
 -15   2   9 11.7380 236.541  26
 -15  -2   8 9.95378 300.336  26
 -15   2   8 79.8937 250.883  26
 -15  -2   7 113.484 276.449  26
 -15   2   7-38.9201 279.045  26
 -15  -2   6 4674.92 873.871  26
 -15   2   6 4784.68 854.050  26
  15  -2  -6 6422.40 1506.38   5
 -15  -2   5 4876.81 893.338  26
 -15   2   5 4632.16 852.953  26
  15  -2  -5 4703.62 1320.11   5
 -15  -2   4-272.816 335.637  26
 -15   2   4-268.137 294.063  26
  15  -2  -4-225.134 454.819   5
 -15  -2   3 4022.99 772.545  26
  15   2  -3 3426.33 1194.89   6
  15  -2  -3 4081.48 1315.34   6
  15  -2  -3 3138.70 1140.56   5
  15   2  -2-1158.93 851.457   6
  15  -2  -2-938.911 777.134   6
  15   2  -2-23.8063 317.998  23
  15  -2  -2-411.216 373.798  23
  15  -2  -2-112.578 616.101   5
  15   2  -1 18701.9 2915.10   6
  15  -2  -1 19044.2 3010.46   6
  15   2  -1 17166.6 1476.45  23
  15  -2  -1 23065.8 1866.01  23
  15  -2  -1 16834.1 2462.18   5
  15  -2   0 318.092 597.239   6
  15   2   0-25.5679 239.274  23
  15  -2   0-273.453 465.988  23
  15  -2   0-715.150 648.848   5
  15   2   1-404.765 990.300   6
  15  -2   1-711.840 782.653   6
  15   2   1-246.426 352.860  23
  15  -2   1 86.1203 360.596  23
  15   2   2-1654.75 934.256   6
  15  -2   2-1286.75 881.263   6
  15   2   2-879.831 411.250  23
  15  -2   2 56.2278 404.853  23
  15  -2   2-204.015 477.640   9
  15   2   3 476.513 721.029   6
  15   2   3 1179.32 439.281  23
  15  -2   3 1668.33 1003.60   6
  15  -2   3 2084.40 663.044  23
  15   2   3 934.831 673.575   9
  15  -2   3 1475.73 816.611   9
  15   2   4 1322.12 848.419   6
  15  -2   4 2108.78 1121.52   6
  15   2   4 1531.73 880.363   9
  15  -2   4 1660.69 847.135   9
  15   2   4 1239.97 634.615  13
  15   2   5 2160.53 1007.19   6
  15  -2   5 2136.23 1143.91   6
  15   2   5 3628.83 1135.96   9
  15  -2   5 2912.30 1098.15   9
  15   2   5 2686.86 980.390  13
  15  -2   5 2387.39 904.024  13
  15   2   6 810.208 627.508   6
  15  -2   6-312.201 534.510   6
  15   2   6 642.063 529.643   9
  15  -2   6-149.498 552.423   9
  15   2   6 210.714 420.409  13
  15  -2   6 803.181 584.865  13
  15  -2   7 1109.02 786.311   6
  15   2   7 780.045 662.429   9
  15  -2   7 895.311 619.463   9
  15  -2   7 361.273 443.433  13
  15   2   8-363.997 499.570   9
  15  -2   8-1081.26 637.030   9
  15   2   8 52.3629 314.034  13
  15   2   9 238.705 410.336   9
  15  -2   9-1733.89 741.885   9
  15   2  10-423.602 421.937   9
  15  -2  10-230.671 478.230   9
  15   2  11 495.898 410.933   9
  15  -2  11 279.099 353.327   9
 -15   3  11 5169.66 624.537  26
 -15   3  10 57.4118 188.441  26
 -15   3   9 1692.12 473.206  26
 -15  -3   8 1912.25 531.780  26
 -15   3   8 1913.99 503.048  26
 -15  -3   7-201.903 352.106  26
 -15   3   7 181.169 265.230  26
  15  -3  -7 273.755 370.503   5
 -15  -3   6 483.521 338.526  26
 -15   3   6-31.9914 262.810  26
  15  -3  -6-286.346 540.695   5
 -15  -3   5 1021.91 457.925  26
 -15   3   5 997.468 472.104  26
  15  -3  -5 1030.06 830.679   5
 -15  -3   4 1113.46 490.268  26
 -15   3   4 892.343 396.374  26
  15  -3  -4 2173.91 1042.26   5
  15  -3  -3 1266.27 839.082   6
  15  -3  -3-160.409 487.020   5
  15   3  -2-1165.95 867.023   6
  15  -3  -2 724.226 930.631   6
  15   3  -2-3.91103 246.781  23
  15  -3  -2 892.779 506.422  23
  15  -3  -2 561.631 570.229   5
  15   3  -1 577.083 773.420   6
  15   3  -1 150.268 253.893  23
  15  -3  -1 866.029 505.941  23
  15  -3  -1 1154.47 726.833   5
  15   3   0 630.018 881.166   6
  15  -3   0-217.304 599.581   6
  15   3   0-116.115 277.495  23
  15  -3   0-37.7579 431.874  23
  15  -3   0 441.634 569.990   5
  15  -3   1-519.221 740.368   6
  15  -3   1-103.818 334.493  23
  15   3   2 262.357 553.722   6
  15   3   2-246.555 372.534  23
  15  -3   2-513.188 424.881  23
  15  -3   2-161.798 565.677   6
  15  -3   2-338.165 515.381   9
  15   3   3 1737.54 1144.05   6
  15  -3   3 2585.31 712.655  23
  15  -3   3 1264.90 1033.33   6
  15  -3   3 3176.90 1175.35   9
  15   3   3 2928.68 1002.38  13
  15   3   4 511.393 644.622   6
  15  -3   4 1226.20 889.561   6
  15   3   4 322.698 513.299   9
  15  -3   4 1166.63 746.328   9
  15   3   4 456.749 431.195  13
  15   3   5 2766.63 1003.26   6
  15  -3   5 1268.35 838.717   6
  15   3   5 2124.31 856.749   9
  15  -3   5 3031.70 1037.46   9
  15   3   5 2309.63 850.235  13
  15  -3   5 3532.16 1149.37  13
  15   3   6 378.437 470.567   6
  15  -3   6-378.677 483.758   6
  15   3   6-563.702 564.059   9
  15  -3   6-922.695 661.299   9
  15   3   6 199.688 494.049  13
  15  -3   6-1918.12 826.458  13
  15  -3   7 4216.56 1206.50   6
  15   3   7 6308.58 1452.06   9
  15  -3   7 4174.05 1214.29   9
  15   3   7 2797.10 969.456  13
  15   3   8-77.9403 503.401   9
  15  -3   8 370.443 501.800   9
  15   3   8-295.286 391.209  13
  15   3   9 842.007 561.057   9
  15  -3   9 579.484 485.661   9
  15   3  10 2133.50 778.962   9
  15  -3  10 899.616 555.044   9
  15   3  11 1380.04 627.254   9
 -15   4  11 250.294 189.725  26
 -15   4  10 369.273 259.849  26
 -15   4   9 720.110 350.044  26
 -15   4   8 1124.95 452.328  26
 -15   4   7-49.8829 264.111  26
  15  -4  -7 121.291 406.091   5
 -15   4   6 4645.61 870.446  26
  15  -4  -6 4373.76 1356.33   5
 -15   4   5-89.0283 251.368  26
  15  -4  -5-823.655 675.702   5
  15  -4  -4 1006.19 736.126   5
  15  -4  -3 1797.13 918.918   6
  15   4  -3 1092.25 406.147  23
  15  -4  -3 1262.40 813.079   5
  15  -4  -2 418.618 511.868   6
  15   4  -2 796.656 310.430  23
  15  -4  -2 715.788 358.895  23
  15  -4  -2 1081.12 745.695   5
  15   4  -1 5210.95 1598.05   6
  15  -4  -1 5285.06 1556.48   6
  15   4  -1 6504.89 850.877  23
  15  -4  -1 7263.51 1102.41  23
  15  -4  -1 5378.28 1464.69   5
  15   4   0 10658.8 2352.25   6
  15   4   0 11950.8 1172.22  23
  15  -4   0 13861.7 1508.16  23
  15  -4   0 14259.4 2654.92   6
  15  -4   0 10911.8 1909.88   5
  15   4   1 3477.82 1397.97   6
  15  -4   1 4707.06 888.752  23
  15  -4   1 6558.71 1848.81   6
  15   4   2 5977.94 1676.32   6
  15  -4   2 4727.31 891.812  23
  15  -4   2 5327.49 1394.37   9
  15   4   2 5375.65 1382.17  13
  15   4   3 2669.53 1253.29   6
  15  -4   3 7746.75 1191.70  23
  15  -4   3 5489.41 1351.97   9
  15   4   3 5543.50 1371.73  13
  15   4   4 2243.33 1135.27   6
  15  -4   4 2119.80 1241.33   6
  15   4   4 1902.24 726.957   9
  15  -4   4 2169.39 914.344   9
  15   4   4 1967.86 843.895  13
  15   4   5-553.559 601.737   6
  15  -4   5 168.571 488.105   6
  15   4   5-298.462 630.463   9
  15  -4   5 692.516 597.350   9
  15   4   5-15.6959 464.597  13
  15  -4   5 477.318 505.366  13
  15  -4   6 686.366 594.945   6
  15   4   6-19.8872 474.506   9
  15  -4   6-146.036 427.624   9
  15   4   6 309.144 532.296  13
  15  -4   7 30.6178 371.060   6
  15   4   7-472.605 549.652   9
  15  -4   7-89.2243 504.017   9
  15   4   7 924.291 576.754  13
  15   4   8 617.290 518.204   9
  15  -4   8-97.1787 482.738   9
  15   4   8-434.229 448.914  13
  15   4   9 184.117 387.714   9
  15  -4   9-747.841 543.382   9
  15   4  10 278.848 389.066   9
  15  -4  10 216.059 344.984   9
 -15   5  10 2943.13 535.660  26
 -15   5   9 1069.38 398.464  26
 -15   5   8 12912.0 1261.71  26
  15  -5  -8 10180.4 1664.22   5
 -15   5   7 113.663 351.166  26
  15  -5  -7 417.148 548.982   5
 -15   5   6 8386.02 1095.62  26
  15  -5  -6 9388.54 1847.93   5
 -15   5   5 458.607 371.900  26
  15  -5  -5 660.856 595.548   5
  15  -5  -4 1743.50 955.095   5
  15  -5  -3 206.592 596.866   6
  15  -5  -3 272.759 538.363   5
  15  -5  -2 1397.53 681.580   6
  15  -5  -2 752.922 451.946  23
  15  -5  -2 451.710 444.309   5
  15  -5  -1 210.092 654.035   6
  15  -5  -1 119.557 335.073  23
  15  -5  -1 682.279 620.914   5
  15  -5   0 998.750 514.394  23
  15  -5   0 1047.65 658.676   5
  15  -5   1 294.921 428.150  23
  15  -5   1 141.303 720.016   9
  15   5   1 270.092 507.526  13
  15   5   2 1588.50 1060.84   6
  15  -5   2 3158.03 802.405  23
  15  -5   2 3004.70 1041.14   9
  15   5   2 3130.13 1046.28  13
  15  -5   3 1583.96 604.617  23
  15  -5   3 2359.94 1005.43   9
  15   5   3 2183.99 859.262  13
  15   5   4 698.774 625.560   9
  15  -5   4 764.166 657.710   9
  15   5   4 1182.49 706.424  13
  15   5   5-211.122 661.737   9
  15  -5   5 1003.01 825.418   9
  15   5   5-226.418 494.875  13
  15  -5   5-895.818 621.108  13
  15  -5   6 592.293 595.581   6
  15   5   6 1445.11 804.122   9
  15  -5   6 233.898 449.807   9
  15   5   6 623.229 531.251  13
  15  -5   7 101.085 415.648   6
  15   5   7 203.421 455.953   9
  15  -5   7-396.827 603.411   9
  15   5   7 667.437 571.157  13
  15   5   8 1236.72 659.882   9
  15  -5   8 1307.92 705.870   9
  15   5   8 1203.81 606.563  13
  15   5   9-103.872 414.074   9
  15  -5   9-358.119 424.774   9
  15   5  10 7874.80 1331.36   9
  15  -5  10 7570.19 1289.44   9
 -15   6  10 287.324 233.242  26
 -15   6   9-14.0952 234.375  26
 -15   6   8 2066.47 523.278  26
  15  -6  -8 1071.05 600.164   5
 -15   6   7-132.130 305.316  26
  15  -6  -7 999.805 640.403   5
 -15   6   6 6938.36 973.665  26
  15  -6  -6 10357.3 1906.74   5
 -15   6   5-378.579 343.018  26
  15  -6  -5 192.966 484.175   5
  15  -6  -4 5824.26 1525.77   5
  15  -6  -3 687.938 409.016  23
  15  -6  -3 839.180 739.112   5
  15  -6  -2 3812.18 1327.15   6
  15  -6  -2 3523.66 733.389  23
  15  -6  -2 2443.42 1046.76   5
  15  -6  -1 6107.86 1035.69  23
  15  -6  -1 4280.51 1258.32   5
  15   6  -1 6167.65 1412.32  13
  15  -6   0 39.3995 369.716  23
  15  -6   0-562.243 565.878   5
  15   6   0-298.868 433.436  13
  15  -6   1 1728.40 664.671  23
  15  -6   1 754.598 493.006   9
  15   6   1 2260.88 936.173  13
  15  -6   2 17982.7 1711.79  23
  15  -6   2 18100.2 2553.54   9
  15   6   2 14917.5 2231.57  13
  15  -6   3 970.133 507.748  23
  15  -6   3 1575.51 778.552   9
  15   6   3 1084.13 579.240  13
  15   6   4 1226.86 841.475   9
  15  -6   4 1559.14 776.345   9
  15   6   4 1647.27 760.627  13
  15   6   5-463.351 550.521   9
  15  -6   5 42.7556 374.391   9
  15   6   5 534.542 492.897  13
  15  -6   6 16.7972 606.383   6
  15   6   6 1187.95 798.362   9
  15  -6   6-473.465 598.084   9
  15   6   6 116.184 366.297  13
  15  -6   7-822.639 613.160   6
  15   6   7 507.382 581.746   9
  15  -6   7-819.361 607.919   9
  15   6   7 859.314 577.157  13
  15   6   8 914.585 655.627   9
  15  -6   8-287.899 414.716   9
  15   6   9 766.971 575.085   9
  15  -6   9-910.065 564.843   9
  15   6  10 1688.63 620.126   9
  15  -6  10 89.4682 384.379   9
 -15   7  10-113.888 237.970  26
 -15   7   9 3577.27 613.332  26
 -15   7   8 2457.42 542.455  26
  15  -7  -8 2277.75 811.583   5
 -15   7   7 64.8419 254.354  26
  15  -7  -7 461.085 499.310   5
 -15   7   6 1790.73 534.924  26
  15  -7  -6 1071.06 703.936   5
 -15   7   5 2596.87 615.683  26
  15  -7  -5 2602.29 1040.94   5
  15  -7  -4 1252.22 794.503   5
  15  -7  -3 1333.97 499.362  23
  15  -7  -3-147.376 439.567   5
  15  -7  -2 1269.46 788.494   6
  15  -7  -2 1710.45 580.356  23
  15  -7  -2 1361.08 772.359   5
  15  -7  -1 237.218 302.968  23
  15   7  -1 919.567 619.109  13
  15  -7   0 682.359 387.462  23
  15  -7   0 600.773 596.511   5
  15   7   0 220.695 404.906  13
  15  -7   1 37.4416 369.481  23
  15  -7   1-337.398 472.627   9
  15   7   1-127.710 361.656  13
  15  -7   2 552.741 401.166  23
  15  -7   2 129.242 419.926   9
  15   7   2 773.675 486.328  13
  15  -7   3 293.272 525.748   9
  15   7   3 98.4372 435.598  13
  15  -7   4 555.087 560.841   9
  15   7   4 1158.02 658.440  13
  15   7   5-407.597 517.727   9
  15  -7   5-38.0520 499.003   9
  15   7   6 376.503 413.040   9
  15  -7   6-335.408 463.911   9
  15   7   6 47.5748 406.487  13
  15  -7   7 6217.72 1426.89   6
  15   7   7 7896.17 1601.38   9
  15  -7   7 5570.83 1402.17   9
  15   7   7 6215.71 1281.30  13
  15   7   8 1108.26 696.620   9
  15  -7   8-738.605 545.957   9
  15   7   9-160.776 342.407   9
  15  -7   9 1631.13 683.665   9
  15   7  10 10492.2 1420.25   9
  15  -7  10 9602.01 1376.29   9
 -15   8   9-95.9177 253.642  26
 -15   8   8 288.211 270.763  26
  15  -8  -8-96.1414 392.624   5
 -15   8   7 197.950 280.474  26
  15  -8  -7 170.721 423.187   5
 -15   8   6 646.148 361.145  26
  15  -8  -6 581.515 498.406   5
  15  -8  -5 1057.99 661.509   5
  15  -8  -4 1562.14 525.024  23
  15  -8  -4 782.064 681.470   5
  15  -8  -3 3525.08 710.477  23
  15  -8  -3 3759.31 1244.09   5
  15  -8  -2 13463.8 1359.54  23
  15  -8  -2 11428.6 2078.47   5
  15  -8  -1 3477.31 749.688  23
  15  -8  -1 4473.30 1357.15   5
  15  -8   0 4261.18 848.799  23
  15  -8   0 3939.42 1221.47   5
  15  -8   0 5243.58 1445.19   9
  15   8   0 5427.03 1341.69  13
  15  -8   1 3289.96 727.690  23
  15  -8   1 5480.10 1490.51   9
  15   8   1 2624.75 944.906  13
  15  -8   2-251.533 365.727  23
  15   8   2-524.438 519.548  13
  15  -8   3 5105.28 1366.83   9
  15   8   3 7950.68 1560.09  13
  15  -8   4 2480.47 976.440   9
  15   8   4 2418.91 964.210  13
  15   8   5 2349.42 982.705   9
  15  -8   5 2009.17 898.882   9
  15   8   5 2293.50 850.231  13
  15   8   6 903.294 847.246   9
  15  -8   6 154.729 489.072   9
  15   8   6 242.087 366.273  13
  15  -8   7-724.640 590.780   6
  15   8   7 543.644 604.788   9
  15  -8   7 139.192 371.601   9
  15   8   8 960.682 673.066   9
  15  -8   8 708.502 546.113   9
  15   8   9-19.7804 343.518   9
  15  -8   9 633.610 536.674   9
  15   8  10 394.876 430.741   9
 -15   9   9 193.743 210.532  26
  15  -9  -9 265.354 150.574  23
 -15   9   8 1690.75 442.909  26
  15  -9  -8 1483.63 605.643   5
 -15   9   7 540.307 325.396  26
  15  -9  -7 439.748 518.621   5
 -15   9   6 130.718 223.355  26
  15  -9  -6 70.1831 254.366  23
  15  -9  -6 191.698 477.469   5
  15  -9  -5 335.973 312.736  23
  15  -9  -5 128.923 617.087   5
  15  -9  -4-145.601 256.348  23
  15  -9  -4 452.533 458.859   5
  15  -9  -3-57.3977 255.048  23
  15  -9  -3-595.725 634.571   5
  15  -9  -2-247.911 287.498  23
  15  -9  -2-397.742 512.597   5
 -15  -9   1 1299.53 519.185  25
  15  -9  -1 1309.70 494.607  23
  15  -9  -1 257.484 593.910   5
  15  -9   0 1625.23 541.400  23
  15  -9   0 1233.32 715.988   5
  15  -9   0 1105.53 774.713   9
  15   9   0 520.689 486.379  13
  15  -9   1-804.407 433.070  23
  15  -9   1-89.8000 501.890   9
  15   9   1 17.3082 420.848  13
  15  -9   2 3856.17 802.392  23
  15  -9   2 2692.78 1001.05   9
  15   9   2 2033.70 790.685  13
  15  -9   3 2146.71 1051.66   9
  15   9   3 1596.76 710.816  13
  15  -9   4-565.612 590.593   9
  15   9   4 423.246 450.880  13
  15   9   5 2262.15 947.692   9
  15  -9   5 1228.82 715.136   9
  15   9   5 2085.95 831.113  13
  15   9   6-673.875 569.164   9
  15  -9   6 79.5256 518.220   9
  15   9   6 496.871 405.691  13
  15  -9   7 2527.09 1021.12   6
  15   9   7 1903.55 799.150   9
  15  -9   7 1397.25 729.507   9
  15   9   8 1324.46 615.625   9
  15  -9   8 953.828 706.590   9
  15   9   9 5385.41 1080.72   9
  15  -9   9 5617.54 1116.33   9
 -15 -10   9 438.486 260.407  25
 -15  10   8 1452.27 415.016  26
  15 -10  -8 1625.93 351.866  23
 -15  10   7 239.086 224.306  26
  15 -10  -7 71.8022 174.553  23
  15 -10  -7 560.666 486.555   5
 -15  10   6 1227.26 421.054  26
  15 -10  -6 1124.33 359.870  23
  15 -10  -6 1680.80 753.881   5
  15 -10  -5 447.830 265.541  23
  15 -10  -5 136.895 545.222   5
  15 -10  -4 618.670 376.181  23
  15 -10  -4 586.355 555.628   5
  15 -10  -3 921.572 396.452  23
  15 -10  -3 551.135 693.234   5
 -15 -10   2 947.500 471.554  25
  15 -10  -2 629.419 322.008  23
  15 -10  -2-284.647 542.215   5
 -15 -10   1 2680.44 712.854  25
  15 -10  -1 2593.42 614.827  23
  15 -10  -1 2698.52 985.113   5
  15 -10   0 8568.08 1035.21  23
  15 -10   0 6825.03 1517.41   5
  15 -10   0 4936.29 1404.63   9
  15 -10   1-1511.53 503.735  23
  15  10   1-568.622 482.815  13
  15 -10   1-117.739 577.473   9
  15  10   2 4083.48 1116.11  13
  15 -10   2 3468.85 1098.47   9
  15  10   3 184.199 430.597  13
  15 -10   3 764.981 548.237   9
  15 -10   4-293.436 635.003   9
  15  10   4-296.203 390.269  13
  15 -10   5 971.790 584.970   9
  15  10   5 230.047 359.892  13
  15  10   6-519.357 541.569   9
  15 -10   6-114.319 371.137   9
  15  10   7 895.736 676.228   9
  15 -10   7-219.942 412.054   9
  15  10   8 356.083 330.357   9
  15 -10   8-99.9453 471.805   9
  15  10   9-200.148 425.113   9
  15 -10   9 89.2040 276.837   9
 -15  11   8 7775.95 783.545  26
 -15 -11   8 7867.60 884.687  25
  15 -11  -8 8815.46 1254.16   5
 -15  11   7 602.991 285.797  26
  15 -11  -7 228.525 331.633   5
  15 -11  -6 576.142 529.536   5
  15 -11  -5-101.611 216.183  23
  15 -11  -5-393.331 403.914   5
  15 -11  -4-59.6730 265.854  23
  15 -11  -4 366.686 411.000   5
 -15 -11   3 3086.24 731.812  25
  15 -11  -3 2782.44 558.666  23
  15 -11  -3 2324.49 1002.08   5
 -15 -11   2 230.266 253.838  25
  15 -11  -2 166.131 245.078  23
 -15 -11   1 715.486 385.666  25
  15 -11  -1 234.293 279.032  23
  15 -11  -1 95.8141 640.075   5
  15 -11  -1 100.781 406.861   9
  15 -11   0-179.396 337.717  23
  15 -11   0 901.823 414.137   5
  15 -11   0 20.2783 397.944   9
  15 -11   1-109.274 481.370   9
  15  11   2 3610.15 1004.18  13
  15 -11   2 2232.90 960.260   9
  15  11   3 252.837 414.551  13
  15 -11   3 679.741 582.442   9
  15  11   4 577.291 575.402  13
  15 -11   4 529.491 622.226   9
  15 -11   5 2461.83 903.439   9
  15  11   6-19.3374 574.538   9
  15 -11   6-62.8021 383.926   9
  15  11   7 1395.95 650.676   9
  15 -11   7 110.907 472.107   9
  15  11   8 130.216 335.048   9
  15 -11   8 369.096 389.674   9
 -15 -12   8 979.005 325.829  25
 -15 -12   7 291.578 239.600  25
  15 -12  -7 614.360 423.807   5
 -15 -12   6 1886.93 512.227  25
  15 -12  -6 2101.09 684.746   5
 -15 -12   5 1044.96 418.486  25
  15 -12  -5 1086.32 670.819   5
 -15 -12   4-256.563 312.791  25
  15 -12  -4 388.660 380.553   5
 -15 -12   3 9739.45 1183.92  25
  15 -12  -3 9022.13 1646.45   5
 -15 -12   2 1896.52 552.977  25
  15 -12  -2 1308.44 765.539   5
 -15 -12   1 882.934 401.208  25
  15 -12  -1-340.901 652.742   5
  15 -12  -1 1227.75 668.461   9
 -15 -12   0 4231.84 787.108  25
  15 -12   0 5068.93 1226.99   5
  15 -12   0 5990.16 1405.27   9
  15 -12   1 1965.66 867.930   9
  15  12   2 922.251 533.036  13
  15 -12   2 832.694 491.699   9
  15 -12   3 908.261 623.307   9
  15 -12   4-555.560 533.100   9
  15 -12   5 4666.66 1209.63   9
  15  12   6 383.622 403.139   9
  15 -12   6 1711.77 663.632   9
  15  12   7-58.1475 309.249   9
  15 -12   7-999.241 561.597   9
 -15 -13   7 242.470 208.620  25
  15 -13  -7 276.221 280.147   5
 -15 -13   6 2188.14 486.568  25
  15 -13  -6 2101.95 729.673   5
 -15 -13   5 1332.62 432.473  25
  15 -13  -5 1715.49 737.934   5
 -15 -13   4 569.720 331.935  25
  15 -13  -4-62.7704 393.080   5
 -15 -13   3 113.800 256.613  25
  15 -13  -3-1213.50 666.331   5
 -15 -13   2 378.871 356.346  25
  15 -13  -2-18.6911 523.846   5
 -15 -13   1 232.258 271.470  25
  15 -13  -1-178.492 552.678   5
  15 -13  -1 638.059 535.094   9
 -15 -13   0-356.831 300.777  25
  15 -13   0-1124.19 611.332   5
  15 -13   0-148.841 373.143   9
  15 -13   1 85.4698 489.774   9
  15 -13   2 230.231 501.805   9
  15 -13   3-28.1187 343.537   9
  15 -13   4-467.967 492.376   9
  15 -13   5 2140.23 814.990   9
  15 -13   6 765.572 531.378   9
  15 -13   7 2201.24 767.619   9
 -15 -14   6-52.3703 208.853  25
  15 -14  -6 36.7537 271.716   5
 -15 -14   5 1126.14 391.048  25
  15 -14  -5 706.743 459.271   5
 -15 -14   4 955.638 332.350  25
  15 -14  -4 55.7384 352.686   5
 -15 -14   3 330.964 300.008  25
  15 -14  -3-489.355 479.944   5
 -15 -14   2 89.3312 236.678  25
  15 -14  -2 419.886 339.293   5
 -15 -14   1 6701.69 894.355  25
  15 -14  -1 6122.47 1223.80   5
  15 -14  -1 6101.29 1260.04   9
 -15 -14   0-343.207 309.870  25
  15 -14   0 373.093 377.951   5
  15 -14   0-227.553 382.990   9
  15 -14   1 2227.18 823.480   9
  15 -14   2 585.078 490.369   9
  15 -14   3 921.011 487.386   9
  15 -14   4 332.309 374.752   9
  15 -14   5 1823.37 715.669   9
  15 -14   6 59.7890 312.336   9
 -15 -15   5 370.236 265.445  25
  15 -15  -5 56.1191 291.969   5
 -15 -15   4 649.199 316.548  25
  15 -15  -4 169.479 419.480   5
 -15 -15   3-245.095 231.890  25
  15 -15  -3-104.800 440.843   5
 -15 -15   2-119.703 214.454  25
  15 -15  -2-308.148 367.090   5
 -15 -15   1-92.5929 250.487  25
  15 -15  -1-12.2214 384.625   5
  15 -15  -1 527.723 456.323   9
  15 -15   0 585.076 346.955   5
  15 -15   0 133.712 307.006   9
  15 -15   1 568.713 459.326   9
  15 -15   2 1314.52 645.911   9
  15 -15   3 960.896 637.960   9
  15 -15   4 433.559 383.925   9
  15 -15   5 505.660 490.054   9
 -15 -16   4 1290.55 354.602  25
  15 -16  -4 1370.22 531.251   5
 -15 -16   3 570.669 270.767  25
  15 -16  -3 423.980 326.530   5
 -15 -16   2 427.968 242.535  25
  15 -16  -2 168.235 386.203   5
  15 -16  -1 93.0012 285.340   5
  15 -16  -1 406.134 363.770   9
  15 -16   0 163.092 325.437   9
  15 -16   1 518.064 407.772   9
  15 -16   2 6009.96 1141.34   9
  15 -16   3 289.015 269.956   9
  15 -16   4 1.57882 299.394   9
  15 -17   1-260.562 303.911   9
 -16   0   9-10.2973 219.717  26
 -16   0   8 1508.00 452.303  26
 -16   0   7 219.745 292.444  26
 -16   0   6 1791.08 550.805  26
 -16   0   5-539.541 352.885  26
 -16   0   4 196.686 271.622  26
  16   0  -3-944.168 704.633   6
  16   0  -3 11.8023 309.526  23
  16   0  -2-1202.10 847.274   6
  16   0  -2 996.175 471.575  23
  16   0  -1-319.408 582.345   6
  16   0  -1-203.966 423.192  23
  16   0   0 1460.58 849.296   6
  16   0   0 2189.37 623.772  23
  16   0   1-98.8128 618.144   6
  16   0   1-572.420 380.853  23
  16   0   2 275.346 567.079   6
  16   0   2-5.15958 279.143  23
  16   0   3 1336.25 895.229   6
  16   0   3 1155.66 689.468   9
  16   0   4-161.334 562.821   6
  16   0   4 1077.30 636.449  13
  16   0   5-432.751 786.349   6
  16   0   5 307.031 471.423   9
  16   0   5 91.4977 464.991  13
  16   0   6 378.727 465.421   6
  16   0   6 260.235 424.136   9
  16   0   6 90.9881 315.428  13
  16   0   7-657.831 522.583   9
  16   0   7 208.038 362.113  13
  16   0   8 2949.83 942.124   9
  16   0   8 3220.32 878.931  13
  16   0   9 59.2436 340.210   9
  16   0  10 636.592 435.099   9
 -16   1   9-280.152 281.327  26
 -16  -1   8 317.325 283.293  26
 -16   1   8 806.235 367.421  26
 -16  -1   7 1953.32 532.229  26
 -16   1   7 2921.90 640.288  26
 -16  -1   6 257.080 290.073  26
 -16   1   6-32.6142 246.610  26
 -16  -1   5 2492.08 637.194  26
 -16   1   5 2344.94 568.491  26
 -16   1   4 274.162 318.996  26
  16  -1  -3 3289.30 1116.91   6
  16   1  -3 3997.05 721.540  23
  16  -1  -3 3034.08 705.505  23
  16   1  -2 25301.2 3244.60   6
  16  -1  -2 24724.8 3146.44   6
  16   1  -2 28371.4 1888.17  23
  16  -1  -2 29184.8 2001.73  23
  16   1  -1 2346.04 992.387   6
  16  -1  -1 2821.95 1090.99   6
  16   1  -1 2722.50 626.336  23
  16  -1  -1 3592.96 714.125  23
  16   1   0 4179.70 1515.13   6
  16  -1   0 4592.49 1637.37   6
  16   1   0 5536.72 864.048  23
  16  -1   0 6235.62 949.163  23
  16   1   1 3611.44 1330.80   6
  16  -1   1 1363.32 1009.79   6
  16   1   1 2012.42 558.436  23
  16  -1   1 1574.01 529.336  23
  16   1   2 157.541 487.242   6
  16  -1   2 1243.11 963.499   6
  16   1   2 507.930 305.595  23
  16  -1   2 281.517 359.262  23
  16   1   3 84.6330 513.283   6
  16  -1   3 500.990 679.521   6
  16   1   3 780.716 595.631   9
  16  -1   3 1237.82 720.861   9
  16   1   3 759.843 568.340  13
  16   1   4 668.601 843.314   6
  16  -1   4 6.71377 646.052   6
  16   1   4-313.240 458.391   9
  16  -1   4 129.739 417.309   9
  16   1   4-561.489 505.495  13
  16  -1   4 213.752 344.004  13
  16   1   5 153.374 650.389   6
  16  -1   5 308.914 675.320   6
  16   1   5-217.190 624.423   9
  16  -1   5 639.510 529.117   9
  16   1   5 287.943 422.489  13
  16  -1   5-767.787 574.430  13
  16   1   6-347.246 515.560   6
  16  -1   6-997.080 673.462   6
  16   1   6-1604.00 769.044   9
  16  -1   6 254.179 403.524   9
  16   1   6 255.936 368.872  13
  16  -1   6 23.7177 309.612  13
  16   1   7 57.9915 451.444   9
  16  -1   7 62.8965 378.209   9
  16   1   7 192.294 356.308  13
  16  -1   7-483.172 456.332  13
  16   1   8-363.725 577.699   9
  16  -1   8-603.605 499.651   9
  16   1   8-334.427 371.073  13
  16   1   9-117.462 387.004   9
  16  -1   9-676.510 482.650   9
  16   1  10 358.853 352.051   9
  16  -1  10 323.779 374.002   9
 -16   2  10 1134.92 371.416  26
 -16   2   9 1876.92 458.409  26
 -16   2   8 199.639 270.753  26
 -16   2   7 7974.15 982.288  26
 -16   2   6-545.221 368.523  26
 -16   2   5 6805.50 959.053  26
  16  -2  -5 6608.52 1503.90   5
  16   2  -4-291.364 249.247  23
  16  -2  -4 239.877 423.467   5
  16  -2  -3 72.3252 647.746   6
  16   2  -3 138.327 231.149  23
  16  -2  -3 444.271 402.138  23
  16  -2  -3-435.607 572.658   5
  16   2  -2-300.426 594.260   6
  16  -2  -2 150.811 683.358   6
  16   2  -2 1428.68 503.417  23
  16  -2  -2 721.662 406.709  23
  16  -2  -2-162.773 658.639   5
  16   2  -1 137.480 480.810   6
  16  -2  -1 147.733 476.333   6
  16   2  -1 267.713 265.826  23
  16  -2  -1-269.293 396.559  23
  16   2   0-52.6727 645.853   6
  16  -2   0 1249.49 1025.93   6
  16   2   0 761.914 410.875  23
  16  -2   0 824.919 505.813  23
  16  -2   0 1565.22 808.026   5
  16   2   1 332.205 837.117   6
  16  -2   1 1712.15 987.485   6
  16   2   1 638.152 329.252  23
  16  -2   1 1199.49 482.176  23
  16   2   2 3.62476 495.924   6
  16  -2   2-188.889 769.152   6
  16   2   2-48.4573 296.423  23
  16  -2   2-127.671 382.875  23
  16   2   3 3359.09 1293.96   6
  16  -2   3 1828.40 1172.09   6
  16  -2   3 2858.73 1032.90   9
  16   2   3 2973.36 1023.93  13
  16   2   4-223.189 623.550   6
  16  -2   4 324.105 716.098   6
  16   2   4 155.399 414.771   9
  16  -2   4 597.202 490.975   9
  16   2   4 395.880 388.422  13
  16  -2   4-74.0164 633.157  13
  16   2   5 5174.65 1388.01   6
  16  -2   5 5246.99 1492.15   6
  16   2   5 6142.34 1452.73   9
  16  -2   5 5114.36 1304.80   9
  16   2   5 4813.55 1202.98  13
  16  -2   5 4364.00 1153.98  13
  16  -2   6 877.107 638.495   6
  16   2   6-454.205 560.219   9
  16  -2   6-280.161 375.157   9
  16   2   6 876.273 559.933  13
  16  -2   6-472.968 473.574  13
  16  -2   7 654.063 521.673   6
  16   2   7-524.926 495.951   9
  16  -2   7 66.2363 426.025   9
  16   2   7 865.746 541.309  13
  16  -2   7 141.484 261.064  13
  16   2   8 387.954 510.155   9
  16  -2   8-653.818 511.065   9
  16   2   8 182.003 328.999  13
  16   2   9 734.330 512.473   9
  16  -2   9-288.139 448.333   9
  16   2  10 682.070 525.676   9
  16  -2  10 795.202 443.467   9
 -16   3  10-88.0892 183.437  26
 -16   3   9-222.504 206.094  26
 -16   3   8 92.2782 207.897  26
 -16   3   7 5228.09 802.693  26
 -16   3   6 87.3732 269.197  26
  16  -3  -6 868.254 639.387   5
 -16   3   5 21310.6 1636.97  26
  16  -3  -5 20472.5 2595.94   5
  16   3  -4 3939.47 672.124  23
  16  -3  -4 2761.87 1071.71   5
  16  -3  -3 4973.83 1388.06   6
  16  -3  -3 7858.38 1041.79  23
  16   3  -3 5985.63 811.984  23
  16  -3  -3 4990.63 1375.47   5
  16  -3  -2 467.127 634.234   6
  16   3  -2 687.074 389.212  23
  16  -3  -2 907.496 477.283  23
  16  -3  -2 1357.38 668.310   5
  16   3  -1 2044.33 1195.75   6
  16  -3  -1 1743.37 834.094   6
  16   3  -1 1482.59 490.449  23
  16  -3  -1 1657.82 558.061  23
  16  -3  -1 2101.64 908.857   5
  16   3   0 483.123 587.984   6
  16  -3   0 126.083 609.037   6
  16   3   0-410.171 388.163  23
  16  -3   0-6.73341 400.380  23
  16  -3   0-680.026 607.501   5
  16   3   1 9645.27 2099.65   6
  16  -3   1 8260.86 2042.97   6
  16   3   1 7412.47 931.951  23
  16  -3   1 8445.19 1182.83  23
  16   3   2 139.583 547.930   6
  16  -3   2 198.774 616.537   6
  16   3   2 251.259 311.784  23
  16  -3   2-286.980 559.159  23
  16  -3   2 375.517 464.695   9
  16   3   2 976.206 658.587  13
  16   3   3 1734.07 1032.27   6
  16  -3   3 3872.87 1451.65   6
  16  -3   3 4373.51 1260.66   9
  16   3   3 2759.65 966.819  13
  16   3   4-287.191 475.134   6
  16  -3   4-321.270 600.858   6
  16   3   4-1137.87 689.143   9
  16  -3   4 642.360 650.656   9
  16   3   4 236.843 375.086  13
  16  -3   4 839.832 591.701  13
  16  -3   5 2869.11 1134.66   6
  16   3   5 2885.42 974.800   9
  16  -3   5 2239.71 902.775   9
  16   3   5 3880.65 1043.29  13
  16  -3   5 1859.90 681.460  13
  16  -3   6 911.684 695.059   6
  16   3   6 599.260 611.658   9
  16  -3   6 369.101 513.000   9
  16   3   6 1230.87 574.859  13
  16  -3   6-634.557 494.900  13
  16  -3   7-712.279 522.032   6
  16   3   7 131.935 446.887   9
  16  -3   7-16.1903 308.876   9
  16   3   7 835.004 511.937  13
  16   3   8 215.318 336.038   9
  16   3   8 379.703 359.446  13
  16   3   9-120.172 308.845   9
  16  -3   9-484.525 425.266   9
  16   3  10 500.098 415.462   9
 -16   4   9 1075.97 327.025  26
 -16   4   8 190.482 268.663  26
 -16   4   7 2028.80 506.514  26
 -16   4   6 558.964 322.808  26
  16  -4  -6 66.5704 462.542   5
 -16   4   5 5336.60 832.331  26
  16   4  -5 5217.48 724.631  23
  16  -4  -5 5345.85 1338.12   5
  16   4  -4 526.911 317.702  23
  16  -4  -4 993.410 480.204  23
  16  -4  -4 699.321 735.057   5
  16  -4  -3-153.101 474.019   6
  16   4  -3 949.170 383.745  23
  16  -4  -3 1885.13 581.394  23
  16  -4  -3 1621.38 862.089   5
  16  -4  -2 1157.63 995.918   6
  16   4  -2 1359.85 416.841  23
  16  -4  -2 1062.43 542.903  23
  16  -4  -2 688.471 577.604   5
  16  -4  -1 652.702 490.908   6
  16   4  -1 596.967 335.634  23
  16  -4  -1-180.204 449.822  23
  16  -4  -1 1334.94 875.275   5
  16  -4   0 176.052 537.660   6
  16  -4   0 98.1271 426.068  23
  16  -4   0-414.212 492.342   5
  16  -4   1 211.570 628.501   6
  16  -4   1 138.451 359.204  23
  16   4   1 413.001 392.148  13
  16   4   2 216.744 550.333   6
  16  -4   2-296.192 870.607   6
  16  -4   2 287.025 400.379  23
  16  -4   2 129.649 444.533   9
  16   4   2 1369.04 743.362  13
  16  -4   3 2037.47 1169.90   6
  16  -4   3 1614.28 712.067   9
  16   4   3 1913.14 841.389  13
  16  -4   4 55.6631 586.185   6
  16   4   4 1398.76 757.633   9
  16  -4   4 511.964 429.202   9
  16   4   4-29.2104 377.272  13
  16  -4   5 4185.06 1299.89   6
  16   4   5 4013.40 1157.57   9
  16  -4   5 4390.77 1250.98   9
  16   4   5 3578.09 1038.92  13
  16  -4   5 3036.00 1010.22  13
  16  -4   6 1762.43 885.051   6
  16   4   6-45.9883 402.275   9
  16  -4   6 1366.55 717.628   9
  16   4   6 1020.08 584.035  13
  16  -4   7 426.021 434.746   6
  16   4   7 1532.13 742.765   9
  16  -4   7 526.448 504.793   9
  16   4   7 971.230 516.812  13
  16   4   8 2120.39 760.636   9
  16  -4   8 3468.81 933.675   9
  16   4   9 940.262 602.764   9
  16  -4   9 697.062 441.506   9
 -16   5   9-3.07748 230.582  26
 -16   5   8 1198.25 360.872  26
 -16   5   7 312.423 304.952  26
  16  -5  -7 212.232 387.412   5
 -16   5   6 664.700 309.053  26
  16  -5  -6 295.550 456.024   5
  16  -5  -5 824.068 469.966   5
  16  -5  -4 2239.38 573.871  23
  16  -5  -4 1039.99 758.596   5
  16  -5  -3-123.562 419.019   6
  16  -5  -3 136.041 368.335  23
  16  -5  -3 61.2923 547.851   5
  16  -5  -2 30971.0 3459.61   6
  16  -5  -2 34111.8 2176.91  23
  16  -5  -2 35443.5 3480.49   5
  16  -5  -1-19.3831 631.189   6
  16  -5  -1 910.527 367.692  23
  16  -5  -1 836.561 564.804   5
  16   5  -1 940.635 738.323  13
  16  -5   0 18611.9 1679.41  23
  16  -5   0 14831.5 2638.36   6
  16  -5   0 16709.4 2286.40   5
  16   5   0 15052.9 2162.06  13
  16  -5   1 295.499 776.822   6
  16  -5   1-1492.13 579.658  23
  16   5   1-846.892 612.808  13
  16  -5   2-136.641 497.430  23
  16  -5   2-287.356 603.577   6
  16  -5   2 473.540 507.026   9
  16   5   2-11.3417 370.071  13
  16  -5   3-536.649 954.420   6
  16  -5   3-56.6734 488.039   9
  16   5   3 576.517 498.614  13
  16  -5   4-470.403 633.052   6
  16   5   4 323.718 367.372  13
  16  -5   5-269.082 441.336   6
  16   5   5 557.031 580.105   9
  16  -5   5 1285.27 754.779   9
  16   5   5 748.129 553.160  13
  16  -5   5-323.103 437.731  13
  16  -5   6 1119.24 748.280   6
  16   5   6 711.146 657.675   9
  16  -5   6 780.140 618.899   9
  16   5   6 1187.25 607.756  13
  16   5   7-608.003 509.012   9
  16  -5   7 206.113 331.344   9
  16   5   7 180.004 356.562  13
  16   5   8 227.746 445.849   9
  16  -5   8-326.998 401.879   9
  16   5   9 271.017 362.885   9
  16  -5   9-368.875 373.114   9
 -16   6   9 511.927 246.653  26
 -16   6   8-6.87931 223.989  26
 -16   6   7 612.913 319.647  26
  16  -6  -7-575.744 478.067   5
 -16   6   6 1493.91 428.636  26
  16  -6  -6 2622.94 1002.81   5
  16  -6  -5 1978.27 517.299  23
  16  -6  -5 1550.42 856.803   5
  16  -6  -4-114.158 288.439  23
  16  -6  -4 488.560 542.913   5
  16  -6  -3 463.699 397.757  23
  16  -6  -3 1131.21 720.434   5
  16  -6  -2 1408.91 612.043   6
  16  -6  -2 806.144 429.744  23
  16  -6  -2 1665.57 933.991   5
  16   6  -2 516.483 465.496  13
  16  -6  -1 222.897 479.648   6
  16  -6  -1 325.360 352.585  23
  16  -6  -1-27.3108 629.790   5
  16   6  -1 447.144 318.484  13
  16  -6   0 385.889 688.590   6
  16  -6   0 770.847 455.901  23
  16  -6   0 542.666 559.487   5
  16   6   0 130.922 443.847  13
  16  -6   1-55.4252 460.986  23
  16  -6   1-304.156 901.570   6
  16  -6   1-291.906 451.522   9
  16   6   1 116.818 463.616  13
  16  -6   2 172.864 364.409  23
  16  -6   2-823.982 727.596   6
  16  -6   2 365.535 466.726   9
  16   6   2 161.328 371.457  13
  16  -6   3-129.444 491.451   6
  16  -6   3 250.570 407.575   9
  16   6   3 506.615 493.007  13
  16  -6   4-203.498 446.630   9
  16   6   4 659.473 523.185  13
  16  -6   5-372.114 854.963   6
  16   6   5 1139.97 714.250   9
  16  -6   5 622.157 533.794   9
  16   6   5 402.020 460.592  13
  16  -6   6 1183.10 653.264   6
  16   6   6-63.9619 365.780   9
  16  -6   6 449.925 460.439   9
  16   6   6 920.757 534.208  13
  16  -6   7 1146.73 644.169   6
  16   6   7 577.283 592.344   9
  16  -6   7-208.860 485.039   9
  16   6   7-45.0781 260.963  13
  16   6   8 4241.30 1073.68   9
  16  -6   8 2712.37 864.677   9
  16   6   9-13.6531 299.154   9
  16  -6   9-375.793 464.620   9
 -16   7   8-268.920 256.832  26
  16  -7  -8 451.054 226.377  23
 -16   7   7 944.573 354.213  26
  16  -7  -7 131.572 213.596  23
 -16   7   6 525.153 363.276  26
  16  -7  -6 382.726 272.842  23
  16  -7  -6 92.5821 327.303   5
  16  -7  -5 12587.7 1151.79  23
  16  -7  -5 11345.5 1890.02   5
  16  -7  -4-254.874 286.576  23
  16  -7  -4 890.935 669.614   5
  16  -7  -3 3976.19 739.625  23
  16  -7  -3 4575.05 1315.56   5
  16  -7  -2 645.506 727.137   6
  16  -7  -2-129.805 374.201  23
  16  -7  -2 1130.68 751.983   5
  16  -7  -1-389.490 699.205   6
  16  -7  -1-110.021 366.299  23
  16  -7  -1 490.465 560.470   5
  16   7  -1 479.131 401.618  13
  16  -7   0 21258.4 3150.09   6
  16  -7   0 20322.7 1694.43  23
  16  -7   0 18055.0 2306.54   5
  16   7   0 21230.0 2426.36  13
  16  -7   1 8552.44 1146.64  23
  16  -7   1 11589.3 2307.82   6
  16  -7   1 8605.68 1678.83   9
  16   7   1 8277.15 1583.23  13
  16  -7   2-175.369 342.347  23
  16  -7   2 416.647 737.080   9
  16   7   2 789.317 588.337  13
  16  -7   3 1024.76 548.738   9
  16   7   3 870.210 449.129  13
  16  -7   4 637.130 748.282   6
  16  -7   4 36.8115 340.426   9
  16   7   4 299.259 340.410  13
  16  -7   5 588.143 558.921   6
  16   7   5 1405.92 694.274   9
  16  -7   5 1093.42 630.025   9
  16   7   5 1282.14 582.435  13
  16  -7   6 131.494 402.261   6
  16   7   6 1247.49 650.709   9
  16  -7   6 463.699 517.320   9
  16   7   6 201.673 291.595  13
  16  -7   7 789.870 584.097   6
  16   7   7 185.828 416.862   9
  16  -7   7 275.671 380.769   9
  16   7   8-218.749 364.099   9
  16  -7   8 684.414 471.730   9
  16  -7   9-565.765 411.429   9
 -16   8   8-212.586 265.875  26
  16  -8  -8 29.2208 185.075  23
 -16   8   7 2013.12 495.664  26
  16  -8  -7 1848.86 404.401  23
  16  -8  -7 790.451 520.109   5
  16  -8  -6 14.1630 219.444  23
  16  -8  -6 835.716 560.229   5
  16  -8  -5 6809.22 818.168  23
  16  -8  -5 6217.72 1405.35   5
  16  -8  -4 511.870 304.844  23
  16  -8  -4 763.942 637.155   5
  16  -8  -3 372.489 328.725  23
  16  -8  -3 665.759 662.237   5
  16  -8  -2 1845.80 901.946   6
  16  -8  -2 2422.22 624.906  23
  16  -8  -2 3270.18 1172.20   5
  16  -8  -1-263.635 673.524   6
  16  -8  -1 46.0609 321.475  23
  16  -8  -1 674.986 585.696   5
  16  -8   0 594.721 342.947  23
  16  -8   0 506.641 760.934   6
  16  -8   0-540.078 527.739   5
  16   8   0 569.836 462.322  13
  16  -8   1 154.613 306.841  23
  16  -8   1 819.969 547.983   9
  16   8   1 585.264 480.324  13
  16  -8   2 116.845 382.567   9
  16   8   2 448.575 524.819  13
  16  -8   3 3796.81 1138.94   9
  16   8   3 4804.41 1159.67  13
  16  -8   4 55.0695 521.736   9
  16   8   4 397.271 505.450  13
  16  -8   5 3882.90 1168.37   6
  16  -8   5 4109.15 1133.40   9
  16   8   5 3019.96 849.247  13
  16  -8   6-456.816 476.258   6
  16   8   6 1110.49 622.171   9
  16  -8   6 51.5542 435.762   9
  16   8   6 538.216 434.156  13
  16  -8   7 294.126 535.861   6
  16   8   7-41.5483 545.093   9
  16  -8   7-274.414 400.804   9
  16   8   8 103.311 507.261   9
  16  -8   8-307.136 369.778   9
 -16   9   7 2101.81 445.877  26
  16  -9  -7 2408.17 407.237  23
  16  -9  -7 1921.43 653.808   5
  16  -9  -6 1307.97 372.715  23
  16  -9  -6 1329.47 629.572   5
  16  -9  -5 3751.36 606.496  23
  16  -9  -5 5360.19 1274.64   5
  16  -9  -4 76.9396 219.958  23
  16  -9  -4 1581.00 798.945   5
  16  -9  -3 5487.83 786.066  23
  16  -9  -3 6925.21 1497.42   5
  16  -9  -2 18240.0 2509.88   6
 -16  -9   2 17908.0 1563.07  25
  16  -9  -2 18690.3 1454.31  23
  16  -9  -2 17772.1 2389.66   5
  16  -9  -1-9.99410 283.832  23
  16  -9  -1 906.943 845.301   6
  16  -9  -1 1136.31 767.630   5
  16  -9   0 334.686 378.449  23
  16  -9   0 552.192 558.183   5
  16   9   0 779.225 491.862  13
  16  -9   1 546.224 316.667  23
  16  -9   1 1004.09 631.778   9
  16   9   1 802.896 497.741  13
  16  -9   2 4273.31 1199.89   9
  16   9   2 3976.40 1065.17  13
  16  -9   3 2132.81 863.754   9
  16   9   3 2942.66 944.380  13
  16  -9   4-170.580 387.719   9
  16   9   4 199.037 258.579  13
  16  -9   5 179.058 589.667   6
  16  -9   5 184.917 359.623   9
  16   9   5-311.986 427.656  13
  16  -9   6-208.168 481.327   6
  16   9   6 363.100 402.661   9
  16  -9   6 1344.84 620.213   9
  16  -9   7 338.950 548.413   6
  16   9   7 167.442 305.437   9
  16  -9   7 208.507 309.422   9
  16  -9   8 144.143 295.467   9
 -16 -10   7 951.754 369.733  25
  16 -10  -7 943.787 267.003  23
  16 -10  -7 157.369 331.513   5
  16 -10  -6 353.129 217.051  23
  16 -10  -6 825.325 537.717   5
  16 -10  -5-8.89664 219.446  23
  16 -10  -5 821.141 555.818   5
 -16 -10   4 744.042 371.066  25
  16 -10  -4 180.253 223.853  23
  16 -10  -4 1024.91 595.891   5
 -16 -10   3 1400.94 520.350  25
  16 -10  -3 310.076 262.778  23
  16 -10  -3 1353.69 817.805   5
 -16 -10   2 88.2815 258.846  25
  16 -10  -2-495.780 535.201   6
  16 -10  -2 340.168 330.622  23
  16 -10  -2-127.260 596.281   5
  16 -10  -1-98.6684 241.309  23
  16 -10  -1 1030.90 679.305   5
  16 -10   0 199.013 262.303  23
  16 -10   0 255.192 430.643   5
  16 -10   0-203.638 411.364   9
  16 -10   1 309.619 425.122   9
  16  10   1 940.733 504.840  13
  16 -10   2 1463.72 807.924   9
  16  10   2 313.797 454.590  13
  16 -10   3 1344.18 734.276   9
  16  10   3 1535.04 638.759  13
  16 -10   4-215.336 401.183   9
  16  10   4-305.725 435.681  13
  16 -10   5 1123.71 625.350   9
  16 -10   6 1631.32 686.775   6
  16 -10   6 2710.23 868.230   9
  16 -10   7 70.1981 481.331   6
  16 -10   7 304.026 412.381   9
 -16 -11   7 168.005 197.042  25
  16 -11  -7-195.207 302.756   5
 -16 -11   6 289.387 244.500  25
  16 -11  -6 987.148 546.977   5
 -16 -11   5-5.01114 202.354  25
  16 -11  -5 576.489 262.795  23
  16 -11  -5 277.581 481.483   5
 -16 -11   4-31.6692 222.655  25
  16 -11  -4-63.9717 188.319  23
  16 -11  -4 401.279 559.393   5
 -16 -11   3-416.981 305.323  25
  16 -11  -3-176.744 210.286  23
 -16 -11   2 18074.6 1460.92  25
  16 -11  -2 18873.7 1281.59  23
  16 -11  -2 15865.4 2092.58   5
 -16 -11   1 3847.73 677.563  25
  16 -11  -1 3490.26 573.429  23
  16 -11  -1 3354.69 1107.17   6
  16 -11  -1 4320.47 1121.80   5
  16 -11   0 3657.28 1034.44   5
  16 -11   0 2613.47 844.821   9
  16 -11   1 3659.71 1037.91   9
  16 -11   2 49.6949 416.864   9
  16  11   2-305.577 556.511  13
  16 -11   3 984.819 572.603   9
  16 -11   4-476.063 450.822   9
  16 -11   5 401.377 443.801   9
  16 -11   6 530.502 421.221   6
  16 -11   6 1207.90 651.845   9
  16 -11   7 315.300 329.792   9
 -16 -12   6 907.853 347.804  25
  16 -12  -6 1163.67 599.349   5
 -16 -12   5 428.399 282.343  25
  16 -12  -5-943.294 542.065   5
 -16 -12   4 61.3641 185.194  25
  16 -12  -4 928.952 661.282   5
 -16 -12   3 703.029 369.088  25
  16 -12  -3 1375.72 665.777   5
 -16 -12   2-60.4149 235.818  25
  16 -12  -2 598.991 514.208   5
 -16 -12   1 206.668 239.929  25
  16 -12  -1 472.827 513.387   6
  16 -12  -1 1187.07 724.701   5
  16 -12   0 1349.68 747.607   5
  16 -12   0 43.9670 337.612   9
  16 -12   1 847.715 529.085   9
  16 -12   2-230.363 385.380   9
  16 -12   3-611.246 498.647   9
  16 -12   4 449.902 286.186   9
  16 -12   5 915.866 522.490   9
  16 -12   6 507.409 298.372   6
  16 -12   6 386.469 424.503   9
 -16 -13   5 2383.35 456.439  25
  16 -13  -5 2799.23 780.536   5
 -16 -13   4-153.179 175.987  25
  16 -13  -4 5.27773 389.404   5
 -16 -13   3 7632.33 872.322  25
  16 -13  -3 7170.44 1296.94   5
 -16 -13   2 2113.70 486.934  25
  16 -13  -2 2828.38 884.095   5
 -16 -13   1 462.263 301.985  25
  16 -13  -1-9.66580 531.811   6
  16 -13   0 252.844 288.192   9
  16 -13   1 3768.36 948.507   9
  16 -13   2 143.380 337.352   9
  16 -13   3 1510.75 624.281   9
  16 -13   4-217.759 425.998   9
  16 -13   5 21.7440 356.970   6
  16 -13   5 262.953 296.059   9
 -16 -14   4 482.698 253.292  25
  16 -14  -4 568.717 318.905   5
 -16 -14   3-142.251 208.146  25
  16 -14  -3 1008.65 567.777   5
 -16 -14   2-121.827 194.479  25
  16 -14  -2 641.486 510.115   5
 -16 -14   1-265.365 224.205  25
  16 -14  -1 1354.49 639.176   5
  16 -14   0 995.951 666.313   6
  16 -14   0 32.0463 323.756   9
  16 -14   1 33.4836 284.496   9
  16 -14   2 846.088 467.195   9
  16 -14   3 566.957 350.316   9
  16 -14   4-823.625 448.946   9
  16 -15   2 238.145 342.498   9
  17   0  -8 1180.94 311.963  23
  17   0  -7-115.357 185.081  23
  17   0  -6 2589.17 540.778  23
  17   0  -5 216.976 244.110  23
  17   0  -4 11433.6 1108.40  23
  17   0  -3-11.6811 249.602  23
  17   0  -2 418.546 520.303   6
  17   0  -2 943.310 411.345  23
  17   0  -1 217.700 567.515   6
  17   0  -1 355.015 307.817  23
  17   0   0 2629.18 1165.36   6
  17   0   0 2398.21 581.915  23
  17   0   1 1278.90 1021.79   6
  17   0   1-51.6322 292.303  23
  17   0   2 591.083 561.422   6
  17   0   3-513.724 715.486   6
  17   0   3 346.722 376.220  13
  17   0   4 3713.44 1217.09   6
  17   0   4 4214.66 1036.83   9
  17   0   4 3688.05 1040.06  13
  17   0   5 14.9581 434.138   6
  17   0   5-481.809 581.232   9
  17   0   5-399.295 421.651  13
  17   0   6 646.369 563.164   6
  17   0   6 203.305 405.364   9
  17   0   6 393.931 359.468  13
  17   0   7-875.186 519.778   9
  17   0   7 401.226 370.084  13
  17   0   8-140.448 298.969   9
  17   1  -8 1096.90 326.106  23
  17  -1  -8 1211.42 344.361  23
  17   1  -7 571.144 272.757  23
  17  -1  -7 685.573 331.654  23
  17   1  -6 909.501 337.537  23
  17  -1  -6 883.887 345.813  23
  17   1  -5-157.803 239.358  23
  17  -1  -5-17.9010 270.359  23
  17   1  -4 1227.58 448.199  23
  17  -1  -4 669.051 384.447  23
  17   1  -3 360.881 307.876  23
  17  -1  -3 540.226 334.804  23
  17  -1  -2 314.492 553.347   6
  17   1  -2 170.439 228.768  23
  17  -1  -2 981.546 490.851  23
  17   1  -1 211.979 556.283   6
  17  -1  -1 328.850 547.231   6
  17   1  -1 190.810 245.605  23
  17  -1  -1 1118.23 517.976  23
  17   1   0-239.362 608.342   6
  17  -1   0 331.262 469.669   6
  17   1   0 286.859 295.116  23
  17  -1   0 147.539 268.006  23
  17   1   1 547.855 581.419   6
  17  -1   1 309.287 545.990   6
  17   1   1 547.509 288.153  23
  17  -1   1 18.8801 340.906  23
  17   1   2-224.454 525.965   6
  17  -1   2 82.3132 317.222  23
  17   1   2 1130.91 579.537  13
  17   1   3 942.469 746.106   6
  17  -1   3 1267.95 795.136   6
  17  -1   3 1907.73 682.106   9
  17   1   3 918.189 593.167  13
  17  -1   3 670.840 494.963  13
  17   1   4 9590.80 1836.21   6
  17  -1   4 10415.5 1955.33   6
  17  -1   4 13860.2 1975.21   9
  17   1   4 12563.5 1838.67   9
  17   1   4 11090.1 1743.96  13
  17  -1   4 10021.6 1676.93  13
  17   1   5 67.3480 438.324   6
  17  -1   5-102.210 466.854   6
  17   1   5-694.041 631.689   9
  17  -1   5-1415.68 673.348   9
  17   1   5-91.5387 411.377  13
  17  -1   5 318.129 451.503  13
  17  -1   6 2951.98 989.615   6
  17   1   6 3494.15 990.604   9
  17  -1   6 2947.80 898.638   9
  17   1   6 3962.15 1002.63  13
  17  -1   6 4475.44 1066.51  13
  17   1   7 940.836 554.439   9
  17  -1   7 864.208 562.746   9
  17   1   7 903.485 506.672  13
  17  -1   7 1047.35 507.627  13
  17   1   8-269.827 325.010   9
  17  -1   8-16.2883 382.276   9
  17   2  -8 22.9072 180.819  23
  17  -2  -8-44.1411 156.801  23
 -17   2   7 1036.35 366.856  26
  17   2  -7 1031.01 327.258  23
  17  -2  -7 1005.15 341.420  23
 -17   2   6 333.412 277.409  26
  17   2  -6 980.079 344.168  23
  17  -2  -6 705.465 282.140  23
  17   2  -5-195.537 274.368  23
  17  -2  -5 3.25404 265.839  23
  17   2  -4 3998.76 637.285  23
  17  -2  -4 4550.65 753.377  23
  17  -2  -3 1042.33 552.445   6
  17   2  -3 663.819 342.231  23
  17  -2  -3 290.132 296.591  23
  17  -2  -2-519.831 595.125   6
  17   2  -2 347.480 272.888  23
  17  -2  -2 207.673 258.993  23
  17  -2  -1 17396.9 2578.44   6
  17   2  -1 21406.7 1490.63  23
  17  -2  -1 20760.5 1654.95  23
  17   2   0-530.388 795.559   6
  17  -2   0-183.278 636.383   6
  17   2   0-1089.09 399.933  23
  17  -2   0-141.607 356.034  23
  17   2   1 632.275 678.012   6
  17  -2   1 825.296 734.515   6
  17   2   1 51.1582 316.689  23
  17  -2   1 358.370 345.166  23
  17   2   1 381.645 386.377  13
  17   2   2 1669.92 938.639   6
  17  -2   2 1541.08 966.333   6
  17  -2   2 1553.70 511.346  23
  17   2   2 991.278 483.325  13
  17   2   3-158.274 454.510   6
  17  -2   3-182.345 461.440   6
  17  -2   3 177.944 390.862   9
  17   2   3 600.700 468.162  13
  17  -2   3-24.9776 321.049  13
  17   2   4 32.9528 493.574   6
  17  -2   4-171.531 514.567   6
  17   2   4 245.077 443.350   9
  17  -2   4-618.729 514.544   9
  17   2   4 221.779 396.690  13
  17  -2   4 183.170 378.083  13
  17  -2   5 210.763 486.722   6
  17   2   5-195.495 335.840   9
  17  -2   5 204.981 316.919   9
  17   2   5-90.7534 303.834  13
  17  -2   5 540.212 443.776  13
  17  -2   6 774.044 563.371   6
  17   2   6-76.2928 356.695   9
  17  -2   6 247.441 474.668   9
  17   2   6-240.028 392.347  13
  17  -2   6 547.562 463.629  13
  17   2   7-614.938 452.439   9
  17  -2   7-1010.90 544.751   9
  17   2   7 111.352 361.234  13
  17   2   8 23.6319 316.532   9
  17  -2   8 128.132 286.318   9
 -17   3   8 102.255 184.459  26
  17  -3  -8-104.722 217.065  23
 -17   3   7 1695.10 416.298  26
  17   3  -7 886.190 287.800  23
  17  -3  -7 1514.61 379.039  23
 -17   3   6 413.019 290.028  26
  17   3  -6 80.9694 177.943  23
  17  -3  -6-78.7608 203.750  23
  17   3  -5 217.665 257.805  23
  17  -3  -5-64.5831 225.600  23
  17   3  -4-10.7294 208.113  23
  17  -3  -4-157.795 244.759  23
  17  -3  -3 115.317 493.842   6
  17   3  -3-465.357 269.612  23
  17  -3  -3 440.434 344.110  23
  17  -3  -2-56.7098 436.150   6
  17   3  -2-77.0749 243.740  23
  17  -3  -2-127.109 290.824  23
  17   3  -1 308.872 266.050  23
  17  -3  -1 294.919 406.950  23
  17  -3   0 484.544 538.328   6
  17   3   0-314.546 256.679  23
  17  -3   0-108.493 346.203  23
  17   3   0-143.310 392.228  13
  17  -3   1 357.075 426.472   6
  17   3   1 1184.06 375.543  23
  17  -3   1 1274.07 538.447  23
  17   3   1 653.846 550.108  13
  17  -3   2 442.447 614.928   6
  17  -3   2 262.463 342.177  23
  17   3   2 318.240 404.154  13
  17  -3   3 1960.06 1122.10   6
  17  -3   3 640.263 519.586   9
  17   3   3 1545.93 703.855  13
  17  -3   3 1555.14 757.205  13
  17  -3   4-267.832 566.302   6
  17  -3   4 1006.46 597.018   9
  17   3   4 795.541 494.977  13
  17  -3   4-66.0335 427.039  13
  17  -3   5-982.407 653.010   6
  17   3   5 210.688 469.619   9
  17  -3   5-208.375 386.559   9
  17   3   5-277.422 381.957  13
  17  -3   5-96.9244 394.579  13
  17  -3   6 304.327 416.550   6
  17   3   6-646.015 502.582   9
  17  -3   6 314.733 379.102   9
  17   3   6 190.146 350.832  13
  17  -3   6 647.022 447.474  13
  17   3   7 3625.21 898.780   9
  17  -3   7 4415.28 1025.19   9
  17   3   7 4900.91 1007.33  13
  17   3   8 363.899 461.973   9
  17  -3   8-332.477 386.251   9
  17  -4  -8 330.254 204.473  23
 -17   4   7 976.214 332.022  26
  17  -4  -7 477.206 256.000  23
 -17   4   6 1731.24 445.739  26
  17  -4  -6 2168.75 493.936  23
  17  -4  -5 780.065 353.092  23
  17  -4  -4 850.911 363.880  23
  17  -4  -4 706.366 595.283   5
  17  -4  -3 6305.07 1397.64   6
  17  -4  -3 7199.04 920.158  23
  17  -4  -3 6037.90 1350.34   5
  17  -4  -2 1833.70 845.679   6
  17  -4  -2 2106.22 557.276  23
  17  -4  -2 1641.66 788.190   5
  17   4  -2 953.891 557.546  13
  17  -4  -1 1563.03 960.356   6
  17  -4  -1 2592.08 628.909  23
  17  -4  -1 1988.45 846.226   5
  17   4  -1 2616.40 925.050  13
  17  -4   0 276.677 533.684   6
  17  -4   0 428.416 318.055  23
  17   4   0 427.519 363.918  13
  17  -4   1 3874.04 1317.46   6
  17  -4   1 5833.95 959.960  23
  17   4   1 4530.14 1170.69  13
  17  -4   2 1061.86 733.437   6
  17   4   2-192.181 329.892  13
  17  -4   3 328.739 443.134   9
  17   4   3-351.780 422.742  13
  17  -4   4 3612.39 1247.44   6
  17  -4   4 4349.22 1132.06   9
  17   4   4 5292.49 1163.31  13
  17  -4   4 3958.03 1049.60  13
  17  -4   5 566.788 656.020   6
  17   4   5-290.429 469.480   9
  17  -4   5 166.992 406.817   9
  17   4   5 665.551 521.859  13
  17  -4   5 1197.61 594.871  13
  17  -4   6 283.134 507.267   6
  17   4   6 529.620 456.422   9
  17  -4   6 392.952 510.058   9
  17   4   6 686.383 533.488  13
  17  -4   7 287.007 373.934   6
  17   4   7 115.630 307.669   9
  17  -4   7 78.7457 314.104   9
  17   4   7 183.644 313.183  13
  17   4   8 447.821 375.244   9
  17  -4   8-81.5682 321.451   9
  17  -5  -8 586.704 242.212  23
 -17   5   7 267.688 198.721  26
  17  -5  -7 271.823 233.516  23
  17  -5  -6 6502.42 744.854  23
  17  -5  -5 867.710 363.330  23
  17  -5  -5 1818.71 803.241   5
  17  -5  -4 501.535 356.169  23
  17  -5  -4 773.758 589.691   5
  17  -5  -3 222.571 245.403  23
  17  -5  -3 805.148 538.994   5
  17  -5  -2 289.619 283.638  23
  17  -5  -2-588.954 495.700   5
  17   5  -2-268.842 357.546  13
  17  -5  -1-19.9103 516.348   6
  17  -5  -1-203.089 342.226  23
  17  -5  -1-117.586 380.438   5
  17   5  -1-160.735 352.099  13
  17  -5   0 40.4004 724.037   6
  17  -5   0-318.458 446.478  23
  17  -5   0-1003.92 601.494   5
  17   5   0 291.263 391.994  13
  17  -5   1-591.122 662.294   6
  17  -5   1-176.614 391.118  23
  17   5   1-1194.79 628.397  13
  17  -5   2 1540.59 887.102   6
  17  -5   2 1709.76 785.852   9
  17   5   2 2473.86 807.883  13
  17  -5   3 407.410 651.072   6
  17  -5   3 653.428 571.518   9
  17   5   3-182.867 343.461  13
  17  -5   4 6400.48 1484.16   6
  17  -5   4 8413.20 1531.76   9
  17   5   4 8775.19 1468.72  13
  17  -5   4 6733.77 1341.95  13
  17  -5   5 494.443 514.681   6
  17   5   5 1192.12 592.677   9
  17  -5   5 439.023 429.886   9
  17   5   5 440.418 446.113  13
  17  -5   5-90.5879 308.379  13
  17  -5   6 6459.75 1322.89   6
  17   5   6 7416.59 1280.76   9
  17  -5   6 8349.76 1406.39   9
  17   5   6 8630.12 1356.88  13
  17  -5   7 121.182 312.581   6
  17   5   7 574.335 562.068   9
  17  -5   7-226.038 319.520   9
  17  -5   8-107.007 334.774   9
  17  -6  -7 256.341 198.792  23
  17  -6  -6 5831.48 692.930  23
  17  -6  -5 484.341 299.558  23
  17  -6  -5 1023.28 577.040   5
  17  -6  -4 11061.9 1046.37  23
  17  -6  -4 10027.2 1736.81   5
  17  -6  -3-434.913 342.517  23
  17  -6  -3 587.649 598.149   5
  17  -6  -2 1546.26 789.053   6
  17  -6  -2 613.228 346.369  23
  17  -6  -1 1212.63 809.693   6
  17  -6  -1 1853.07 547.346  23
  17  -6  -1 1435.53 720.550   5
  17   6  -1-347.202 382.542  13
  17  -6   0 294.153 681.573   6
  17  -6   0-135.950 354.701  23
  17  -6   0-1079.44 615.059   5
  17   6   0 78.2108 296.638  13
  17  -6   1 1830.47 893.184   6
  17  -6   1 2591.69 609.271  23
  17   6   1 2519.30 868.639  13
  17  -6   2 2260.39 1091.01   6
  17  -6   2 4147.76 1180.95   9
  17   6   2 2769.17 840.968  13
  17  -6   3 126.143 453.316   6
  17  -6   3 743.659 614.714   9
  17   6   3 218.057 322.009  13
  17  -6   4 4863.60 1397.44   6
  17  -6   4 5493.41 1248.77   9
  17   6   4 5013.69 1095.12  13
  17  -6   4 4786.83 1104.29  13
  17  -6   5 370.464 591.735   6
  17  -6   5 393.689 513.737   9
  17   6   5-169.734 236.524  13
  17  -6   6 694.436 580.619   6
  17   6   6 1473.24 590.229   9
  17  -6   6 351.896 372.733   9
  17   6   6 1455.41 555.805  13
  17   6   7 175.330 315.625   9
  17  -6   7 591.429 373.740   9
  17  -7  -7 228.045 186.860  23
  17  -7  -6 1181.65 348.915  23
  17  -7  -6 189.403 348.506   5
  17  -7  -5 665.773 274.958  23
  17  -7  -5 361.188 438.794   5
  17  -7  -4 1184.16 387.149  23
  17  -7  -4 1457.27 685.169   5
  17  -7  -3 913.557 394.655  23
  17  -7  -3 356.737 513.565   5
  17  -7  -2-841.981 604.924   6
  17  -7  -2 168.656 307.831  23
  17  -7  -2-580.350 523.122   5
  17  -7  -1-676.485 649.656   6
  17  -7  -1-72.4646 274.851  23
  17  -7  -1-436.711 467.176   5
  17  -7   0-350.572 473.975   6
  17  -7   0-77.9229 313.714  23
  17  -7   0-659.706 463.902   5
  17   7   0 398.360 294.294  13
  17  -7   1 1476.93 834.543   6
  17  -7   1 1117.61 444.702  23
  17   7   1 1912.01 766.148  13
  17  -7   2 802.357 815.572   6
  17  -7   2 229.477 360.667   9
  17   7   2 521.960 431.825  13
  17  -7   3 398.977 608.161   6
  17  -7   3 513.295 599.234   9
  17   7   3 933.215 525.211  13
  17  -7   4 3806.31 1167.85   6
  17  -7   4 3430.77 1008.52   9
  17   7   4 4249.10 996.645  13
  17  -7   5 1216.81 746.126   6
  17  -7   5-838.245 545.470   9
  17   7   5 727.059 458.172  13
  17  -7   6 842.470 588.343   6
  17   7   6 1091.43 558.985   9
  17  -7   6 679.816 391.431   9
  17  -7   7 1178.69 539.406   9
  17  -8  -6 11.2123 191.278  23
  17  -8  -6 163.443 376.960   5
  17  -8  -5 224.083 260.806  23
  17  -8  -5 11.0158 368.577   5
  17  -8  -4 231.985 254.237  23
  17  -8  -4 702.731 538.628   5
 -17  -8   3 3888.07 704.853  25
  17  -8  -3 2915.22 564.909  23
  17  -8  -3 3282.53 1011.62   5
  17  -8  -2 187.834 457.154   6
  17  -8  -2 11.6730 295.063  23
  17  -8  -2-446.624 480.662   5
  17  -8  -1 8668.85 1743.92   6
  17  -8  -1 11183.1 1085.38  23
  17  -8  -1 10378.4 1601.84   5
  17  -8   0 1236.65 728.377   6
  17  -8   0-180.334 309.547  23
  17  -8   0 507.374 450.710   5
  17   8   0 849.618 485.893  13
  17  -8   1 7850.39 1725.85   6
  17   8   1 6111.92 1200.96  13
  17  -8   2 335.525 524.602   6
  17  -8   2-260.522 386.264   9
  17   8   2 525.673 417.308  13
  17  -8   3 76.0408 533.620   6
  17  -8   3 12.6849 313.775   9
  17   8   3 347.627 414.237  13
  17  -8   4 91.8077 457.080   6
  17  -8   4 573.312 467.727   9
  17   8   4 529.279 422.135  13
  17  -8   5 537.097 517.121   6
  17  -8   5-85.0323 309.788   9
  17   8   5 7.14983 292.637  13
  17  -8   6 423.807 429.216   6
  17  -8   6-37.3837 262.056   9
  17  -8   7-6.81292 282.298   9
 -17  -9   6 659.044 318.234  25
  17  -9  -6 802.394 241.231  23
 -17  -9   5 443.736 309.478  25
  17  -9  -5 464.675 221.459  23
  17  -9  -5 56.7231 365.423   5
 -17  -9   4 1894.87 506.277  25
  17  -9  -4 2457.61 448.026  23
  17  -9  -4 1359.70 665.522   5
 -17  -9   3-164.868 218.783  25
  17  -9  -3 345.692 269.788  23
  17  -9  -3 550.057 483.649   5
  17  -9  -2 1349.73 678.908   6
  17  -9  -2 514.542 291.691  23
  17  -9  -2 744.382 529.514   5
  17  -9  -1 360.622 578.231   6
  17  -9  -1 37.3815 237.851  23
  17  -9  -1-18.7245 369.289   5
  17  -9   0 846.401 832.248   6
  17  -9   0-111.833 287.608  23
  17  -9   1 1445.38 862.363   6
  17  -9   1 1159.81 432.050   9
  17   9   1 831.736 525.585  13
  17  -9   2 779.191 634.453   6
  17  -9   2 945.938 545.130   9
  17   9   2 851.016 527.920  13
  17  -9   3 75.9909 302.900   9
  17   9   3 13.5125 239.442  13
  17  -9   4 91.7293 376.412   6
  17  -9   4 115.208 292.942   9
  17   9   4 402.788 359.987  13
  17  -9   5 526.796 431.561   6
  17  -9   5 1007.76 510.735   9
  17  -9   6 1745.48 624.355   6
  17  -9   6 1939.56 614.772   9
  17 -10  -6 367.417 343.790   5
 -17 -10   5-81.3686 191.931  25
  17 -10  -5 176.026 165.174  23
  17 -10  -5 266.587 444.499   5
 -17 -10   4 7150.81 829.523  25
  17 -10  -4 6894.06 676.983  23
  17 -10  -4 8442.22 1404.68   5
 -17 -10   3-129.681 236.309  25
  17 -10  -3-147.320 188.582  23
  17 -10  -2 12.0760 246.028  23
  17 -10  -2-10.4601 340.103   5
  17 -10  -1 197.140 413.580   6
  17 -10  -1 612.516 309.962  23
  17 -10  -1 564.629 610.819   5
  17 -10   0-68.0506 534.994   6
  17 -10   1-187.695 636.109   6
  17 -10   1-244.951 359.476   9
  17 -10   2 1018.30 734.302   6
  17 -10   2 1639.72 672.732   9
  17  10   2 2834.71 713.650  13
  17 -10   3-358.972 469.411   6
  17 -10   3-56.6540 305.636   9
  17 -10   4 129.385 367.673   6
  17 -10   4 210.504 324.825   9
  17 -10   5 301.472 559.008   6
  17 -10   5 1421.75 571.476   9
  17 -11  -5 533.477 461.400   5
 -17 -11   4 1061.52 311.788  25
  17 -11  -4 1524.14 632.718   5
 -17 -11   3 251.905 263.611  25
  17 -11  -3-38.2361 188.516  23
  17 -11  -3-73.0772 394.928   5
  17 -11  -2 377.772 201.372  23
  17 -11  -2 1220.00 559.833   5
  17 -11  -1-33.7569 502.338   6
  17 -11  -1 770.270 508.393   5
  17 -11   0-113.875 356.106   6
  17 -11   1 34.9308 502.723   6
  17 -11   1 365.179 388.204   9
  17 -11   2 1083.56 695.732   6
  17 -11   2 2206.15 726.946   9
  17 -11   3 517.597 509.432   6
  17 -11   3 586.337 400.546   9
  17 -11   4 1620.81 684.429   6
  17 -11   4 3354.78 810.103   9
  17 -11   5-6.60676 346.753   6
  17 -11   5 140.117 314.259   9
  17 -12  -4 2505.98 707.840   5
  17 -12  -3 2443.40 732.664   5
  17 -12  -2 197.362 261.889   5
  17 -12  -1 3368.08 790.764   5
  17 -12   0 313.003 425.472   6
  17 -12   1 1588.76 668.775   6
  17 -12   1 310.654 344.220   9
  17 -12   2-693.855 500.237   6
  17 -12   2 693.671 358.698   9
  17 -12   3 292.240 436.579   6
  17 -12   3 367.060 354.677   9
  17 -12   4 1264.35 609.616   6
  17 -13   1 634.554 466.225   6
  17 -13   2-1384.24 593.960   6
  18   0  -6 722.851 290.209  23
  18   0  -5 216.454 203.892  23
  18   0  -4 295.623 233.085  23
  18   0  -3 410.535 297.472  23
  18   0  -2 278.126 280.444  23
  18   0  -1-245.925 308.274  23
  18   0   0 320.753 474.306   6
  18   0   0 1179.91 432.414  23
  18   0   1-364.094 548.557   6
  18   0   1-505.801 559.445  13
  18   0   2 3585.73 1130.87   6
  18   0   2 2887.53 875.240  13
  18   0   3-360.561 629.286   6
  18   0   3-448.135 486.325  13
  18   0   4 356.240 428.091   6
  18   0   4 394.532 356.668  13
  18   0   5 449.234 424.574   9
  18   0   5 395.146 377.727  13
  18   0   6-48.3904 281.985   9
  18   0   6 237.170 301.060  13
  18   1  -6 559.435 218.164  23
  18  -1  -6 1121.01 298.815  23
  18   1  -5 68.9532 180.871  23
  18  -1  -5 333.860 252.968  23
  18   1  -4 1645.57 404.871  23
  18  -1  -4 1435.99 439.101  23
  18   1  -3 3550.77 586.985  23
  18  -1  -3 4008.57 651.204  23
  18   1  -2-26.1008 224.775  23
  18  -1  -2 280.889 254.112  23
  18  -1  -1 875.165 548.043   6
  18   1  -1 331.568 289.474  23
  18  -1  -1 241.923 232.139  23
  18  -1   0 3917.78 1142.57   6
  18   1   0 4697.72 674.198  23
  18  -1   0 5522.47 772.461  23
  18   1   0 4223.41 1059.37  13
  18  -1   1 243.585 669.212   6
  18   1   1 389.892 414.858  13
  18  -1   2 1894.44 808.443   6
  18   1   2 1355.89 645.945  13
  18  -1   2 1047.34 543.642  13
  18  -1   3 1175.21 623.372   6
  18   1   3 857.092 548.946  13
  18  -1   3 1197.23 608.705  13
  18  -1   4 188.923 504.693   6
  18  -1   4 408.936 388.602   9
  18   1   4 77.4435 356.013  13
  18  -1   4-596.021 434.815  13
  18  -1   5 1257.80 692.139   6
  18   1   5 736.590 483.089   9
  18  -1   5 477.829 416.305   9
  18   1   5 1271.05 562.815  13
  18  -1   5 1104.71 582.398  13
  18   1   6-274.716 405.297   9
  18  -1   6-183.487 312.261   9
  18   1   6 507.222 366.081  13
  18  -1   6 530.959 369.481  13
  18   2  -6 70.7361 146.733  23
  18  -2  -6 46.0786 167.610  23
  18   2  -5-30.3247 164.655  23
  18  -2  -5 74.5336 182.491  23
  18   2  -4 396.822 261.550  23
  18  -2  -4 45.8548 239.282  23
  18   2  -3 509.657 270.885  23
  18  -2  -3 322.065 259.581  23
  18   2  -2 64.6341 203.882  23
  18  -2  -2 97.9958 261.130  23
  18  -2  -1-144.848 504.387   6
  18   2  -1 127.135 178.952  23
  18  -2  -1 723.485 379.745  23
  18   2  -1-66.5508 347.597  13
  18  -2   0 1243.76 886.044   6
  18   2   0 936.770 340.774  23
  18  -2   0 485.746 305.892  23
  18   2   0 598.042 532.301  13
  18  -2   1-58.4581 462.437   6
  18  -2   1-732.367 355.292  23
  18   2   1-54.9677 276.642  13
  18  -2   2 410.141 544.679   6
  18   2   2 383.077 302.928  13
  18  -2   2-120.453 297.057  13
  18  -2   3 5253.35 1333.59   6
  18   2   3 3682.26 966.715  13
  18  -2   3 3048.21 886.070  13
  18  -2   4-2.28022 405.715   6
  18  -2   4-1109.65 555.603   9
  18   2   4-103.162 267.200  13
  18  -2   4-219.983 373.069  13
  18  -2   5 9518.98 1537.95   6
  18   2   5 10167.8 1381.43   9
  18  -2   5 10214.7 1436.29   9
  18   2   5 9234.09 1348.44  13
  18  -2   5 9376.48 1374.50  13
  18   2   6-517.425 396.625   9
  18  -2   6-1.51763 350.295   9
  18   2   6 330.829 336.290  13
  18  -2   6 368.801 317.411  13
  18  -3  -6-177.664 186.017  23
  18   3  -5 1605.39 373.591  23
  18  -3  -5 944.838 304.996  23
  18   3  -4 528.849 267.176  23
  18  -3  -4 570.585 281.997  23
  18  -3  -3 5397.95 719.616  23
  18   3  -3 3731.11 543.347  23
  18   3  -3 3512.22 842.062  13
  18  -3  -2-243.202 533.177   6
  18   3  -2 82.8131 177.580  23
  18  -3  -2-54.0929 280.389  23
  18   3  -2-193.886 405.013  13
  18  -3  -1 6418.83 1454.60   6
  18   3  -1 5687.80 662.675  23
  18  -3  -1 6278.01 833.148  23
  18   3  -1 5730.94 1168.23  13
  18  -3   0 769.110 703.516   6
  18  -3   0-41.9050 260.296  23
  18   3   0-91.9648 307.447  13
  18  -3   1-781.121 625.342   6
  18   3   1-524.130 449.704  13
  18  -3   2-49.9322 544.110   6
  18   3   2-125.467 344.335  13
  18  -3   2 51.1508 282.597  13
  18  -3   3 1790.75 779.563   6
  18   3   3 2148.40 715.734  13
  18  -3   3 1834.96 701.865  13
  18  -3   4 100.814 370.956   6
  18  -3   4 617.896 448.605   9
  18   3   4 475.571 468.627  13
  18  -3   4 125.178 290.956  13
  18  -3   5 2463.94 823.389   6
  18  -3   5 1333.64 540.189   9
  18   3   5 2523.66 732.805  13
  18  -3   5 1218.07 574.984  13
  18  -3   6-59.0708 283.616   6
  18  -3   6 57.6501 282.987   9
  18   3   6 297.089 253.303  13
  18  -4  -6-25.9542 166.853  23
  18  -4  -5 224.799 226.454  23
  18  -4  -4 283.519 256.529  23
  18  -4  -3 190.631 222.425  23
  18  -4  -2 35.1829 352.685   6
  18  -4  -2-144.341 257.125  23
  18   4  -2 151.203 337.851  13
  18  -4  -1 546.397 701.576   6
  18  -4  -1-357.759 302.305  23
  18   4  -1-293.256 365.947  13
  18  -4   0 59.1534 272.583  23
  18   4   0-230.339 385.519  13
  18  -4   1-151.222 514.571   6
  18   4   1-118.515 247.304  13
  18  -4   2 1106.43 771.757   6
  18   4   2 894.055 469.699  13
  18  -4   2 1023.78 590.707  13
  18  -4   3 3060.22 996.796   6
  18   4   3 2925.10 871.531  13
  18  -4   3 3364.42 876.462  13
  18  -4   4 1028.74 606.974   6
  18  -4   4 644.323 454.602   9
  18   4   4 821.405 500.351  13
  18  -4   4 206.930 313.089  13
  18  -4   5 4824.58 1108.60   6
  18  -4   5 4773.54 1015.19   9
  18   4   5 5552.77 1023.06  13
  18  -4   5 4643.51 913.119  13
  18  -4   6 881.761 428.495   9
  18   4   6 933.839 373.758  13
  18  -5  -6 735.356 252.500  23
  18  -5  -5 698.980 282.671  23
  18  -5  -4 2020.51 434.981  23
  18  -5  -3 726.131 299.401  23
  18  -5  -2 1901.73 760.617   6
  18  -5  -2 1550.67 446.089  23
  18   5  -2 357.419 277.800  13
  18  -5  -1 1109.94 753.592   6
  18  -5  -1 1365.65 414.303  23
  18   5  -1 1293.36 548.089  13
  18  -5   0 5022.20 1317.65   6
  18  -5   0 6759.60 845.447  23
  18   5   0 6691.63 1210.21  13
  18  -5   1 380.104 591.715   6
  18   5   1-115.939 317.818  13
  18  -5   2 2272.80 970.607   6
  18   5   2 3578.73 911.904  13
  18  -5   3-654.840 548.447   6
  18  -5   3 978.184 501.811   9
  18   5   3 420.511 367.957  13
  18  -5   3 245.025 339.372  13
  18  -5   4 309.052 387.786   6
  18   5   4 327.783 349.643  13
  18  -5   4 85.0204 285.304  13
  18  -5   5 484.058 529.570   6
  18  -5   5-540.000 391.955   9
  18   5   5-246.233 248.078  13
  18  -5   6-595.717 400.623   9
  18  -6  -6 231.507 165.043  23
  18  -6  -5 65.0368 168.581  23
  18  -6  -4 492.891 260.662  23
  18  -6  -3 431.451 250.748  23
  18  -6  -2-716.176 523.675   6
  18  -6  -2-282.095 270.427  23
  18  -6  -1 14.0123 358.592   6
  18  -6  -1 153.095 266.058  23
  18   6  -1 86.9229 284.371  13
  18  -6   0 412.387 472.704   6
  18  -6   0 1800.98 506.160  23
  18   6   0 1455.75 596.641  13
  18  -6   1 679.976 593.501   6
  18   6   1 50.7628 248.865  13
  18  -6   2 453.642 491.287   6
  18   6   2 688.219 432.719  13
  18  -6   3-269.473 492.406   6
  18  -6   3 722.293 467.786   9
  18   6   3 292.786 255.568  13
  18  -6   3-547.211 402.414  13
  18  -6   4-201.949 355.357   6
  18  -6   4 564.892 433.166   9
  18   6   4 814.825 428.805  13
  18  -6   4 33.8381 359.039  13
  18  -6   5 1518.34 661.262   6
  18  -6   5 844.758 399.907   9
  18   6   5 1281.99 481.797  13
  18  -7  -5 611.117 237.194  23
  18  -7  -4 272.634 203.276  23
  18  -7  -3 4102.37 575.840  23
  18  -7  -2 85.9092 359.416   6
  18  -7  -2-123.046 239.307  23
  18  -7  -1 2184.12 831.791   6
  18  -7  -1 891.110 334.474  23
  18  -7   0 2482.37 961.039   6
  18   7   0 4124.65 910.287  13
  18  -7   1 2081.60 818.710   6
  18   7   1 2201.77 666.502  13
  18  -7   2 198.037 482.036   6
  18   7   2 693.010 483.160  13
  18  -7   2 368.485 362.728  13
  18  -7   3 7.73564 321.039   6
  18  -7   3-799.688 442.748   9
  18   7   3-858.513 438.937  13
  18  -7   3-567.276 400.724  13
  18  -7   4 180.884 427.896   6
  18   7   4-54.8336 254.662  13
  18  -7   5 679.378 523.684   6
  18  -8  -4-91.1491 166.356  23
  18  -8  -3-7.28467 160.201  23
  18  -8  -2 328.140 224.159  23
  18  -8  -1-1166.83 619.068   6
  18  -8  -1 285.642 232.014  23
  18  -8   0 876.511 539.946   6
  18  -8   1-460.535 446.304   6
  18   8   1-221.862 298.517  13
  18  -8   2 385.488 327.280   6
  18   8   2 383.052 408.403  13
  18  -8   2 193.438 222.011  13
  18  -8   3 2007.50 911.263   6
  18  -8   3 1918.33 641.500   9
  18   8   3 1220.54 490.909  13
  18  -8   4 388.610 433.179   6
  18  -9  -3 3198.30 444.676  23
  18  -9  -2 368.523 203.755  23
  18  -9  -1 636.220 334.441   6
  18  -9   0 294.223 398.585   6
  18  -9   1-375.631 425.570   6
  18  -9   2 2348.67 853.588   6
  18   9   2 2895.16 670.502  13
  18  -9   3 162.429 296.384   6
  18  -9   4 585.805 513.864   6
  18 -10   0 212.756 527.045   6
  18 -10   1 670.478 470.016   6
  18 -10   2 2064.49 794.540   6
  18 -10   3 392.939 435.985   6
  19   0  -4 7973.17 692.204  23
  19   0  -3 129.892 151.275  23
  19   0  -3-868.769 431.905  13
  19   0  -2 4134.91 554.617  23
  19   0  -2 3776.62 865.911  13
  19   0  -1 42.7962 172.491  23
  19   0  -1-710.355 429.759  13
  19   0   0 293.156 387.444  13
  19   0   1 61.7057 312.539  13
  19   0   2-4.63657 284.413  13
  19   0   3-226.930 278.576  13
  19   0   4 315.154 337.134  13
  19  -1  -4 550.631 262.480  23
  19   1  -3-172.673 209.131  23
  19  -1  -3-81.1131 163.768  23
  19   1  -3 23.9520 190.373  13
  19   1  -2 317.039 211.656  23
  19  -1  -2 720.986 281.257  23
  19   1  -2 100.182 256.805  13
  19  -1  -1-41.3849 192.696  23
  19   1  -1-321.467 320.099  13
  19  -1  -1-261.834 309.590  13
  19   1   0 132.462 328.474  13
  19  -1   0-645.368 407.441  13
  19   1   1-752.543 428.663  13
  19  -1   1-189.034 362.330  13
  19   1   2 91.5078 239.907  13
  19  -1   2-247.102 312.383  13
  19   1   3 706.102 396.732  13
  19  -1   3 1004.79 470.853  13
  19   1   4 1781.01 564.134  13
  19  -1   4 1980.83 589.473  13
  19  -2  -4 3927.81 507.803  23
  19  -2  -3-106.856 209.058  23
  19   2  -2-197.304 159.429  23
  19  -2  -2-163.419 196.050  23
  19   2  -2 202.126 311.686  13
  19  -2  -1 1681.58 410.454  23
  19   2  -1 1879.41 602.644  13
  19   2   0 44.1386 286.413  13
  19  -2   0-186.749 371.195  13
  19   2   1-203.194 336.956  13
  19  -2   1-495.467 377.841  13
  19   2   2-295.787 307.468  13
  19  -2   2-328.837 324.224  13
  19   2   3 1899.67 593.001  13
  19  -2   3 1643.70 611.644  13
  19   2   4 119.390 259.235  13
  19  -2   4 285.319 254.593  13
  19  -3  -4-258.445 163.374  23
  19  -3  -3-197.798 199.207  23
  19  -3  -2 22.6783 188.364  23
  19   3  -2-252.041 282.439  13
  19  -3  -1-42.5742 188.271  23
  19   3  -1 453.005 445.960  13
  19   3   0 182.268 346.780  13
  19  -3   0 269.242 288.677  13
  19  -3   1 401.618 535.137   6
  19   3   1 229.725 233.997  13
  19  -3   1 311.789 341.818  13
  19  -3   2-708.575 519.294   6
  19   3   2 533.560 357.303  13
  19  -3   2-705.352 406.295  13
  19  -3   3 603.396 481.062   6
  19   3   3 858.928 436.294  13
  19  -3   3 1375.23 496.042  13
  19   3   4-41.4920 201.750  13
  19  -4  -4 1250.41 300.309  23
  19  -4  -3 16.1257 165.719  23
  19  -4  -2 2310.09 429.741  23
  19  -4  -1-363.052 226.816  23
  19   4  -1-256.624 282.856  13
  19  -4   0-442.835 517.198   6
  19   4   0 408.647 350.547  13
  19  -4   1 302.844 456.440   6
  19   4   1 35.8432 267.573  13
  19  -4   1-268.789 308.563  13
  19  -4   2 668.165 536.621   6
  19   4   2 591.204 354.096  13
  19  -4   2-647.844 384.563  13
  19  -4   3 221.730 389.712   6
  19   4   3 624.680 416.845  13
  19  -4   3 1254.38 456.548  13
  19   4   4 8.83106 264.565  13
  19  -5  -3 6.86153 150.223  23
  19  -5  -2 52.3087 192.983  23
  19  -5   0 670.901 541.688   6
  19   5   0 134.214 263.635  13
  19   5   1-8.50099 207.460  13
  19  -5   1-258.799 305.382  13
  19  -5   2-23.2243 407.779   6
  19   5   2 264.314 215.789  13
  19  -5   2-12.0291 327.905  13
  19  -5   3 722.685 493.256   6
  19   5   3-489.788 319.373  13
  19  -6  -2 2696.89 419.083  23
  19  -6   0 323.341 393.748   6
  19  -6   1 262.414 427.039   6
  19  -6   1 83.6840 215.570  13
  19  -6   2-294.248 352.902   6
   0   0   0    0.00    0.00   0

TITL 475-9Zn2 in P2(1)/c
REM P2(1)/c (#14 in standard setting)
CELL 1.54184  16.236776  21.902566  14.257622  90.0000  90.1229  90.0000
ZERR   22.00   0.000551   0.000862   0.000572   0.0000   0.0036   0.0000
LATT  1
SYMM -x, y+1/2,-z+1/2
SFAC C H N O
UNIT 242.00 220.00 22.00 22.00
TREF
HKLF 4
END
;
_shelx_hkl_checksum              50020
loop_
_space_group_symop_operation_xyz
'x, y, z'
'-x, y+1/2, -z+1/2'
'-x, -y, -z'
'x, -y-1/2, z-1/2'
loop_
_atom_site_label
_atom_site_type_symbol
_atom_site_fract_x
_atom_site_fract_y
_atom_site_fract_z
_atom_site_U_iso_or_equiv
_atom_site_adp_type
_atom_site_occupancy
_atom_site_site_symmetry_order
_atom_site_calc_flag
_atom_site_refinement_flags_posn
_atom_site_refinement_flags_adp
_atom_site_refinement_flags_occupancy
_atom_site_disorder_assembly
_atom_site_disorder_group
Zn2 Zn 1.03990(4) 0.15508(3) -0.07972(4) 0.04116(18) Uani 1 1 d . . . . .
O11 O 0.95432(19) 0.17472(14) 0.0177(2) 0.0423(8) Uani 1 1 d . . . . .
O12 O 1.0568(2) 0.16897(16) 0.1181(3) 0.0542(10) Uani 1 1 d . . . . .
O13 O 0.9495(3) 0.05432(16) 0.1416(3) 0.0660(11) Uani 1 1 d . . . . .
O14 O 0.9308(3) 0.03822(16) 0.2941(3) 0.0731(12) Uani 1 1 d . . . . .
H14 H 0.9446 0.0033 0.2805 0.110 Uiso 1 1 d R U . . .
O15 O 0.92043(18) 0.28717(13) 0.1401(2) 0.0366(7) Uani 1 1 d . . . . .
O16 O 0.96731(19) 0.34690(14) 0.3080(2) 0.0450(8) Uani 1 1 d . . . . .
O17 O 1.0216(2) 0.43179(15) 0.2538(3) 0.0573(10) Uani 1 1 d . . . . .
O18 O 0.6465(3) 0.44468(18) -0.0077(3) 0.0863(15) Uani 1 1 d . . . . .
O19 O 0.6621(2) 0.34346(16) -0.0212(2) 0.0519(9) Uani 1 1 d . . . . .
H19 H 0.6151 0.3452 -0.0424 0.078 Uiso 1 1 d R U . . .
O20 O 1.0253(2) 0.06221(14) -0.0410(2) 0.0557(10) Uani 1 1 d . . . . .
H20A H 0.9825 0.0578 -0.0054 0.084 Uiso 1 1 d R U . . .
H20B H 1.0133 0.0407 -0.0900 0.084 Uiso 1 1 d R U . . .
N3 N 1.0799(3) 0.2460(2) -0.0968(3) 0.0567(12) Uani 1 1 d . . . . .
N4 N 1.1638(3) 0.1428(2) -0.1064(3) 0.0565(12) Uani 1 1 d . . . . .
C27 C 0.9832(3) 0.17462(19) 0.1008(3) 0.0378(11) Uani 1 1 d . . . . .
C28 C 0.9210(3) 0.1829(2) 0.1785(3) 0.0340(10) Uani 1 1 d . . . . .
C29 C 0.8953(3) 0.1348(2) 0.2354(3) 0.0418(12) Uani 1 1 d . . . . .
C30 C 0.8387(3) 0.1446(2) 0.3062(4) 0.0507(13) Uani 1 1 d . . . . .
H30 H 0.8218 0.1122 0.3437 0.061 Uiso 1 1 calc R U . . .
C31 C 0.8074(3) 0.2020(2) 0.3211(4) 0.0483(13) Uani 1 1 d . . . . .
H31 H 0.7686 0.2083 0.3680 0.058 Uiso 1 1 calc R U . . .
C32 C 0.8333(3) 0.2506(2) 0.2667(3) 0.0419(11) Uani 1 1 d . . . . .
H32 H 0.8128 0.2895 0.2780 0.050 Uiso 1 1 calc R U . . .
C33 C 0.8896(3) 0.24110(19) 0.1956(3) 0.0352(10) Uani 1 1 d . . . . .
C34 C 0.8740(3) 0.34150(19) 0.1336(3) 0.0353(10) Uani 1 1 d . . . . .
C35 C 0.9008(3) 0.3935(2) 0.1797(3) 0.0378(11) Uani 1 1 d . . . . .
C36 C 0.8582(3) 0.4478(2) 0.1651(4) 0.0525(14) Uani 1 1 d . . . . .
H36 H 0.8757 0.4834 0.1946 0.063 Uiso 1 1 calc R U . . .
C37 C 0.7905(3) 0.4489(2) 0.1072(4) 0.0517(14) Uani 1 1 d . . . . .
H37 H 0.7632 0.4857 0.0971 0.062 Uiso 1 1 calc R U . . .
C38 C 0.7619(3) 0.3963(2) 0.0634(3) 0.0446(12) Uani 1 1 d . . . . .
C39 C 0.8064(3) 0.3423(2) 0.0765(3) 0.0374(10) Uani 1 1 d . . . . .
H39 H 0.7899 0.3068 0.0462 0.045 Uiso 1 1 calc R U . . .
C40 C 0.9275(3) 0.0717(2) 0.2172(4) 0.0494(13) Uani 1 1 d . . . . .
C41 C 0.9687(3) 0.3913(2) 0.2520(3) 0.0386(11) Uani 1 1 d . . . . .
C42 C 0.6845(3) 0.3980(2) 0.0081(4) 0.0499(13) Uani 1 1 d . . . . .
C43 C 1.0339(4) 0.2950(3) -0.0905(5) 0.079(2) Uani 1 1 d . . . . .
H43 H 0.9790 0.2910 -0.0732 0.095 Uiso 1 1 calc R U . . .
C44 C 1.0654(6) 0.3532(3) -0.1089(6) 0.109(3) Uani 1 1 d . . . . .
H44 H 1.0320 0.3876 -0.1051 0.130 Uiso 1 1 calc R U . . .
C45 C 1.1460(7) 0.3580(4) -0.1325(6) 0.116(4) Uani 1 1 d . . . . .
H45 H 1.1684 0.3963 -0.1449 0.140 Uiso 1 1 calc R U . . .
C46 C 1.1948(5) 0.3074(4) -0.1383(5) 0.095(3) Uani 1 1 d . . . . .
H46 H 1.2503 0.3110 -0.1536 0.114 Uiso 1 1 calc R U . . .
C47 C 1.1604(4) 0.2506(3) -0.1210(4) 0.0635(17) Uani 1 1 d . . . . .
C48 C 1.2066(4) 0.1931(3) -0.1274(4) 0.0657(17) Uani 1 1 d . . . . .
C49 C 1.2898(4) 0.1909(4) -0.1528(5) 0.090(2) Uani 1 1 d . . . . .
H49 H 1.3192 0.2264 -0.1652 0.108 Uiso 1 1 calc R U . . .
C50 C 1.3264(5) 0.1352(5) -0.1586(6) 0.119(4) Uani 1 1 d . . . . .
H50 H 1.3809 0.1324 -0.1780 0.143 Uiso 1 1 calc R U . . .
C51 C 1.2837(5) 0.0829(4) -0.1363(6) 0.118(3) Uani 1 1 d . . . . .
H51 H 1.3087 0.0447 -0.1383 0.142 Uiso 1 1 calc R U . . .
C52 C 1.2013(4) 0.0896(3) -0.1105(5) 0.084(2) Uani 1 1 d . . . . .
H52 H 1.1715 0.0548 -0.0953 0.101 Uiso 1 1 calc R U . . .
Zn1 Zn 0.42439(4) 0.15764(3) 0.52802(5) 0.0504(2) Uani 1 1 d . . . . .
O1 O 0.8311(2) 0.43937(17) 0.4373(3) 0.0762(13) Uani 1 1 d . . . . .
O2 O 0.8020(2) 0.34177(16) 0.4660(2) 0.0534(9) Uani 1 1 d . . . . .
H2 H 0.8494 0.3414 0.4859 0.080 Uiso 1 1 d R U . . .
O3 O 0.4433(2) 0.43311(16) 0.1920(3) 0.0703(12) Uani 1 1 d . . . . .
O4 O 0.5036(2) 0.35338(15) 0.1302(2) 0.0475(9) Uani 1 1 d . . . . .
O5 O 0.54358(19) 0.29269(14) 0.2981(2) 0.0425(8) Uani 1 1 d . . . . .
O6 O 0.5901(3) 0.03003(17) 0.2157(3) 0.0928(16) Uani 1 1 d . . . . .
H1 H 0.5703 -0.0024 0.2335 0.139 Uiso 1 1 calc R U . . .
O7 O 0.4932(3) 0.06650(17) 0.3046(3) 0.0714(12) Uani 1 1 d . . . . .
O8 O 0.50987(19) 0.17224(15) 0.4294(2) 0.0447(8) Uani 1 1 d . . . . .
O9 O 0.4087(2) 0.19007(18) 0.3288(3) 0.0612(10) Uani 1 1 d . . . . .
O10 O 0.4066(3) 0.07047(18) 0.4702(3) 0.0927(16) Uani 1 1 d . . . . .
H10A H 0.4366 0.0422 0.4994 0.139 Uiso 1 1 d R U . . .
H10B H 0.4266 0.0691 0.4125 0.139 Uiso 1 1 d R U . . .
N1 N 0.4011(3) 0.2523(2) 0.5467(3) 0.0654(14) Uani 1 1 d . . . . .
N2 N 0.3038(3) 0.1585(3) 0.5758(4) 0.0735(16) Uani 1 1 d . . . . .
C1 C 0.4823(3) 0.1824(2) 0.3469(4) 0.0419(12) Uani 1 1 d . . . . .
C2 C 0.5465(3) 0.1873(2) 0.2708(3) 0.0378(11) Uani 1 1 d . . . . .
C3 C 0.5795(3) 0.1369(2) 0.2252(4) 0.0441(12) Uani 1 1 d . . . . .
C4 C 0.6382(3) 0.1443(2) 0.1562(4) 0.0523(14) Uani 1 1 d . . . . .
H4 H 0.6598 0.1102 0.1261 0.063 Uiso 1 1 calc R U . . .
C5 C 0.6649(3) 0.2022(2) 0.1318(4) 0.0490(13) Uani 1 1 d . . . . .
H5 H 0.7038 0.2071 0.0846 0.059 Uiso 1 1 calc R U . . .
C6 C 0.6335(3) 0.2526(2) 0.1779(3) 0.0431(12) Uani 1 1 d . . . . .
H6 H 0.6509 0.2917 0.1618 0.052 Uiso 1 1 calc R U . . .
C7 C 0.5762(3) 0.2444(2) 0.2481(3) 0.0368(11) Uani 1 1 d . . . . .
C8 C 0.5926(3) 0.3444(2) 0.3061(3) 0.0369(10) Uani 1 1 d . . . . .
C9 C 0.5684(3) 0.3974(2) 0.2594(3) 0.0413(12) Uani 1 1 d . . . . .
C10 C 0.6143(3) 0.4502(2) 0.2734(4) 0.0500(13) Uani 1 1 d . . . . .
H10 H 0.5982 0.4863 0.2445 0.060 Uiso 1 1 calc R U . . .
C11 C 0.6840(3) 0.4497(2) 0.3301(4) 0.0519(14) Uani 1 1 d . . . . .
H11 H 0.7148 0.4852 0.3378 0.062 Uiso 1 1 calc R U . . .
C12 C 0.7077(3) 0.3967(2) 0.3751(4) 0.0445(12) Uani 1 1 d . . . . .
C13 C 0.6608(3) 0.3445(2) 0.3638(3) 0.0400(11) Uani 1 1 d . . . . .
H13 H 0.6754 0.3090 0.3955 0.048 Uiso 1 1 calc R U . . .
C14 C 0.5497(3) 0.0746(2) 0.2521(4) 0.0535(14) Uani 1 1 d . . . . .
C15 C 0.5000(3) 0.3962(2) 0.1883(4) 0.0439(12) Uani 1 1 d . . . . .
C16 C 0.7858(3) 0.3958(2) 0.4298(4) 0.0493(13) Uani 1 1 d . . . . .
C17 C 0.2590(4) 0.1090(4) 0.5907(5) 0.098(3) Uani 1 1 d . . . . .
H17 H 0.2816 0.0705 0.5804 0.118 Uiso 1 1 calc R U . . .
C18 C 0.1771(5) 0.1145(6) 0.6222(7) 0.138(5) Uani 1 1 d . . . . .
H18 H 0.1465 0.0797 0.6354 0.165 Uiso 1 1 calc R U . . .
C19 C 0.1436(5) 0.1695(7) 0.6330(7) 0.153(6) Uani 1 1 d . . . . .
H19A H 0.0881 0.1726 0.6485 0.184 Uiso 1 1 calc R U . . .
C20 C 0.1889(5) 0.2212(5) 0.6217(5) 0.117(4) Uani 1 1 d . . . . .
H20 H 0.1669 0.2597 0.6326 0.141 Uiso 1 1 calc R U . . .
C21 C 0.2708(4) 0.2133(4) 0.5927(4) 0.077(2) Uani 1 1 d . . . . .
C22 C 0.3249(5) 0.2652(4) 0.5800(4) 0.080(2) Uani 1 1 d . . . . .
C23 C 0.3028(7) 0.3248(5) 0.5999(6) 0.119(4) Uani 1 1 d . . . . .
H23 H 0.2503 0.3334 0.6223 0.143 Uiso 1 1 calc R U . . .
C24 C 0.3573(8) 0.3703(5) 0.5869(7) 0.137(5) Uani 1 1 d . . . . .
H24 H 0.3429 0.4101 0.6028 0.164 Uiso 1 1 calc R U . . .
C25 C 0.4353(6) 0.3585(4) 0.5498(6) 0.120(4) Uani 1 1 d . . . . .
H25 H 0.4729 0.3897 0.5384 0.144 Uiso 1 1 calc R U . . .
C26 C 0.4541(5) 0.2968(3) 0.5306(5) 0.082(2) Uani 1 1 d . . . . .
H26 H 0.5054 0.2871 0.5058 0.099 Uiso 1 1 calc R U . . .
O21 O 0.1616(3) 0.06265(19) 0.1564(3) 0.0995(17) Uani 1 1 d . . . . .
H21A H 0.1215 0.0857 0.1416 0.149 Uiso 1 1 d R U . . .
H21B H 0.1583 0.0328 0.1185 0.149 Uiso 1 1 d R U . . .
loop_
_atom_site_aniso_label
_atom_site_aniso_U_11
_atom_site_aniso_U_22
_atom_site_aniso_U_33
_atom_site_aniso_U_23
_atom_site_aniso_U_13
_atom_site_aniso_U_12
Zn2 0.0397(4) 0.0400(4) 0.0438(4) 0.0003(3) 0.0033(3) 0.0001(3)
O11 0.0466(19) 0.043(2) 0.0370(18) -0.0035(15) 0.0025(15) 0.0016(16)
O12 0.0391(19) 0.062(2) 0.061(2) 0.0015(19) 0.0001(17) 0.0099(18)
O13 0.105(3) 0.040(2) 0.052(2) 0.0005(18) 0.022(2) 0.014(2)
O14 0.121(4) 0.035(2) 0.063(3) 0.0054(19) 0.023(2) 0.020(2)
O15 0.0406(17) 0.0262(16) 0.0429(19) 0.0002(14) 0.0075(15) 0.0008(14)
O16 0.052(2) 0.0347(18) 0.049(2) 0.0062(16) -0.0105(16) -0.0084(16)
O17 0.056(2) 0.043(2) 0.074(3) 0.0096(18) -0.012(2) -0.0182(18)
O18 0.081(3) 0.054(3) 0.124(4) 0.007(3) -0.046(3) 0.012(2)
O19 0.0401(18) 0.054(2) 0.061(2) -0.0095(19) -0.0058(17) 0.0057(17)
O20 0.068(2) 0.041(2) 0.059(2) 0.0011(17) 0.0167(19) 0.0051(18)
N3 0.063(3) 0.051(3) 0.057(3) 0.005(2) -0.011(2) -0.010(2)
N4 0.037(2) 0.072(3) 0.060(3) -0.012(3) 0.003(2) -0.001(2)
C27 0.038(3) 0.025(2) 0.050(3) 0.004(2) 0.005(2) -0.001(2)
C28 0.033(2) 0.032(2) 0.037(3) -0.004(2) 0.001(2) 0.000(2)
C29 0.048(3) 0.035(3) 0.042(3) -0.002(2) 0.003(2) -0.001(2)
C30 0.058(3) 0.040(3) 0.054(3) 0.009(2) 0.015(3) 0.002(2)
C31 0.051(3) 0.043(3) 0.051(3) -0.001(2) 0.017(3) 0.007(2)
C32 0.041(3) 0.038(3) 0.047(3) -0.005(2) 0.009(2) 0.007(2)
C33 0.038(2) 0.026(2) 0.041(3) -0.004(2) 0.002(2) 0.002(2)
C34 0.040(2) 0.028(2) 0.038(2) 0.003(2) 0.003(2) 0.006(2)
C35 0.041(3) 0.030(2) 0.043(3) 0.003(2) -0.001(2) -0.001(2)
C36 0.065(4) 0.031(3) 0.061(4) -0.005(2) -0.015(3) 0.001(3)
C37 0.064(3) 0.029(3) 0.062(4) 0.001(2) -0.006(3) 0.009(3)
C38 0.048(3) 0.043(3) 0.043(3) 0.008(2) -0.002(2) 0.004(2)
C39 0.040(2) 0.033(2) 0.039(3) -0.001(2) 0.002(2) -0.002(2)
C40 0.057(3) 0.035(3) 0.056(3) 0.001(3) 0.013(3) -0.001(2)
C41 0.044(3) 0.027(2) 0.044(3) -0.002(2) 0.004(2) 0.003(2)
C42 0.052(3) 0.045(3) 0.053(3) 0.003(3) 0.002(3) 0.006(3)
C43 0.086(5) 0.056(4) 0.096(5) -0.003(4) -0.029(4) 0.001(4)
C44 0.139(8) 0.056(5) 0.131(8) 0.007(4) -0.067(7) -0.004(5)
C45 0.155(9) 0.071(6) 0.123(8) 0.039(5) -0.054(7) -0.049(6)
C46 0.111(6) 0.104(6) 0.069(5) 0.014(5) -0.013(4) -0.055(5)
C47 0.075(4) 0.072(4) 0.043(3) 0.005(3) -0.007(3) -0.033(4)
C48 0.055(4) 0.097(5) 0.046(3) -0.011(3) 0.005(3) -0.026(4)
C49 0.062(4) 0.145(8) 0.064(4) -0.022(5) 0.006(4) -0.034(5)
C50 0.061(5) 0.186(11) 0.110(7) -0.062(7) 0.028(5) -0.010(6)
C51 0.060(5) 0.156(9) 0.138(8) -0.062(7) 0.012(5) 0.027(5)
C52 0.056(4) 0.093(5) 0.103(6) -0.034(4) 0.000(4) 0.014(4)
Zn1 0.0403(4) 0.0640(5) 0.0468(4) 0.0025(4) 0.0043(3) -0.0022(3)
O1 0.070(3) 0.054(3) 0.105(4) 0.003(2) -0.032(3) -0.010(2)
O2 0.0410(19) 0.059(2) 0.060(2) 0.0124(19) -0.0061(17) -0.0050(18)
O3 0.059(2) 0.048(2) 0.104(4) -0.020(2) -0.022(2) 0.015(2)
O4 0.049(2) 0.048(2) 0.046(2) -0.0154(17) -0.0133(17) 0.0173(17)
O5 0.0424(18) 0.0340(18) 0.051(2) -0.0019(15) 0.0103(16) -0.0053(15)
O6 0.097(3) 0.034(2) 0.148(5) 0.003(2) 0.060(3) 0.003(2)
O7 0.089(3) 0.046(2) 0.079(3) -0.006(2) 0.027(2) -0.019(2)
O8 0.0449(19) 0.048(2) 0.041(2) 0.0042(16) 0.0043(16) 0.0011(16)
O9 0.0349(19) 0.081(3) 0.068(3) 0.002(2) 0.0005(18) 0.0003(19)
O10 0.128(4) 0.072(3) 0.079(3) -0.007(2) 0.038(3) -0.044(3)
N1 0.066(3) 0.069(4) 0.061(3) 0.001(3) -0.006(3) 0.018(3)
N2 0.047(3) 0.108(5) 0.066(3) 0.022(3) 0.014(2) 0.007(3)
C1 0.040(3) 0.034(3) 0.052(3) 0.001(2) 0.003(2) -0.003(2)
C2 0.036(2) 0.031(2) 0.046(3) 0.004(2) -0.002(2) 0.002(2)
C3 0.049(3) 0.036(3) 0.048(3) -0.002(2) 0.004(2) -0.001(2)
C4 0.058(3) 0.042(3) 0.057(3) -0.012(3) 0.008(3) 0.004(3)
C5 0.051(3) 0.043(3) 0.053(3) -0.003(2) 0.017(3) -0.003(2)
C6 0.047(3) 0.033(3) 0.049(3) 0.000(2) 0.008(2) -0.003(2)
C7 0.036(2) 0.036(3) 0.038(3) -0.003(2) 0.002(2) 0.005(2)
C8 0.039(2) 0.032(2) 0.040(3) -0.004(2) 0.013(2) -0.001(2)
C9 0.043(3) 0.032(3) 0.049(3) -0.006(2) 0.001(2) 0.001(2)
C10 0.052(3) 0.032(3) 0.067(4) 0.004(2) -0.008(3) 0.005(2)
C11 0.049(3) 0.030(3) 0.077(4) -0.006(3) -0.011(3) -0.003(2)
C12 0.043(3) 0.040(3) 0.050(3) -0.003(2) 0.000(2) 0.002(2)
C13 0.043(3) 0.034(3) 0.043(3) 0.000(2) 0.007(2) 0.004(2)
C14 0.054(3) 0.040(3) 0.066(4) -0.005(3) 0.008(3) 0.000(3)
C15 0.037(3) 0.040(3) 0.055(3) 0.003(2) -0.002(2) 0.001(2)
C16 0.048(3) 0.048(3) 0.052(3) -0.001(3) 0.001(3) -0.005(3)
C17 0.055(4) 0.140(8) 0.100(6) 0.042(5) 0.006(4) -0.010(5)
C18 0.064(5) 0.236(14) 0.114(8) 0.072(9) 0.007(5) -0.026(7)
C19 0.057(5) 0.298(18) 0.104(7) 0.080(10) 0.020(5) 0.036(8)
C20 0.072(5) 0.216(12) 0.063(5) 0.034(6) 0.016(4) 0.057(6)
C21 0.058(4) 0.127(7) 0.046(4) 0.021(4) -0.002(3) 0.026(4)
C22 0.089(5) 0.108(6) 0.045(4) -0.002(4) -0.006(4) 0.052(5)
C23 0.145(10) 0.128(9) 0.084(6) -0.007(6) 0.001(6) 0.070(7)
C24 0.181(12) 0.113(8) 0.116(9) -0.041(7) -0.033(8) 0.087(8)
C25 0.171(10) 0.067(5) 0.122(8) -0.023(5) -0.076(7) 0.016(6)
C26 0.094(5) 0.066(5) 0.086(5) -0.008(4) -0.025(4) 0.015(4)
O21 0.091(3) 0.073(3) 0.134(5) -0.009(3) -0.037(3) 0.021(3)
loop_
_atom_type_symbol
_atom_type_description
_atom_type_scat_dispersion_real
_atom_type_scat_dispersion_imag
_atom_type_scat_source
C C 0.0181 0.0091 'International Tables Vol C Tables 4.2.6.8 and 6.1.1.4'
H H 0.0000 0.0000 'International Tables Vol C Tables 4.2.6.8 and 6.1.1.4'
N N 0.0311 0.0180 'International Tables Vol C Tables 4.2.6.8 and 6.1.1.4'
O O 0.0492 0.0322 'International Tables Vol C Tables 4.2.6.8 and 6.1.1.4'
Zn Zn -1.5491 0.6778 'International Tables Vol C Tables 4.2.6.8 and 6.1.1.4'
loop_
_geom_angle_atom_site_label_1
_geom_angle_atom_site_label_2
_geom_angle_atom_site_label_3
_geom_angle
_geom_angle_site_symmetry_1
_geom_angle_site_symmetry_3
_geom_angle_publ_flag
O16 Zn2 O11 98.71(13) 4_565 . ?
O16 Zn2 N4 115.14(16) 4_565 . ?
O11 Zn2 N4 145.98(16) . . ?
O16 Zn2 N3 96.30(15) 4_565 . ?
O11 Zn2 N3 95.24(17) . . ?
N4 Zn2 N3 78.53(19) . . ?
O16 Zn2 O20 97.02(13) 4_565 . ?
O11 Zn2 O20 86.98(13) . . ?
N4 Zn2 O20 91.89(17) . . ?
N3 Zn2 O20 166.01(15) . . ?
C27 O11 Zn2 112.9(3) . . ?
C40 O14 H14 109.5 . . ?
C33 O15 C34 117.4(3) . . ?
C41 O16 Zn2 121.1(3) . 4_566 ?
C42 O19 H19 109.3 . . ?
Zn2 O20 H20A 110.4 . . ?
Zn2 O20 H20B 109.7 . . ?
H20A O20 H20B 103.5 . . ?
C43 N3 C47 120.4(6) . . ?
C43 N3 Zn2 126.1(5) . . ?
C47 N3 Zn2 113.4(4) . . ?
C52 N4 C48 118.6(6) . . ?
C52 N4 Zn2 125.0(4) . . ?
C48 N4 Zn2 116.2(4) . . ?
O12 C27 O11 123.0(5) . . ?
O12 C27 C28 121.1(4) . . ?
O11 C27 C28 115.9(4) . . ?
C29 C28 C33 118.6(4) . . ?
C29 C28 C27 122.6(4) . . ?
C33 C28 C27 118.8(4) . . ?
C28 C29 C30 120.6(4) . . ?
C28 C29 C40 119.3(4) . . ?
C30 C29 C40 120.1(4) . . ?
C31 C30 C29 120.1(5) . . ?
C31 C30 H30 120.0 . . ?
C29 C30 H30 120.0 . . ?
C30 C31 C32 120.3(5) . . ?
C30 C31 H31 119.9 . . ?
C32 C31 H31 119.9 . . ?
C31 C32 C33 119.9(4) . . ?
C31 C32 H32 120.0 . . ?
C33 C32 H32 120.0 . . ?
O15 C33 C32 123.6(4) . . ?
O15 C33 C28 115.8(4) . . ?
C32 C33 C28 120.5(4) . . ?
C39 C34 C35 121.6(4) . . ?
C39 C34 O15 118.6(4) . . ?
C35 C34 O15 119.7(4) . . ?
C34 C35 C36 118.5(4) . . ?
C34 C35 C41 121.8(4) . . ?
C36 C35 C41 119.4(4) . . ?
C37 C36 C35 120.1(5) . . ?
C37 C36 H36 120.0 . . ?
C35 C36 H36 120.0 . . ?
C36 C37 C38 121.4(5) . . ?
C36 C37 H37 119.3 . . ?
C38 C37 H37 119.3 . . ?
C37 C38 C39 118.0(4) . . ?
C37 C38 C42 120.0(4) . . ?
C39 C38 C42 121.9(4) . . ?
C34 C39 C38 120.3(4) . . ?
C34 C39 H39 119.8 . . ?
C38 C39 H39 119.8 . . ?
O13 C40 O14 123.9(5) . . ?
O13 C40 C29 123.6(5) . . ?
O14 C40 C29 112.4(5) . . ?
O17 C41 O16 123.7(4) . . ?
O17 C41 C35 119.9(4) . . ?
O16 C41 C35 116.3(4) . . ?
O18 C42 O19 124.4(5) . . ?
O18 C42 C38 123.3(5) . . ?
O19 C42 C38 112.3(4) . . ?
N3 C43 C44 121.6(7) . . ?
N3 C43 H43 119.2 . . ?
C44 C43 H43 119.2 . . ?
C45 C44 C43 118.1(8) . . ?
C45 C44 H44 121.0 . . ?
C43 C44 H44 121.0 . . ?
C44 C45 C46 120.9(8) . . ?
C44 C45 H45 119.6 . . ?
C46 C45 H45 119.6 . . ?
C45 C46 C47 118.9(8) . . ?
C45 C46 H46 120.6 . . ?
C47 C46 H46 120.6 . . ?
N3 C47 C46 120.1(7) . . ?
N3 C47 C48 116.4(5) . . ?
C46 C47 C48 123.5(7) . . ?
N4 C48 C49 122.1(7) . . ?
N4 C48 C47 115.3(5) . . ?
C49 C48 C47 122.7(7) . . ?
C50 C49 C48 118.0(8) . . ?
C50 C49 H49 121.0 . . ?
C48 C49 H49 121.0 . . ?
C49 C50 C51 120.9(7) . . ?
C49 C50 H50 119.6 . . ?
C51 C50 H50 119.6 . . ?
C50 C51 C52 117.1(8) . . ?
C50 C51 H51 121.4 . . ?
C52 C51 H51 121.4 . . ?
N4 C52 C51 123.3(7) . . ?
N4 C52 H52 118.4 . . ?
C51 C52 H52 118.4 . . ?
O4 Zn1 O8 94.98(14) 4_566 . ?
O4 Zn1 N2 112.09(17) 4_566 . ?
O8 Zn1 N2 152.23(17) . . ?
O4 Zn1 O10 105.65(16) 4_566 . ?
O8 Zn1 O10 87.96(15) . . ?
N2 Zn1 O10 90.5(2) . . ?
O4 Zn1 N1 98.28(16) 4_566 . ?
O8 Zn1 N1 93.21(17) . . ?
N2 Zn1 N1 77.4(2) . . ?
O10 Zn1 N1 155.85(19) . . ?
C16 O2 H2 109.4 . . ?
C15 O4 Zn1 123.6(3) . 4_565 ?
C7 O5 C8 116.5(3) . . ?
C14 O6 H1 109.5 . . ?
C1 O8 Zn1 115.6(3) . . ?
Zn1 O10 H10A 112.0 . . ?
Zn1 O10 H10B 110.2 . . ?
H10A O10 H10B 102.1 . . ?
C26 N1 C22 120.2(6) . . ?
C26 N1 Zn1 125.5(5) . . ?
C22 N1 Zn1 114.2(5) . . ?
C17 N2 C21 119.1(6) . . ?
C17 N2 Zn1 124.4(5) . . ?
C21 N2 Zn1 116.5(5) . . ?
O9 C1 O8 123.6(5) . . ?
O9 C1 C2 120.6(5) . . ?
O8 C1 C2 115.7(4) . . ?
C3 C2 C7 118.3(4) . . ?
C3 C2 C1 123.2(4) . . ?
C7 C2 C1 118.4(4) . . ?
C2 C3 C4 120.6(5) . . ?
C2 C3 C14 118.6(5) . . ?
C4 C3 C14 120.8(5) . . ?
C3 C4 C5 120.2(5) . . ?
C3 C4 H4 119.9 . . ?
C5 C4 H4 119.9 . . ?
C6 C5 C4 119.7(5) . . ?
C6 C5 H5 120.2 . . ?
C4 C5 H5 120.2 . . ?
C5 C6 C7 119.4(4) . . ?
C5 C6 H6 120.3 . . ?
C7 C6 H6 120.3 . . ?
C2 C7 O5 115.9(4) . . ?
C2 C7 C6 121.7(4) . . ?
O5 C7 C6 122.4(4) . . ?
C13 C8 C9 120.7(4) . . ?
C13 C8 O5 120.6(4) . . ?
C9 C8 O5 118.6(4) . . ?
C8 C9 C10 118.2(4) . . ?
C8 C9 C15 121.0(4) . . ?
C10 C9 C15 120.5(4) . . ?
C9 C10 C11 120.9(5) . . ?
C9 C10 H10 119.6 . . ?
C11 C10 H10 119.6 . . ?
C12 C11 C10 120.1(5) . . ?
C12 C11 H11 119.9 . . ?
C10 C11 H11 119.9 . . ?
C11 C12 C13 119.2(5) . . ?
C11 C12 C16 119.4(5) . . ?
C13 C12 C16 121.3(4) . . ?
C8 C13 C12 120.8(4) . . ?
C8 C13 H13 119.6 . . ?
C12 C13 H13 119.6 . . ?
O7 C14 O6 122.0(5) . . ?
O7 C14 C3 122.9(5) . . ?
O6 C14 C3 115.1(5) . . ?
O3 C15 O4 123.9(5) . . ?
O3 C15 C9 120.9(5) . . ?
O4 C15 C9 115.1(4) . . ?
O1 C16 O2 123.5(5) . . ?
O1 C16 C12 123.6(5) . . ?
O2 C16 C12 112.8(4) . . ?
N2 C17 C18 119.9(9) . . ?
N2 C17 H17 120.0 . . ?
C18 C17 H17 120.0 . . ?
C19 C18 C17 120.1(10) . . ?
C19 C18 H18 119.9 . . ?
C17 C18 H18 119.9 . . ?
C20 C19 C18 121.2(9) . . ?
C20 C19 H19A 119.4 . . ?
C18 C19 H19A 119.4 . . ?
C19 C20 C21 116.4(10) . . ?
C19 C20 H20 121.8 . . ?
C21 C20 H20 121.8 . . ?
N2 C21 C20 123.0(8) . . ?
N2 C21 C22 116.0(6) . . ?
C20 C21 C22 121.0(8) . . ?
N1 C22 C23 120.4(9) . . ?
N1 C22 C21 115.7(6) . . ?
C23 C22 C21 123.8(8) . . ?
C24 C23 C22 119.9(10) . . ?
C24 C23 H23 120.0 . . ?
C22 C23 H23 120.0 . . ?
C23 C24 C25 120.8(10) . . ?
C23 C24 H24 119.6 . . ?
C25 C24 H24 119.6 . . ?
C24 C25 C26 116.5(9) . . ?
C24 C25 H25 121.7 . . ?
C26 C25 H25 121.7 . . ?
N1 C26 C25 122.0(8) . . ?
N1 C26 H26 119.0 . . ?
C25 C26 H26 119.0 . . ?
H21A O21 H21B 104.5 . . ?
loop_
_geom_bond_atom_site_label_1
_geom_bond_atom_site_label_2
_geom_bond_distance
_geom_bond_site_symmetry_2
_geom_bond_publ_flag
Zn2 O16 1.986(3) 4_565 ?
Zn2 O11 2.013(3) . ?
Zn2 N4 2.066(4) . ?
Zn2 N3 2.109(4) . ?
Zn2 O20 2.121(3) . ?
O11 C27 1.273(5) . ?
O12 C27 1.226(5) . ?
O13 C40 1.198(6) . ?
O14 C40 1.320(6) . ?
O14 H14 0.8201 . ?
O15 C33 1.377(5) . ?
O15 C34 1.412(5) . ?
O16 C41 1.259(5) . ?
O16 Zn2 1.986(3) 4_566 ?
O17 C41 1.234(5) . ?
O18 C42 1.215(6) . ?
O19 C42 1.316(6) . ?
O19 H19 0.8201 . ?
O20 H20A 0.8656 . ?
O20 H20B 0.8651 . ?
N3 C43 1.311(7) . ?
N3 C47 1.356(7) . ?
N4 C52 1.316(7) . ?
N4 C48 1.337(7) . ?
C27 C28 1.511(6) . ?
C28 C29 1.393(6) . ?
C28 C33 1.396(6) . ?
C29 C30 1.382(6) . ?
C29 C40 1.501(6) . ?
C30 C31 1.375(6) . ?
C30 H30 0.9300 . ?
C31 C32 1.382(6) . ?
C31 H31 0.9300 . ?
C32 C33 1.383(6) . ?
C32 H32 0.9300 . ?
C34 C39 1.365(6) . ?
C34 C35 1.384(6) . ?
C35 C36 1.392(6) . ?
C35 C41 1.508(6) . ?
C36 C37 1.374(6) . ?
C36 H36 0.9300 . ?
C37 C38 1.390(6) . ?
C37 H37 0.9300 . ?
C38 C39 1.399(6) . ?
C38 C42 1.483(7) . ?
C39 H39 0.9300 . ?
C43 C44 1.399(9) . ?
C43 H43 0.9300 . ?
C44 C45 1.357(11) . ?
C44 H44 0.9300 . ?
C45 C46 1.365(11) . ?
C45 H45 0.9300 . ?
C46 C47 1.386(8) . ?
C46 H46 0.9300 . ?
C47 C48 1.469(8) . ?
C48 C49 1.400(8) . ?
C49 C50 1.359(10) . ?
C49 H49 0.9300 . ?
C50 C51 1.377(11) . ?
C50 H50 0.9300 . ?
C51 C52 1.395(8) . ?
C51 H51 0.9300 . ?
C52 H52 0.9300 . ?
Zn1 O4 1.956(3) 4_566 ?
Zn1 O8 2.003(3) . ?
Zn1 N2 2.075(5) . ?
Zn1 O10 2.099(4) . ?
Zn1 N1 2.125(5) . ?
O1 C16 1.210(6) . ?
O2 C16 1.317(6) . ?
O2 H2 0.8200 . ?
O3 C15 1.227(5) . ?
O4 C15 1.253(6) . ?
O4 Zn1 1.956(3) 4_565 ?
O5 C7 1.382(5) . ?
O5 C8 1.389(5) . ?
O6 C14 1.286(6) . ?
O6 H1 0.8200 . ?
O7 C14 1.198(6) . ?
O8 C1 1.278(5) . ?
O9 C1 1.234(5) . ?
O10 H10A 0.8892 . ?
O10 H10B 0.8855 . ?
N1 C26 1.320(8) . ?
N1 C22 1.355(8) . ?
N2 C17 1.324(8) . ?
N2 C21 1.336(8) . ?
C1 C2 1.509(6) . ?
C2 C3 1.389(6) . ?
C2 C7 1.380(6) . ?
C3 C4 1.379(7) . ?
C3 C14 1.498(7) . ?
C4 C5 1.386(6) . ?
C4 H4 0.9300 . ?
C5 C6 1.384(6) . ?
C5 H5 0.9300 . ?
C6 C7 1.378(6) . ?
C6 H6 0.9300 . ?
C8 C13 1.377(6) . ?
C8 C9 1.393(6) . ?
C9 C10 1.391(6) . ?
C9 C15 1.502(6) . ?
C10 C11 1.389(6) . ?
C10 H10 0.9300 . ?
C11 C12 1.382(6) . ?
C11 H11 0.9300 . ?
C12 C13 1.384(6) . ?
C12 C16 1.486(7) . ?
C13 H13 0.9300 . ?
C17 C18 1.410(10) . ?
C17 H17 0.9300 . ?
C18 C19 1.330(14) . ?
C18 H18 0.9300 . ?
C19 C20 1.361(13) . ?
C19 H19A 0.9300 . ?
C20 C21 1.403(9) . ?
C20 H20 0.9300 . ?
C21 C22 1.450(10) . ?
C22 C23 1.383(10) . ?
C23 C24 1.346(13) . ?
C23 H23 0.9300 . ?
C24 C25 1.398(12) . ?
C24 H24 0.9300 . ?
C25 C26 1.414(9) . ?
C25 H25 0.9300 . ?
C26 H26 0.9300 . ?
O21 H21A 0.8499 . ?
O21 H21B 0.8502 . ?
loop_
_geom_hbond_atom_site_label_D
_geom_hbond_atom_site_label_H
_geom_hbond_atom_site_label_A
_geom_hbond_distance_DH
_geom_hbond_distance_HA
_geom_hbond_distance_DA
_geom_hbond_angle_DHA
_geom_hbond_site_symmetry_A
O21 H21B O1 0.85 2.20 3.015(6) 159.9 2_645
O21 H21A O12 0.85 2.13 2.934(5) 157.5 1_455
C20 H20 O12 0.93 2.38 3.224(9) 150.4 4_466
C17 H17 O10 0.93 2.57 3.070(9) 114.1 .
O10 H10B O7 0.89 1.88 2.753(6) 166.5 .
O6 H1 O3 0.82 1.78 2.556(5) 157.0 2_645
O2 H2 O11 0.82 1.80 2.605(4) 168.1 4_566
C52 H52 O20 0.93 2.50 3.087(8) 120.9 .
C51 H51 O6 0.93 2.57 3.407(8) 149.9 3_755
C49 H49 O9 0.93 2.34 3.254(8) 168.7 4_665
C46 H46 O9 0.93 2.58 3.505(9) 170.3 4_665
O20 H20B O17 0.87 2.31 2.930(5) 128.6 4_565
O20 H20B O13 0.87 2.29 2.957(5) 134.1 3_755
O20 H20A O1 0.87 2.59 3.167(5) 125.0 4_565
O20 H20A O13 0.87 2.17 2.887(5) 140.5 .
O19 H19 O8 0.82 1.80 2.591(4) 162.9 4_565
O14 H14 O17 0.82 1.73 2.550(5) 176.0 2_745
loop_
_geom_torsion_atom_site_label_1
_geom_torsion_atom_site_label_2
_geom_torsion_atom_site_label_3
_geom_torsion_atom_site_label_4
_geom_torsion
_geom_torsion_site_symmetry_1
_geom_torsion_site_symmetry_2
_geom_torsion_site_symmetry_3
_geom_torsion_site_symmetry_4
_geom_torsion_publ_flag
Zn2 O11 C27 O12 6.6(6) . . . . ?
Zn2 O11 C27 C28 -174.2(3) . . . . ?
O12 C27 C28 C29 -75.6(6) . . . . ?
O11 C27 C28 C29 105.2(5) . . . . ?
O12 C27 C28 C33 102.6(5) . . . . ?
O11 C27 C28 C33 -76.6(5) . . . . ?
C33 C28 C29 C30 1.2(7) . . . . ?
C27 C28 C29 C30 179.5(4) . . . . ?
C33 C28 C29 C40 179.2(4) . . . . ?
C27 C28 C29 C40 -2.6(7) . . . . ?
C28 C29 C30 C31 -0.2(8) . . . . ?
C40 C29 C30 C31 -178.1(5) . . . . ?
C29 C30 C31 C32 -1.2(8) . . . . ?
C30 C31 C32 C33 1.4(8) . . . . ?
C34 O15 C33 C32 -21.7(6) . . . . ?
C34 O15 C33 C28 160.6(4) . . . . ?
C31 C32 C33 O15 -177.9(4) . . . . ?
C31 C32 C33 C28 -0.4(7) . . . . ?
C29 C28 C33 O15 176.8(4) . . . . ?
C27 C28 C33 O15 -1.5(6) . . . . ?
C29 C28 C33 C32 -0.9(7) . . . . ?
C27 C28 C33 C32 -179.3(4) . . . . ?
C33 O15 C34 C39 -78.1(5) . . . . ?
C33 O15 C34 C35 106.3(5) . . . . ?
C39 C34 C35 C36 -1.4(7) . . . . ?
O15 C34 C35 C36 174.0(4) . . . . ?
C39 C34 C35 C41 172.3(4) . . . . ?
O15 C34 C35 C41 -12.2(7) . . . . ?
C34 C35 C36 C37 1.0(8) . . . . ?
C41 C35 C36 C37 -172.9(5) . . . . ?
C35 C36 C37 C38 1.2(9) . . . . ?
C36 C37 C38 C39 -2.8(8) . . . . ?
C36 C37 C38 C42 174.6(5) . . . . ?
C35 C34 C39 C38 -0.3(7) . . . . ?
O15 C34 C39 C38 -175.8(4) . . . . ?
C37 C38 C39 C34 2.4(7) . . . . ?
C42 C38 C39 C34 -175.0(5) . . . . ?
C28 C29 C40 O13 -27.4(8) . . . . ?
C30 C29 C40 O13 150.6(6) . . . . ?
C28 C29 C40 O14 151.0(5) . . . . ?
C30 C29 C40 O14 -31.0(7) . . . . ?
Zn2 O16 C41 O17 10.7(7) 4_566 . . . ?
Zn2 O16 C41 C35 -169.2(3) 4_566 . . . ?
C34 C35 C41 O17 139.0(5) . . . . ?
C36 C35 C41 O17 -47.3(7) . . . . ?
C34 C35 C41 O16 -41.1(7) . . . . ?
C36 C35 C41 O16 132.6(5) . . . . ?
C37 C38 C42 O18 5.9(9) . . . . ?
C39 C38 C42 O18 -176.8(5) . . . . ?
C37 C38 C42 O19 -174.0(5) . . . . ?
C39 C38 C42 O19 3.3(7) . . . . ?
C47 N3 C43 C44 0.6(10) . . . . ?
Zn2 N3 C43 C44 -175.9(5) . . . . ?
N3 C43 C44 C45 -1.0(12) . . . . ?
C43 C44 C45 C46 0.2(13) . . . . ?
C44 C45 C46 C47 1.0(13) . . . . ?
C43 N3 C47 C46 0.6(9) . . . . ?
Zn2 N3 C47 C46 177.5(4) . . . . ?
C43 N3 C47 C48 -179.3(5) . . . . ?
Zn2 N3 C47 C48 -2.5(6) . . . . ?
C45 C46 C47 N3 -1.4(10) . . . . ?
C45 C46 C47 C48 178.6(7) . . . . ?
C52 N4 C48 C49 -0.3(9) . . . . ?
Zn2 N4 C48 C49 -175.9(5) . . . . ?
C52 N4 C48 C47 -179.9(5) . . . . ?
Zn2 N4 C48 C47 4.6(6) . . . . ?
N3 C47 C48 N4 -1.3(8) . . . . ?
C46 C47 C48 N4 178.7(5) . . . . ?
N3 C47 C48 C49 179.1(5) . . . . ?
C46 C47 C48 C49 -0.8(9) . . . . ?
N4 C48 C49 C50 2.0(10) . . . . ?
C47 C48 C49 C50 -178.5(7) . . . . ?
C48 C49 C50 C51 -2.7(13) . . . . ?
C49 C50 C51 C52 1.9(14) . . . . ?
C48 N4 C52 C51 -0.6(10) . . . . ?
Zn2 N4 C52 C51 174.5(6) . . . . ?
C50 C51 C52 N4 -0.2(13) . . . . ?
Zn1 O8 C1 O9 8.2(6) . . . . ?
Zn1 O8 C1 C2 -174.3(3) . . . . ?
O9 C1 C2 C3 -98.4(6) . . . . ?
O8 C1 C2 C3 84.0(6) . . . . ?
O9 C1 C2 C7 84.3(6) . . . . ?
O8 C1 C2 C7 -93.3(5) . . . . ?
C7 C2 C3 C4 -2.6(7) . . . . ?
C1 C2 C3 C4 -179.9(5) . . . . ?
C7 C2 C3 C14 177.7(4) . . . . ?
C1 C2 C3 C14 0.4(7) . . . . ?
C2 C3 C4 C5 0.0(8) . . . . ?
C14 C3 C4 C5 179.7(5) . . . . ?
C3 C4 C5 C6 1.1(8) . . . . ?
C4 C5 C6 C7 0.3(8) . . . . ?
C3 C2 C7 O5 -177.6(4) . . . . ?
C1 C2 C7 O5 -0.1(6) . . . . ?
C3 C2 C7 C6 4.0(7) . . . . ?
C1 C2 C7 C6 -178.5(4) . . . . ?
C8 O5 C7 C2 154.4(4) . . . . ?
C8 O5 C7 C6 -27.2(6) . . . . ?
C5 C6 C7 C2 -2.9(7) . . . . ?
C5 C6 C7 O5 178.8(4) . . . . ?
C7 O5 C8 C13 -72.8(5) . . . . ?
C7 O5 C8 C9 111.2(5) . . . . ?
C13 C8 C9 C10 -0.7(7) . . . . ?
O5 C8 C9 C10 175.3(4) . . . . ?
C13 C8 C9 C15 173.1(4) . . . . ?
O5 C8 C9 C15 -10.9(7) . . . . ?
C8 C9 C10 C11 2.0(8) . . . . ?
C15 C9 C10 C11 -171.8(5) . . . . ?
C9 C10 C11 C12 -1.4(9) . . . . ?
C10 C11 C12 C13 -0.7(8) . . . . ?
C10 C11 C12 C16 175.5(5) . . . . ?
C9 C8 C13 C12 -1.3(7) . . . . ?
O5 C8 C13 C12 -177.2(4) . . . . ?
C11 C12 C13 C8 2.0(8) . . . . ?
C16 C12 C13 C8 -174.1(5) . . . . ?
C2 C3 C14 O7 7.4(9) . . . . ?
C4 C3 C14 O7 -172.3(6) . . . . ?
C2 C3 C14 O6 -171.6(5) . . . . ?
C4 C3 C14 O6 8.7(8) . . . . ?
Zn1 O4 C15 O3 5.7(8) 4_565 . . . ?
Zn1 O4 C15 C9 -178.2(3) 4_565 . . . ?
C8 C9 C15 O3 130.2(5) . . . . ?
C10 C9 C15 O3 -56.1(7) . . . . ?
C8 C9 C15 O4 -46.0(7) . . . . ?
C10 C9 C15 O4 127.6(5) . . . . ?
C11 C12 C16 O1 -0.3(9) . . . . ?
C13 C12 C16 O1 175.8(5) . . . . ?
C11 C12 C16 O2 -177.8(5) . . . . ?
C13 C12 C16 O2 -1.7(7) . . . . ?
C21 N2 C17 C18 1.3(11) . . . . ?
Zn1 N2 C17 C18 -179.2(6) . . . . ?
N2 C17 C18 C19 3.0(14) . . . . ?
C17 C18 C19 C20 -5.6(17) . . . . ?
C18 C19 C20 C21 3.8(15) . . . . ?
C17 N2 C21 C20 -3.0(10) . . . . ?
Zn1 N2 C21 C20 177.4(5) . . . . ?
C17 N2 C21 C22 176.6(6) . . . . ?
Zn1 N2 C21 C22 -3.0(7) . . . . ?
C19 C20 C21 N2 0.6(12) . . . . ?
C19 C20 C21 C22 -179.1(7) . . . . ?
C26 N1 C22 C23 -1.9(10) . . . . ?
Zn1 N1 C22 C23 176.8(6) . . . . ?
C26 N1 C22 C21 178.4(6) . . . . ?
Zn1 N1 C22 C21 -3.0(7) . . . . ?
N2 C21 C22 N1 4.0(9) . . . . ?
C20 C21 C22 N1 -176.4(6) . . . . ?
N2 C21 C22 C23 -175.8(7) . . . . ?
C20 C21 C22 C23 3.9(11) . . . . ?
N1 C22 C23 C24 -0.5(13) . . . . ?
C21 C22 C23 C24 179.3(8) . . . . ?
C22 C23 C24 C25 2.6(16) . . . . ?
C23 C24 C25 C26 -2.3(15) . . . . ?
C22 N1 C26 C25 2.1(10) . . . . ?
Zn1 N1 C26 C25 -176.4(5) . . . . ?
C24 C25 C26 N1 0.0(12) . . . . ?
