#------------------------------------------------------------------------------
#$Date: 2022-06-28 01:33:40 +0300 (Tue, 28 Jun 2022) $
#$Revision: 276298 $
#$URL: file:///home/coder/svn-repositories/cod/cif/7/24/51/7245103.cif $
#------------------------------------------------------------------------------
#
# This file is available in the Crystallography Open Database (COD),
# http://www.crystallography.net/
#
# All data on this site have been placed in the public domain by the
# contributors.
#
data_7245103
loop_
_publ_author_name
'Gu, Wen-Jun'
'Gu, Jinzhong'
'Kirillova, Marina'
'Kirillov, Alexander'
_publ_section_title
;
 Zn(II) metal-organic architectures from ether-bridged tetracarboxylate
 linkers: assembly, structural variety and catalytic features
;
_journal_name_full               CrystEngComm
_journal_paper_doi               10.1039/D2CE00722C
_journal_year                    2022
_chemical_formula_sum            'C36 H26 N6 O10 Zn2'
_chemical_formula_weight         833.37
_space_group_crystal_system      triclinic
_space_group_IT_number           2
_space_group_name_Hall           '-P 1'
_space_group_name_H-M_alt        'P -1'
_atom_sites_solution_hydrogens   mixed
_audit_creation_method           SHELXL-2014/7
_audit_update_record
;
2021-12-01 deposited with the CCDC.	2022-06-27 downloaded from the CCDC.
;
_cell_angle_alpha                117.148(5)
_cell_angle_beta                 99.183(4)
_cell_angle_gamma                90.486(4)
_cell_formula_units_Z            2
_cell_length_a                   8.1811(3)
_cell_length_b                   14.8958(8)
_cell_length_c                   15.0957(8)
_cell_measurement_reflns_used    10471
_cell_measurement_temperature    293(2)
_cell_measurement_theta_max      65.994
_cell_measurement_theta_min      3.468
_cell_volume                     1609.04(16)
_computing_cell_refinement       'Bruker SAINT'
_computing_data_collection       'Bruker APEX2'
_computing_data_reduction        'Bruker SAINT'
_computing_molecular_graphics    'Bruker SHELXTL'
_computing_publication_material  'Bruker SHELXTL'
_computing_structure_refinement  'SHELXL-2014/7 (Sheldrick, 2014)'
_computing_structure_solution    'SHELXL-2014/7 (Sheldrick, 2014)'
_diffrn_ambient_temperature      293(2)
_diffrn_measured_fraction_theta_full 0.998
_diffrn_measured_fraction_theta_max 0.998
_diffrn_measurement_device_type  'Bruker APE-II CCD'
_diffrn_measurement_method       '\f and \w scans'
_diffrn_radiation_type           CuK\a
_diffrn_radiation_wavelength     1.54178
_diffrn_reflns_av_R_equivalents  0.0248
_diffrn_reflns_av_unetI/netI     0.0368
_diffrn_reflns_Laue_measured_fraction_full 0.998
_diffrn_reflns_Laue_measured_fraction_max 0.998
_diffrn_reflns_limit_h_max       7
_diffrn_reflns_limit_h_min       -9
_diffrn_reflns_limit_k_max       17
_diffrn_reflns_limit_k_min       -17
_diffrn_reflns_limit_l_max       17
_diffrn_reflns_limit_l_min       -17
_diffrn_reflns_number            10471
_diffrn_reflns_point_group_measured_fraction_full 0.998
_diffrn_reflns_point_group_measured_fraction_max 0.998
_diffrn_reflns_theta_full        65.994
_diffrn_reflns_theta_max         65.994
_diffrn_reflns_theta_min         3.468
_diffrn_source                   'fine-focus sealed tube'
_exptl_absorpt_coefficient_mu    2.475
_exptl_absorpt_correction_T_max  0.693
_exptl_absorpt_correction_T_min  0.612
_exptl_absorpt_correction_type   multi-scan
_exptl_absorpt_process_details   SADABS
_exptl_crystal_colour            yellow
_exptl_crystal_density_diffrn    1.720
_exptl_crystal_description       block
_exptl_crystal_F_000             848
_exptl_crystal_size_max          0.220
_exptl_crystal_size_mid          0.210
_exptl_crystal_size_min          0.160
_exptl_transmission_factor_max   0.673
_exptl_transmission_factor_min   0.609
_refine_diff_density_max         0.610
_refine_diff_density_min         -0.422
_refine_diff_density_rms         0.065
_refine_ls_extinction_method     none
_refine_ls_goodness_of_fit_ref   1.034
_refine_ls_hydrogen_treatment    mixed
_refine_ls_matrix_type           full
_refine_ls_number_parameters     495
_refine_ls_number_reflns         5604
_refine_ls_number_restraints     0
_refine_ls_restrained_S_all      1.034
_refine_ls_R_factor_all          0.0449
_refine_ls_R_factor_gt           0.0355
_refine_ls_shift/su_max          0.001
_refine_ls_shift/su_mean         0.000
_refine_ls_structure_factor_coef Fsqd
_refine_ls_weighting_details
'w=1/[\s^2^(Fo^2^)+(0.0411P)^2^+1.4901P] where P=(Fo^2^+2Fc^2^)/3'
_refine_ls_weighting_scheme      calc
_refine_ls_wR_factor_gt          0.0884
_refine_ls_wR_factor_ref         0.0954
_reflns_Friedel_coverage         0.000
_reflns_number_gt                4710
_reflns_number_total             5604
_reflns_threshold_expression     'I > 2\s(I)'
_cod_data_source_file            d2ce00722c1.cif
_cod_data_source_block           500-10Zn
_cod_original_cell_volume        1609.04(15)
_cod_database_code               7245103
_shelx_shelxl_version_number     2014/7
_shelx_space_group_comment
;
The symmetry employed for this shelxl refinement is uniquely defined
by the following loop, which should always be used as a source of
symmetry information in preference to the above space-group names.
They are only intended as comments.
;
_shelx_estimated_absorpt_t_min   0.612
_shelx_estimated_absorpt_t_max   0.693
_shelx_res_file
;

    500-10Zn.res created by SHELXL-2014/7

TITL 500-10Zn in P-1
CELL 1.54178   8.1811  14.8958  15.0957 117.148  99.183  90.486
ZERR   2.00   0.0003   0.0008   0.0008   0.005   0.004   0.004
LATT 1
SFAC C  H  N  O  Zn
UNIT 72  52  12  20  4
OMIT -3 132
L.S. 22
ACTA
BOND $H
FMAP 2
PLAN 2
HTAB N5 O2_$6
HTAB N2 O4_$2
HTAB C34 O9_$5
HTAB C27 O3
HTAB C24 O1_$4
HTAB C21 O7_$3
HTAB C21 O5_$3
HTAB C18 O4_$2
HTAB O10 O3_$2
HTAB O10 O8_$1
HTAB N5 O2_$6
HTAB N2 O4_$2
HTAB C34 O9_$5
HTAB C27 O3
HTAB C24 O1_$4
HTAB C21 O7_$3
HTAB C21 O5_$3
HTAB C18 O4_$2
HTAB O10 O3_$2
HTAB O10 O8_$1
HTAB N5 O2_$6
EQIV $6 -x+1, -y+2, -z
HTAB N2 O4_$2
HTAB C34 O9_$5
HTAB C27 O3
HTAB C24 O1_$4
HTAB C21 O7_$3
HTAB C21 O5_$3
HTAB C18 O4_$2
HTAB O10 O3_$2
HTAB O10 O8_$1
HTAB C34 O9_$5
HTAB C27 O3
HTAB C24 O1_$4
HTAB C21 O7_$3
HTAB C21 O5_$3
HTAB C18 O4_$2
HTAB O10 O3_$2
HTAB O10 O8_$1
SIZE 0.22 0.21 0.16
HTAB
CONF
EQIV $1 x, y, z+1
HTAB O10 O8_$1
EQIV $2 -x+1, -y+2, -z+1
HTAB O10 O3_$2
HTAB C18 O4_$2
EQIV $3 x-1, y, z
HTAB C21 O5_$3
HTAB C21 O7_$3
EQIV $4 -x, -y+2, -z+1
HTAB C24 O1_$4
HTAB C27 O3
EQIV $5 -x, -y+1, -z-1
HTAB C34 O9_$5
HTAB O10 O8_$1
HTAB O10 O3_$2
HTAB C18 O4_$2
HTAB C21 O5_$3
HTAB C21 O7_$3
HTAB C24 O1_$4
HTAB C27 O3
HTAB C34 O9_$5
HTAB N2 O4_$2
HTAB N5 O2_$6
HTAB O10 O8_$1
HTAB O10 O3_$2
HTAB C18 O4_$2
HTAB C21 O5_$3
HTAB C21 O7_$3
HTAB C24 O1_$4
HTAB C27 O3
HTAB C34 O9_$5
HTAB N2 O4_$2
HTAB N5 O2_$6
WGHT    0.041100    1.490100
FVAR       4.44497
MOLE 1
ZN1   5    0.558753    1.279197    0.393504    11.00000    0.02627    0.02401 =
         0.02080    0.00577    0.00402   -0.00527
ZN2   5    0.459988    0.770331    0.173476    11.00000    0.02557    0.03280 =
         0.01899    0.00919    0.00216   -0.00521
N1    3    0.324254    0.802148    0.282517    11.00000    0.02471    0.03726 =
         0.02110    0.01243    0.00344   -0.00505
N2    3    0.041744    0.895616    0.511432    11.00000    0.02463    0.03483 =
         0.02297    0.00809    0.00269   -0.00855
N3    3   -0.381893    0.774000    0.554890    11.00000    0.02461    0.03248 =
         0.02372    0.01127    0.00468   -0.00356
N4    3    0.305990    0.720197    0.037915    11.00000    0.02422    0.02991 =
         0.01910    0.00599   -0.00076   -0.00343
N5    3    0.045296    0.625906   -0.255864    11.00000    0.03959    0.02781 =
         0.02316    0.01030   -0.00708   -0.01347
N6    3   -0.304917    0.395946   -0.478760    11.00000    0.03230    0.02379 =
         0.02000    0.00477   -0.00041   -0.00604
O1    4    0.658687    1.145086    0.329133    11.00000    0.03104    0.03087 =
         0.04195    0.00717    0.01583    0.00164
O2    4    0.847037    1.252710    0.334986    11.00000    0.08770    0.02208 =
         0.05198    0.00958    0.03749   -0.00088
O3    4    0.562453    0.894705    0.183392    11.00000    0.02855    0.03591 =
         0.02944    0.01317   -0.00355   -0.01209
O4    4    0.740700    0.941384    0.328283    11.00000    0.03601    0.03887 =
         0.02061    0.01191    0.00339   -0.00872
O5    4    0.863716    0.802750    0.112800    11.00000    0.03791    0.02206 =
         0.01924    0.00660   -0.00162   -0.00382
O6    4    0.621913    0.677140    0.176246    11.00000    0.04511    0.04490 =
         0.03223    0.02220    0.00980    0.00710
O7    4    0.853970    0.604112    0.138789    11.00000    0.04325    0.04327 =
         0.04894    0.02530   -0.00026    0.00762
O8    4    0.645476    0.781293   -0.232930    11.00000    0.11135    0.08764 =
         0.05833    0.05396   -0.02021   -0.03461
O9    4    0.491384    0.640512   -0.316238    11.00000    0.05034    0.07077 =
         0.03042    0.02132   -0.00978   -0.00745
O10   4    0.517068    0.953268    0.915929    11.00000    0.25281    0.27945 =
         0.21045    0.10877    0.00994    0.06768
AFIX   3
H1W   2    0.554801    0.901998    0.872269    11.00000   -1.20000
H2W   2    0.495390    0.993635    0.890946    11.00000   -1.20000
AFIX   0
C1    1    0.788313    1.164660    0.303980    11.00000    0.03327    0.02758 =
         0.02102    0.01076    0.00360    0.00071
C2    1    0.870409    1.078420    0.231738    11.00000    0.02332    0.02486 =
         0.01978    0.00814    0.00298   -0.00043
C3    1    0.822176    0.976972    0.202614    11.00000    0.01975    0.02582 =
         0.01615    0.00844   -0.00014   -0.00383
C4    1    0.699453    0.938058    0.244841    11.00000    0.02469    0.02186 =
         0.02016    0.00442    0.00357   -0.00201
C5    1    0.902887    0.902352    0.133648    11.00000    0.02797    0.02115 =
         0.01960    0.00670   -0.00005   -0.00278
C6    1    1.029390    0.925112    0.094674    11.00000    0.03377    0.03372 =
         0.02942    0.01061    0.01289    0.00590
AFIX  43
H6    2    1.081611    0.873676    0.048801    11.00000   -1.20000
AFIX   0
C7    1    1.077304    1.025443    0.124817    11.00000    0.03225    0.03936 =
         0.03812    0.01891    0.01652   -0.00154
AFIX  43
H7    2    1.162928    1.042128    0.099654    11.00000   -1.20000
AFIX   0
C8    1    0.997608    1.101064    0.192539    11.00000    0.03204    0.02626 =
         0.03234    0.01321    0.00639   -0.00542
AFIX  43
H8    2    1.030056    1.168451    0.212149    11.00000   -1.20000
AFIX   0
C9    1    0.766389    0.735651    0.020827    11.00000    0.02086    0.02220 =
         0.02038    0.00485    0.00243    0.00084
C10   1    0.701013    0.649082    0.020441    11.00000    0.02684    0.02514 =
         0.02499    0.00973    0.00451    0.00129
C11   1    0.729166    0.641461    0.118254    11.00000    0.03620    0.02031 =
         0.02734    0.00786   -0.00019   -0.00499
C12   1    0.609536    0.574203   -0.069964    11.00000    0.03716    0.02864 =
         0.03134    0.00878    0.00253   -0.00497
AFIX  43
H12   2    0.568981    0.514150   -0.073015    11.00000   -1.20000
AFIX   0
C13   1    0.578360    0.588405   -0.155540    11.00000    0.03430    0.03631 =
         0.02292    0.00183   -0.00118   -0.00305
AFIX  43
H13   2    0.516662    0.537912   -0.215408    11.00000   -1.20000
AFIX   0
C14   1    0.638256    0.677034   -0.152598    11.00000    0.02266    0.04035 =
         0.02030    0.01088    0.00354    0.00341
C15   1    0.591627    0.701218   -0.240252    11.00000    0.03033    0.05357 =
         0.02631    0.01227    0.00565    0.00132
C16   1    0.734725    0.751171   -0.063298    11.00000    0.02703    0.03003 =
         0.02430    0.01299    0.00584    0.00097
AFIX  43
H16   2    0.777335    0.810630   -0.060596    11.00000   -1.20000
AFIX   0
C17   1    0.393608    0.857697    0.381599    11.00000    0.02271    0.03487 =
         0.02541    0.01281    0.00082   -0.00495
AFIX  43
H17   2    0.507495    0.876273    0.398864    11.00000   -1.20000
AFIX   0
C18   1    0.302611    0.887423    0.457037    11.00000    0.02651    0.03089 =
         0.01841    0.00805   -0.00057   -0.00732
AFIX  43
H18   2    0.354969    0.925273    0.524199    11.00000   -1.20000
AFIX   0
C19   1    0.130855    0.861180    0.433737    11.00000    0.02674    0.03014 =
         0.02325    0.01434    0.00568   -0.00280
C20   1    0.058510    0.805076    0.331812    11.00000    0.02119    0.04131 =
         0.02566    0.01458    0.00091   -0.00639
AFIX  43
H20   2   -0.055393    0.786582    0.312441    11.00000   -1.20000
AFIX   0
C21   1    0.159025    0.777729    0.260678    11.00000    0.02771    0.03935 =
         0.01891    0.01079   -0.00175   -0.00655
AFIX  43
H21   2    0.109636    0.739834    0.192946    11.00000   -1.20000
AFIX   0
C22   1   -0.104984    0.854027    0.517453    11.00000    0.02298    0.03295 =
         0.02422    0.01632    0.00263   -0.00163
C23   1   -0.182668    0.912198    0.598953    11.00000    0.02802    0.02613 =
         0.02227    0.00721    0.00304   -0.00474
AFIX  43
H23   2   -0.143265    0.979484    0.642200    11.00000   -1.20000
AFIX   0
C24   1   -0.316628    0.869913    0.614882    11.00000    0.02535    0.02924 =
         0.02297    0.00825    0.00563   -0.00223
AFIX  43
H24   2   -0.365111    0.909734    0.670238    11.00000   -1.20000
AFIX   0
C25   1   -0.312032    0.719903    0.474185    11.00000    0.03213    0.02771 =
         0.02980    0.00762    0.00607   -0.00536
AFIX  43
H25   2   -0.357764    0.653905    0.430456    11.00000   -1.20000
AFIX   0
C26   1   -0.176888    0.755746    0.451835    11.00000    0.03170    0.03325 =
         0.02923    0.00875    0.01240   -0.00156
AFIX  43
H26   2   -0.134340    0.715240    0.394121    11.00000   -1.20000
AFIX   0
C27   1    0.331902    0.765727   -0.018907    11.00000    0.02253    0.03010 =
         0.02475    0.00663    0.00288   -0.00530
AFIX  43
H27   2    0.411720    0.820792    0.008731    11.00000   -1.20000
AFIX   0
C28   1    0.247222    0.734985   -0.114078    11.00000    0.02617    0.03148 =
         0.02503    0.01138    0.00221   -0.00324
AFIX  43
H28   2    0.270456    0.768497   -0.150298    11.00000   -1.20000
AFIX   0
C29   1    0.124583    0.652877   -0.158483    11.00000    0.02723    0.02375 =
         0.02034    0.00414   -0.00006   -0.00048
C30   1    0.092302    0.608810   -0.098534    11.00000    0.04175    0.02782 =
         0.02388    0.00639   -0.00526   -0.01442
AFIX  43
H30   2    0.008354    0.556416   -0.122722    11.00000   -1.20000
AFIX   0
C31   1    0.185428    0.643423   -0.003630    11.00000    0.04561    0.03097 =
         0.02555    0.01249    0.00039   -0.00595
AFIX  43
H31   2    0.163897    0.611777    0.034572    11.00000   -1.20000
AFIX   0
C32   1   -0.070206    0.547236   -0.324621    11.00000    0.02829    0.02367 =
         0.02138    0.00526   -0.00110   -0.00386
C33   1   -0.141703    0.554380   -0.410934    11.00000    0.04802    0.02956 =
         0.03087    0.01509   -0.00917   -0.01437
AFIX  43
H33   2   -0.112346    0.610564   -0.418572    11.00000   -1.20000
AFIX   0
C34   1   -0.255431    0.478749   -0.484837    11.00000    0.04864    0.03426 =
         0.02688    0.01430   -0.01140   -0.01304
AFIX  43
H34   2   -0.300467    0.485216   -0.542010    11.00000   -1.20000
AFIX   0
C35   1   -0.235442    0.389464   -0.395924    11.00000    0.05016    0.02783 =
         0.02696    0.01165   -0.00337   -0.01205
AFIX  43
H35   2   -0.268155    0.332869   -0.389874    11.00000   -1.20000
AFIX   0
C36   1   -0.118569    0.460827   -0.318714    11.00000    0.05313    0.03011 =
         0.02373    0.01141   -0.00937   -0.01118
AFIX  43
H36   2   -0.072784    0.451267   -0.263499    11.00000   -1.20000
AFIX   0
H2    2    0.090209    0.943062    0.562418    11.00000    0.03841
H5    2    0.075706    0.666821   -0.275867    11.00000    0.02309
HKLF 4

REM  500-10Zn in P-1
REM R1 =  0.0355 for    4710 Fo > 4sig(Fo)  and  0.0449 for all    5604 data
REM    495 parameters refined using      0 restraints

END

WGHT      0.0428      1.4273

REM Instructions for potential hydrogen bonds
HTAB O10 O8_$1
HTAB O10 O3_$2
HTAB C18 O4_$2
HTAB C21 O5_$3
HTAB C21 O7_$3
HTAB C24 O1_$4
HTAB C27 O3
HTAB C34 O9_$5
HTAB N2 O4_$2
HTAB N5 O2_$6

REM Highest difference peak  0.610,  deepest hole -0.422,  1-sigma level  0.065
Q1    1   0.4841  0.5618 -0.3292  11.00000  0.05    0.56
Q2    1   0.5469  0.6449 -0.2597  11.00000  0.05    0.35
;
_shelx_res_checksum              36473
_shelx_hkl_file
;
   0   0  -2 7593.14 269.349  19
   0   0  -3 57903.5 901.658  19
   0   0  -4 78856.4 1236.49  19
   0   0   5 17904.7 647.707  18
   0   0  -5 17803.8 675.637  19
   0   0   6 55912.6 1271.05  18
   0   0   7 11037.1 638.987  18
   0   0   8 142.389 171.196  18
   0   0  -8 174.784 181.363   8
   0   0  -9 19552.9 1051.79   8
   0   0   9 19326.0 1003.35  18
   0   0  10 13464.1 897.303  18
   0   0  11 1168.10 334.929  18
   0   0 -11 1138.12 353.941   9
   0   0 -12 16710.4 1169.78   9
   0   0 -13 8258.06 818.189   9
   0   0 -14 60062.2 2023.83   9
   0   0 -15 1226.98 304.186   9
   0   0 -16 784.104 194.674   9
   0   1 -16 14333.9 788.536   9
   0   1 -15-85.6469 188.568   9
   0   1 -14-102.256 285.901   9
   0   1 -13 4702.65 624.649   9
   0   1 -12 84121.5 2565.80   9
   0  -1  12 86292.8 2417.45  18
   0   1 -11 9519.42 861.571   9
   0  -1  11 11107.2 852.688  18
   0  -1  10 15391.7 939.264  18
   0  -1   9 2286.66 367.983  18
   0  -1   8 12281.5 722.012  18
   0  -1   7 242193. 2850.75  18
   0  -1   6 10241.8 532.301  18
   0  -1   5 10588.4 487.908  19
   0  -1   5 9773.15 469.659  18
   0   1  -4 45632.2 363.974  20
   0   1  -3 904.220 65.6013  20
   0   1  -2 369368. 1173.25  20
   0   1  -1 257.694 39.4369  20
   0   1   1 19146.4 256.539  20
   0   1   2 81573.2 495.678  20
   0  -1  -3 32247.7 742.512  19
   0  -1  -4 32975.6 863.130  19
   0   1   4 33645.9 840.475  18
   0   1   5 1359.65 208.163  18
   0   1   6 22724.9 858.039  18
   0   1   7 48433.7 1375.41  18
   0   1   8 22.4439 178.612  18
   0  -1  -8 6.87131 168.214   8
   0  -1  -9 11988.7 889.217   8
   0   1   9 11600.8 808.561  18
   0   1  10 8134.27 734.432  18
   0  -1 -10 6471.29 706.349   9
   0  -1 -11 180.050 268.147   9
   0   1  11 102.819 205.913  18
   0  -1 -12 32224.0 1596.59   9
   0  -1 -13 367.639 304.122   9
   0  -1 -14-11.9033 254.863   9
   0  -1 -15 1305.48 277.389   9
   0   2 -16 1090.44 297.704   9
   0   2 -15 10844.6 857.211   9
   0   2 -14 12849.5 1002.90   9
   0   2 -13 5135.88 665.720   9
   0   2 -12 5288.24 661.500   9
   0  -2  12 5783.10 643.249  18
   0  -2  11 854.712 292.698  18
   0   2 -11 537.426 259.219  10
   0  -2  10 706.700 278.223  18
   0  -2   9 100671. 2150.35  18
   0  -2   8 6081.01 506.098  18
   0  -2   7 5493.92 437.325  18
   0  -2   6 230.779 118.278  18
   0  -2   6 470.793 118.144  13
   0  -2   5 66842.7 1197.39  18
   0  -2   5 67841.0 1210.02  19
   0   2  -5 69268.8 698.613  20
   0  -2   4 1217.80 138.280  13
   0   2  -4 1179.08 136.626  24
   0   2  -4 1286.63 109.258  20
   0   2  -3 1477.17 123.276  20
   0  -2   3 1297.47 57.7715  25
   0  -2   2 6877.61 165.760  27
   0   2  -2 6718.08 229.611  20
   0   2  -1 113515. 910.310  20
   0   2   0 495992. 1884.80  20
   0   2   1 60826.1 654.663  20
   0   2   2 4846.13 183.599  20
   0   2   3 806.598 112.513  23
   0   2   3 683.921 68.4733  20
   0   2   3 862.600 145.837  18
   0   2   4 6532.49 407.269  18
   0  -2  -4 5601.21 394.028  19
   0   2   4 6362.94 320.345  23
   0   2   5 150277. 2105.77  18
   0   2   6 11092.9 645.499  18
   0  -2  -6 11560.7 762.945   8
   0   2   7 44300.7 1402.64  18
   0  -2  -7 44042.5 1585.06   8
   0  -2  -8 5736.63 634.651   8
   0   2   8 5566.97 563.030  18
   0   2   9 16992.0 1013.23  18
   0  -2  -9 16103.0 1101.53   8
   0   2  10 1390.17 343.385  12
   0  -2 -10 1131.75 314.110   8
   0   2  10 1237.89 334.541  18
   0  -2 -10 1736.74 421.308   9
   0  -2 -11 38293.2 1739.13   9
   0   2  11 39328.1 1644.25  12
   0  -2 -12 562.896 307.952   9
   0  -2 -13-31.8011 269.953   9
   0  -2 -14 28681.3 1225.74   9
   0  -2 -15 255.452 150.482   9
   0   3 -17 255.904 130.456   9
   0   3 -16 23859.4 1140.77   9
   0   3 -15 5058.57 612.757   9
   0   3 -14 161.280 248.263   9
   0   3 -13 19103.4 1242.79   9
   0   3 -12 17345.7 1081.00  10
   0  -3  12 15911.9 1045.93  18
   0  -3  11 29283.9 1323.89  18
   0  -3  10 14956.0 903.399  18
   0  -3   9 7973.48 638.220  18
   0  -3   8 61191.1 1558.26  18
   0  -3   7 116311. 1618.17  13
   0  -3   7 118795. 1958.59  18
   0   3  -6 16743.2 544.919  21
   0  -3   6 16532.2 667.467  18
   0   3  -6 16761.2 431.531  20
   0  -3   6 16515.7 567.016  13
   0   3  -5 33386.8 746.758  24
   0   3  -5 32284.4 618.455  20
   0   3  -5 32634.9 669.685  21
   0  -3   5 35002.6 876.436  19
   0  -3   5 33482.7 746.244  13
   0  -3   4 19168.4 529.648  13
   0   3  -4 18802.9 512.285  24
   0  -3   4 17880.3 238.263  25
   0   3  -4 17359.3 457.562  20
   0   3  -3 48956.9 757.065  20
   0  -3   3 53803.7 549.449  27
   0  -3   2 112718. 971.567  27
   0   3  -2 115730. 1140.53  20
   0   3  -1 155250. 1309.17  20
   0   3   0 1243.96 136.367  20
   0  -3   0 1126.65 155.523   8
   0   3   1 59226.1 803.110  20
   0   3   1 59752.6 910.100  23
   0   3   2 52835.3 750.613  20
   0   3   2 53408.4 911.421  23
   0   3   3 32756.6 569.389  20
   0   3   3 31672.0 753.341  23
   0   3   3 32639.9 886.447  18
   0   3   4 1770.00 247.182  18
   0   3   4 2200.22 218.404  23
   0  -3  -5 29062.1 1192.34   8
   0   3   5 27848.7 998.374  18
   0   3   6 762.563 242.871  18
   0  -3  -6 926.133 272.990   8
   0  -3  -7 33854.6 1499.30   8
   0   3   7 32513.6 1272.36  18
   0   3   8 8047.62 690.781  18
   0  -3  -8 7376.99 767.322   8
   0   3   9 753.840 253.083  12
   0  -3  -9 71.2514 263.879   8
   0  -3  -9-97.9136 289.310   9
   0  -3 -10 9062.45 876.425   8
   0   3  10 12225.1 948.885  12
   0  -3 -10 11134.4 956.660   9
   0   3  11 2095.80 407.723  12
   0  -3 -11 2379.97 480.802   9
   0   3  12 11622.5 839.675  12
   0  -3 -12 9419.86 842.764   9
   0  -3 -13 415.639 249.507   9
   0  -3 -14 1147.27 249.322   9
   0   4 -17 441.966 169.437   9
   0   4 -16 905.235 285.917   9
   0   4 -15 1851.12 382.000   9
   0   4 -14 14037.4 1057.87   9
   0   4 -13 1535.07 356.660  10
   0  -4  13 1512.41 364.290  18
   0   4 -12 1535.13 347.307  10
   0  -4  12 1634.98 386.446  18
   0  -4  11 14420.7 941.272  18
   0  -4  10 17788.2 990.294  18
   0  -4   9 6048.39 552.730  18
   0  -4   8 2753.90 288.766  13
   0  -4   8 3116.27 390.635  18
   0  -4   7 69923.1 1312.34  13
   0  -4   7 69662.1 1523.01  18
   0   4  -6 8123.80 364.708  20
   0  -4   6 7601.45 412.685  13
   0   4  -6 8877.85 440.794  24
   0  -4   5 912.033 59.6766  25
   0  -4   5 1048.89 165.586  13
   0   4  -5 888.655 147.623  24
   0   4  -5 1017.60 140.800  20
   0   4  -4 21571.6 587.416  20
   0  -4   4 23402.8 410.237  27
   0  -4   4 23046.1 637.490  13
   0   4  -4 22515.4 610.928  24
   0  -4   3 12539.4 356.807  27
   0   4  -3 11943.7 431.603  24
   0   4  -3 12361.7 443.838  20
   0   4  -2 14952.0 485.930  20
   0   4  -2 15206.4 486.822  24
   0  -4   1 52130.3 941.570   8
   0   4  -1 50184.3 877.540  20
   0  -4   0 3866.27 305.610   8
   0   4   0 4210.89 279.401  23
   0   4   0 3820.44 246.657  20
   0  -4  -1 8317.87 493.231   8
   0   4   1 8783.04 370.351  20
   0   4   1 8206.84 401.627  23
   0  -4  -2 1564.39 264.944   8
   0   4   2 1441.35 151.546  20
   0   4   2 1768.35 208.846  23
   0   4   3 225.656 99.6049  23
   0  -4  -3 81.3082 177.373   8
   0  -4  -4 8425.27 667.337   8
   0   4   4 9031.02 483.616  23
   0  -4  -5 68596.2 1989.07   8
   0  -4  -6 143.483 224.258   8
   0  -4  -7 14482.3 1058.24   8
   0  -4  -8 32114.2 1518.95   9
   0  -4  -8 32349.3 1646.24   8
   0   4   8 30504.0 1459.47  12
   0  -4  -9 6493.97 775.383   8
   0  -4  -9 4977.64 653.582   9
   0   4   9 5540.03 665.848  12
   0  -4 -10 6847.03 750.346   9
   0   4  10 8297.05 794.844  12
   0   4  11 381.643 226.561  12
   0  -4 -11 215.565 256.410   9
   0   4  12 3627.05 456.475  12
   0  -4 -12 3123.68 484.429   9
   0  -4 -13 2692.97 388.027   9
   0   5 -17 169.907 123.889   9
   0   5 -16 6960.03 660.113   9
   0   5 -15 1560.33 378.145   9
   0   5 -14 542.493 246.733  10
   0   5 -14 1361.48 351.392   9
   0   5 -13 31539.4 1472.61  10
   0  -5  13 32183.3 1507.28  18
   0   5 -12-72.5061 180.491  10
   0  -5  12-230.960 212.742  18
   0  -5  11 40335.1 1568.82  18
   0  -5  10 241.374 224.649  18
   0  -5   9 8559.46 539.636  13
   0  -5   9 9281.51 682.775  18
   0  -5   8 3653.51 341.610  13
   0  -5   8 2554.55 346.045  18
   0  -5   7 53983.7 1221.93  13
   0   5  -7 56860.5 1224.79  24
   0  -5   6 34996.2 931.557  13
   0   5  -6 35886.1 914.504  24
   0   5  -5 19514.6 648.615  24
   0  -5   5 19379.5 667.735  13
   0  -5   4 93.6392 55.5759  27
   0   5  -4 77.4633 81.5356  24
   0  -5   4 75.2950 82.6718  13
   0   5  -4 96.6179 63.2171  21
   0   5  -4 143.234 80.0632  20
   0   5  -3 147449. 1721.42  20
   0   5  -3 151740. 1720.64  24
   0  -5   3 151054. 1488.15  27
   0   5  -2 93942.6 1378.48  24
   0   5  -2 95474.0 1380.80  20
   0  -5   2 94471.0 1291.98  27
   0  -5   1 37721.1 779.165  26
   0  -5   1 37456.2 933.622   8
   0   5  -1 37091.4 861.797  20
   0  -5   0 1972.75 259.867   8
   0   5   0 2279.17 225.154  20
   0   5   1 115969. 1682.35  23
   0   5   1 112023. 1502.80  20
   0  -5  -1 113130. 1981.71   8
   0   5   2 439.714 148.444  23
   0  -5  -2 498.500 221.777   8
   0   5   3 137432. 1969.69  23
   0  -5  -3 139993. 2610.35   8
   0  -5  -4 1980.12 393.604   8
   0  -5  -5 52477.2 1874.94   8
   0  -5  -6 184.014 265.862   8
   0   5   7 96883.9 2612.51  12
   0  -5  -7 90306.5 2515.80   9
   0  -5  -7 96787.4 2849.03   8
   0  -5  -8 5774.75 687.113   9
   0   5   8 7829.87 783.105  12
   0  -5  -8 7490.41 833.335   8
   0   5   9 4042.45 571.287  12
   0  -5  -9 4090.46 595.699   9
   0  -5 -10 16227.0 1105.90   9
   0   5  10 17139.2 1098.28  12
   0  -5 -11 120.850 214.416   9
   0   5  11 87.4848 181.809  12
   0  -5 -12 3493.86 443.919   9
   0   5  12 3405.36 393.348  12
   0  -5 -13 179.358 128.894   9
   0   6 -17 1561.65 289.956   9
   0   6 -16 189.472 179.280   9
   0   6 -15 268.127 232.060   9
   0   6 -15 436.175 274.463  10
   0   6 -14 41774.6 1718.41  10
   0  -6  13 30394.1 1478.00  18
   0   6 -13 31085.8 1473.90  10
   0   6 -12 111.418 145.858   7
   0  -6  12 503.368 276.298  18
   0  -6  11 11575.6 865.281  18
   0  -6  10 18703.0 1027.80  18
   0  -6   9 38728.7 1392.90  18
   0  -6   9 38049.2 1178.77  13
   0  -6   8 9498.03 570.221  13
   0   6  -8 9157.11 550.522  24
   0  -6   7 38455.6 1091.49  13
   0   6  -7 38175.6 1054.92  24
   0   6  -6 791.948 172.734  24
   0  -6   6 696.540 180.424  13
   0  -6   5 12655.4 586.835  13
   0   6  -5 14250.2 601.723  24
   0  -6   4 33641.8 926.796  13
   0  -6   4 32993.5 749.062  27
   0   6  -4 34373.2 916.078  24
   0  -6   3 3443.85 274.246  27
   0   6  -3 4191.54 336.481  24
   0   6  -2 5227.62 382.455  24
   0  -6   2 4811.11 278.180  26
   0  -6   1 98043.2 1429.97  26
   0  -6   1 98476.5 1696.62   8
   0  -6   0 191311. 2627.10   8
   0  -6  -1 75120.5 1797.91   8
   0  -6  -2 24961.5 1118.02   8
   0  -6  -3 43054.4 1588.10   8
   0  -6  -4 170.088 225.329   8
   0  -6  -5 70490.7 2312.45   8
   0   6   6 11671.7 921.829  12
   0  -6  -6 12778.2 947.580   9
   0  -6  -6 12428.3 1042.50   8
   0  -6  -7 4039.19 580.080   9
   0  -6  -7 5090.80 692.071   8
   0   6   7 4893.36 632.394  12
   0  -6  -8 8597.45 824.939   9
   0   6   8 7807.50 802.257  12
   0  -6  -9 142.983 229.131   9
   0   6   9 471.392 254.498  12
   0   6  10 2786.53 449.375  12
   0  -6 -10 2347.97 432.036   9
   0  -6 -11 625.190 250.835   9
   0   6  11 392.974 192.723  12
   0  -6 -12 9442.91 594.354   9
   0   7 -18 342.971 151.401   5
   0   7 -17 3574.72 423.090   9
   0   7 -16 4710.55 553.932   9
   0   7 -16 4863.72 539.847  10
   0   7 -15 9222.98 804.306  10
   0   7 -14 3308.24 521.582  10
   0   7 -13 1484.75 323.146   7
   0  -7  13 1269.34 310.588  18
   0   7 -13 1139.74 345.673  10
   0   7 -12 25800.3 1320.75  10
   0   7 -12 22121.9 1180.87   7
   0  -7  12 23862.2 1289.91  18
   0  -7  11 44025.8 1676.03  18
   0  -7  10 3214.13 387.210  13
   0  -7  10 3873.42 495.101  18
   0  -7   9 6660.39 615.163  18
   0  -7   9 6859.98 540.116  13
   0   7  -9 6584.19 516.413  24
   0  -7   8 40657.6 1228.89  13
   0   7  -8 39010.9 1176.40  24
   0  -7   7 1366.97 252.071  13
   0   7  -7 868.476 197.208  24
   0  -7   6 63804.3 1461.58  13
   0   7  -6 69316.2 1470.41  24
   0  -7   5 3451.72 355.367  13
   0   7  -5 3688.94 344.977  24
   0  -7   4 160278. 2230.16  13
   0   7  -4 164749. 2196.80  24
   0   7  -3 57580.8 1315.61  24
   0   7  -2 171048. 2306.05  24
   0  -7   1 85635.0 1782.63   8
   0  -7   1 94215.2 1530.52  26
   0  -7   0 6632.78 463.388  26
   0  -7   0 7159.93 577.976   8
   0  -7  -1 57173.8 1696.90   8
   0  -7  -2 2575.07 420.920   8
   0  -7  -3 23137.2 1253.89   8
   0  -7  -4 216.636 252.232   8
   0   7   5 12825.2 969.400  12
   0   7   5 11623.1 904.056   4
   0  -7  -5 12853.0 932.772   9
   0  -7  -5 15201.0 1148.14   8
   0  -7  -6 2839.58 550.499   8
   0   7   6 3766.52 562.211  12
   0  -7  -6 2493.36 443.113   9
   0   7   6 2813.11 480.996   4
   0   7   7 24074.2 1296.31   4
   0  -7  -7 23496.5 1342.97   9
   0   7   7 24687.3 1390.12  12
   0  -7  -8 101.890 219.786   9
   0   7   8 440.464 263.465  12
   0   7   9 8531.23 779.042  12
   0  -7  -9 9220.90 798.930   9
   0   7  10 9137.68 720.366  12
   0  -7 -10 9259.22 722.309   9
   0   7  11 2652.33 331.201  12
   0  -7 -11 2654.57 343.649   9
   0   8 -18 7347.44 523.737   5
   0   8 -17 3197.67 394.186   9
   0   8 -16 717.719 246.746   9
   0   8 -16 600.474 249.554  10
   0   8 -15 10974.0 861.160  10
   0   8 -14 2095.42 394.419   7
   0   8 -14 1609.38 425.120  10
   0  -8  13 17580.8 1149.35  18
   0   8 -13 17579.9 1131.02  10
   0   8 -13 19301.0 1128.01   7
   0  -8  12 200.414 206.123  18
   0   8 -12 137.361 203.827  10
   0  -8  11 16585.3 1062.20  18
   0   8 -11 16473.1 1017.68  10
   0  -8  10 30496.5 1375.50  18
   0  -8  10 29874.8 1192.18  13
   0  -8   9 32669.7 1213.63  13
   0   8  -9 32862.0 1167.63  24
   0  -8   8 19335.4 903.635  13
   0   8  -8 18321.5 854.675  24
   0  -8   7 3714.64 413.694  13
   0   8  -7 4200.78 407.423  24
   0   8  -6 11260.7 645.523  24
   0  -8   6 11384.0 677.060  13
   0   8  -5 13434.3 693.338  24
   0  -8   5 12631.1 701.808  13
   0   8  -4 196.009 158.344  24
   0  -8   4 865.711 238.711  13
   0   8  -3 739.428 219.206  24
   0   8  -2 44956.6 1323.03  24
   0  -8   1 37788.3 1291.04   8
   0  -8   0 46073.0 1547.82   8
   0  -8   0 42618.1 1247.58  26
   0  -8  -1 64236.1 1953.36   8
   0  -8  -1 63251.9 1661.79  26
   0  -8  -2 5879.00 564.677  26
   0  -8  -2 6114.67 674.911   8
   0  -8  -3 24802.2 1386.26   8
   0   8   4 1740.57 357.251   4
   0   8   4 2115.91 427.147  12
   0  -8  -4 1814.90 369.465   9
   0  -8  -4 1974.62 390.885  26
   0  -8  -4 1345.98 415.201   8
   0  -8  -5 44315.7 2013.92   8
   0  -8  -5 45567.8 1808.65  26
   0   8   5 45913.9 1865.36   4
   0  -8  -5 46840.3 1838.87   9
   0   8   5 45291.8 1862.39  12
   0   8   6 4478.88 613.647   4
   0   8   6 4282.18 621.425  12
   0  -8  -6 4382.69 605.357   9
   0   8   7 4658.69 589.456   4
   0  -8  -7 4700.10 610.529   9
   0   8   7 6142.53 709.220  12
   0   8   8 3359.25 525.748  12
   0  -8  -8 3272.90 497.699   9
   0   8   9 372.679 238.521  12
   0  -8  -9 61.2717 160.408   9
   0  -8 -10 5721.24 488.729   9
   0   8  10 5222.02 473.651  12
   0   9 -17 4292.90 435.203   9
   0   9 -17 4565.19 454.639  10
   0   9 -16 6249.96 608.574  10
   0   9 -16 7164.42 644.217   9
   0   9 -15 10782.7 858.748  10
   0   9 -14 1345.25 315.549   7
   0   9 -14 1477.36 383.600  10
   0   9 -13 3369.49 481.293   7
   0   9 -13 3471.26 511.064  10
   0  -9  12 12882.2 986.685  18
   0   9 -12 11256.7 896.367  10
   0   9 -11 35087.6 1525.72  10
   0  -9  11 32236.1 1323.58  13
   0  -9  11 32398.5 1509.24  18
   0   9 -11 30567.4 1625.65  14
   0  -9  10 4192.77 494.151  13
   0  -9   9 439.541 223.751  13
   0   9  -9 282.808 173.724  24
   0   9  -8 97333.6 2069.48  24
   0  -9   8 92698.9 2107.57  13
   0  -9   7 3705.88 436.473  13
   0   9  -7 4342.65 446.440  24
   0   9  -6 8837.56 620.491  24
   0  -9   6 8792.37 643.595  13
   0   9  -5 0.35761 145.687  24
   0  -9   5-89.0912 207.503  13
   0   9  -4 89504.7 1938.40  24
   0  -9   4 92286.7 2016.21  13
   0   9  -3 59646.1 1620.38  24
   0   9  -2 29081.1 1166.09  24
   0   9  -1 41073.4 1425.68  24
   0  -9   0 327.409 210.566   8
   0  -9  -1 9514.00 828.292   8
   0  -9  -2 5970.38 588.754  26
   0  -9  -2 7247.45 768.199   8
   0  -9  -3 34656.6 1472.26  26
   0   9   3 34527.8 1616.94   4
   0  -9  -3 35909.6 1751.28   8
   0   9   3 36858.0 1660.82  12
   0  -9  -3 36112.0 1560.97   9
   0   9   4 8522.40 840.057   4
   0  -9  -4 9392.39 811.549  26
   0   9   4 9130.19 869.686  12
   0  -9  -4 8596.98 794.510   9
   0  -9  -4 8136.35 883.056   8
   0  -9  -5 4898.11 617.087   9
   0   9   5 3897.18 575.882   4
   0   9   5 4692.06 660.641  12
   0  -9  -6 44713.4 1772.21   9
   0   9   6 47416.1 1848.43   4
   0   9   6 47191.6 1899.25  12
   0   9   7 3451.64 543.607  12
   0  -9  -7 3735.79 505.748   9
   0  -9  -8 7260.77 625.232   9
   0   9   8 8492.26 724.648  12
   0   9   9 84.6288 148.542  12
   0  -9  -9 162.933 131.453   9
   0  10 -17 5154.50 479.792   5
   0  10 -17 4920.99 467.103  10
   0  10 -16 1567.17 344.898  10
   0  10 -15 23506.6 1231.56  10
   0  10 -15 24007.0 1162.17   7
   0  10 -14-91.6072 174.131   7
   0  10 -14 184.131 282.509  10
   0  10 -13 16905.2 1114.61  10
   0  10 -12 11905.1 933.320  10
   0 -10  12 13936.6 1029.33  18
   0 -10  11-83.1903 212.283  13
   0 -10  11-219.703 291.783  18
   0  10 -11-342.699 252.478  14
   0  10 -11 132.600 185.385  10
   0 -10  10 48816.6 1668.68  13
   0  10 -10 43698.7 1979.93  14
   0  10 -10 45390.0 1733.95  10
   0  10  -9 3419.62 434.304  24
   0 -10   9 3436.13 474.672  13
   0  10  -8 1130.87 276.694  24
   0 -10   8 851.646 273.421  13
   0 -10   7 154.000 187.922  13
   0  10  -7 233.575 189.856  24
   0  10  -6 62246.7 1732.39  24
   0 -10   6 58199.9 1742.90  13
   0 -10   5 10867.3 765.476  13
   0  10  -5 11467.2 760.297  24
   0 -10   4 38929.9 1415.03  13
   0  10  -4 38781.1 1395.22  24
   0 -10   3 25895.9 1162.07  13
   0  10  -3 25135.4 1146.25  24
   0  10  -2 3796.31 485.731  24
   0  10  -1 30378.0 1323.09  24
   0  10   0 2544.27 444.160  24
   0  10   1 17408.8 1140.39   4
   0  10   1 16259.7 1079.24  12
   0  10   2 2073.79 452.021   4
   0  10   2 1785.79 401.614  12
   0 -10  -2 1773.72 368.026   9
   0  10   3 19052.3 1233.78   4
   0 -10  -3 18261.1 1126.31   9
   0  10   3 18890.6 1221.71  12
   0  10   4 23201.8 1343.49   4
   0  10   4 25264.2 1408.95  12
   0 -10  -4 22210.8 1245.20   9
   0 -10  -5 4184.32 551.505   9
   0  10   5 3561.46 591.231  12
   0  10   5 3605.05 547.338   4
   0  10   6 199.925 271.533  12
   0 -10  -6 392.459 219.083   9
   0 -10  -7 3632.22 434.778   9
   0  10   7 3938.39 515.520  12
   0 -10  -8 12364.0 655.890   9
   0  10   8 15148.9 814.812  12
   0  11 -17 1787.44 283.387  10
   0  11 -16 142.873 208.048  10
   0  11 -15 4438.28 545.582  10
   0  11 -15 4377.42 510.319   7
   0  11 -14 1532.89 377.144  10
   0  11 -14 1048.12 288.436   7
   0  11 -13 1700.50 417.233  10
   0  11 -12 1743.37 417.673  10
   0 -11  11 23282.5 1206.44  13
   0 -11  11 24156.2 1357.25  18
   0  11 -11 23254.0 1515.94  14
   0  11 -11 23886.0 1309.17  10
   0 -11  10 29079.5 1350.78  13
   0  11 -10 27434.9 1633.54  14
   0  11 -10 31325.6 1476.30  10
   0  11  -9 3268.32 502.861  10
   0  11  -9 3011.98 567.726  14
   0  11  -9 3138.05 436.681  24
   0 -11   9 3243.66 488.046  13
   0  11  -8 27889.5 1352.74  10
   0  11  -8 29862.9 1630.90  14
   0 -11   8 27958.7 1307.10  13
   0  11  -8 28502.5 1255.81  24
   0  11  -7 18267.6 1015.17  24
   0 -11   7 17269.4 1023.94  13
   0 -11   6 2304.17 409.089  13
   0  11  -6 1925.30 349.859  24
   0  11  -5 429.513 221.738  24
   0 -11   5 214.272 247.005  13
   0 -11   4 9555.13 767.438  13
   0  11  -4 9066.49 738.342  24
   0  11  -3 38699.0 1516.56  24
   0 -11   3 41270.2 1550.67  13
   0  11  -2 2599.22 425.318  24
   0 -11   2 3355.77 476.904  13
   0 -11   2 2175.74 392.308  17
   0  11  -2 3508.55 519.715   4
   0 -11   1 10561.4 803.115  13
   0  11  -1 8700.58 804.613   4
   0  11  -1 9364.76 804.386  24
   0  11  -1 8147.14 747.325  12
   0  11   0 1438.69 383.534   4
   0 -11   0 2217.80 394.547  13
   0  11   0 3220.15 504.561  24
   0  11   0 2446.92 458.197  12
   0  11   1 665.928 275.484  24
   0  11   1-33.9055 186.642  12
   0  11   2 5584.54 683.582  12
   0  11   2 5105.51 672.823   4
   0  11   3 20219.1 1247.83  12
   0  11   3 17982.5 1198.46   4
   0 -11  -3 19177.9 1128.24   9
   0  11   4-118.745 247.951  12
   0 -11  -4-270.322 193.670   9
   0  11   5 227.312 243.370  12
   0 -11  -5 247.674 198.600   9
   0  11   6 13441.9 870.030  12
   0 -11  -7 5803.17 503.527  17
   0  12 -17 157.396 128.167  10
   0  12 -16 1096.42 265.859  10
   0  12 -15 15520.6 945.630  10
   0  12 -15 14573.5 869.600   7
   0  12 -14 4668.04 561.288   7
   0  12 -14 4831.60 589.898  10
   0  12 -13 18803.0 1147.72  10
   0  12 -12 4141.09 574.268  10
   0  12 -11 259.724 306.204  14
   0  12 -11 656.941 305.743  10
   0  12 -10 43830.1 1781.86  10
   0 -12  10 40982.1 1646.42  13
   0  12 -10 39713.9 2010.48  14
   0  12  -9 4890.56 723.394  14
   0 -12   9 5601.82 634.566  13
   0  12  -9 4823.82 600.596  10
   0 -12   8 2237.35 403.662  13
   0  12  -8 1375.17 417.995  14
   0  12  -8 2243.75 381.410  24
   0  12  -8 2754.44 468.901  10
   0 -12   7 1797.69 406.931  13
   0  12  -7 1319.29 292.674  24
   0  12  -7 2024.22 434.478  10
   0  12  -7 1792.62 453.302  14
   0  12  -6 23026.9 1209.63  24
   0  12  -6 24143.0 1464.59  14
   0 -12   6 25904.4 1299.50  13
   0  12  -5 23144.1 1218.35  24
   0 -12   5 23195.6 1228.95  13
   0  12  -5 22540.9 1367.71  14
   0 -12   5 22720.2 1196.11  17
   0  12  -5 25475.8 1242.89  22
   0  12  -4 13625.4 954.539  24
   0 -12   4 14209.1 966.280  17
   0 -12   4 16373.8 1036.17  13
   0 -12   3 172.232 185.335  13
   0 -12   3 164.819 176.626  17
   0  12  -3-38.8924 218.820  24
   0 -12   2 2078.78 413.852  13
   0 -12   2 2172.13 424.334  17
   0  12  -2 2267.70 422.909  24
   0 -12   1 52670.0 1806.19  13
   0 -12   1 54149.5 1982.53  17
   0  12  -1 53423.0 1930.24  24
   0  12  -1 51662.3 1986.11   4
   0 -12   0 3620.32 563.026  17
   0  12   0 3228.01 535.747   4
   0  12   1 111.885 242.872  12
   0  12   2 2856.21 491.005  12
   0  12   3 6685.17 689.473  12
   0 -12  -4 13745.2 917.808  17
   0 -12  -5 1549.57 333.363  17
   0 -12  -6-36.2689 150.882  17
   0  13 -17 1170.55 221.197  10
   0  13 -16 663.638 216.319  10
   0  13 -16 695.661 179.167   7
   0  13 -15 4645.30 524.358  10
   0  13 -15 5619.16 527.969   7
   0  13 -14 943.716 300.331  10
   0  13 -13 339.951 241.811  10
   0  13 -12 35022.5 1570.74  10
   0  13 -11 576.931 336.447  14
   0  13 -11 700.831 336.311  10
   0  13 -10 588.380 324.500  10
   0  13 -10 353.662 342.570  14
   0  13  -9 60.5772 231.557  10
   0  13  -9-592.322 346.009  14
   0 -13   8 16478.7 1072.25  13
   0  13  -8 15735.6 1249.86  14
   0  13  -8 13807.8 1013.20  10
   0 -13   7 2617.05 449.234  13
   0  13  -7 1716.62 396.776  10
   0  13  -7 2591.74 456.621  24
   0  13  -7 1840.61 471.637  14
   0  13  -6-183.201 178.304  24
   0  13  -6-4.61801 273.498  14
   0 -13   6-49.9277 237.267  13
   0  13  -5 246.749 206.301  24
   0 -13   5 44.7550 147.917  17
   0  13  -5-101.355 185.775  22
   0 -13   5 122.207 199.974  13
   0 -13   4 19208.5 1146.31  17
   0 -13   4 19508.8 1161.54  13
   0 -13   3 12715.1 953.727  17
   0 -13   2 234.825 204.433  17
   0 -13   1 156.116 220.380  17
   0 -13   0 271.217 225.166  17
   0 -13  -1 139.760 209.113  17
   0 -13  -2 20076.3 1130.60  17
   0 -13  -3 375.121 255.063  17
   0 -13  -4 638.891 204.821  17
   0 -13  -5 265.452 133.444  17
   0  14 -16 279.901 161.600  10
   0  14 -15 573.418 201.898   7
   0  14 -15 568.664 225.527  10
   0  14 -14 6595.15 623.196  10
   0  14 -13 2449.94 431.279  10
   0  14 -12 429.759 280.425  10
   0  14 -11-0.58431 231.921  10
   0  14 -10 31064.4 1499.53  10
   0  14 -10 29685.2 1713.78  14
   0  14  -9 609.417 299.176  10
   0  14  -9 283.110 309.405  14
   0  14  -8-376.884 290.587  14
   0  14  -8 36.6056 227.263  10
   0  14  -7 172.008 226.972  10
   0  14  -7-76.2908 248.850  14
   0  14  -6 27146.2 1519.20  14
   0  14  -5 42137.4 1627.29  22
   0 -14   5 42763.5 1661.58  17
   0 -14   4 7992.05 748.605  17
   0  14  -4 8432.87 758.861  22
   0 -14   3 2659.65 465.440  17
   0 -14   2 1137.38 342.871  17
   0 -14   1 1927.16 382.477  17
   0 -14   0 3544.83 500.487  17
   0 -14  -1 268.501 196.464  17
   0 -14  -2 3446.17 437.466  17
   0 -14  -3 4709.60 446.888  17
   0  15 -15 205.334 154.281  10
   0  15 -15 155.328 152.795   7
   0  15 -14 622.598 238.351  10
   0  15 -13 1758.27 343.151  10
   0  15 -12 16478.2 998.714  10
   0  15 -11 1138.02 305.082  10
   0  15 -10 362.302 256.476  10
   0  15  -9 82.2346 265.608  14
   0  15  -9 226.605 250.329  10
   0  15  -8 12140.3 1038.42  14
   0  15  -8 12394.5 945.883  10
   0  15  -7 6449.78 745.650  14
   0  15  -7 4820.50 610.127  10
   0  15  -6 1552.12 377.909  10
   0 -15   5 4203.08 520.082  17
   0  15  -5 3355.97 460.331  22
   0 -15   4 9270.67 758.053  17
   0  15  -4 9135.27 736.273  22
   0 -15   3 12459.8 863.177  17
   0  15  -3 13151.5 874.889  22
   0  15  -2 2230.97 381.541  22
   0 -15   2 2033.94 381.334  17
   0  15  -1 195.497 206.508  22
   0 -15   1 448.256 221.764  17
   0 -15   0 27.0746 149.085  17
   0  15   0-18.4237 145.703  22
   0  15   1 5463.81 479.908  22
   0 -15  -1 5412.16 474.682  17
   0  15   2 8088.49 501.101  22
   0  16 -14 627.553 172.219   7
   0  16 -14 1038.50 225.791  10
   0  16 -13 378.942 192.504  10
   0  16 -12 757.730 266.883  10
   0  16 -11-8.60449 183.857  10
   0  16 -10 9637.30 761.401  10
   0  16  -9 7391.56 682.992  10
   0  16  -8 481.716 271.443  10
   0  16  -7 159.112 238.993  10
   0  16  -6 970.230 305.289  10
   0  16  -5 15593.6 956.667  10
   0  16  -4 39.8826 179.645  10
   0  16  -4 236.072 170.490  22
   0 -16   3 1876.92 303.108  17
   0  16  -3 1764.89 306.074  22
   0 -16   2-124.054 127.053  17
   0  16  -2-97.3695 119.785  22
   0  16  -1 2576.67 320.201  22
   0 -16   1 2131.95 298.378  17
   0  17 -13 1803.79 260.086  10
   0  17 -12 1839.95 291.126  10
   0  17 -11 879.687 237.709  10
   0  17 -10 4209.44 456.448  10
   0  17  -9 733.444 240.642  10
   0  17  -8 2055.55 342.695  10
   0  17  -7 9387.97 667.517  10
   0  17  -6 2672.72 380.278  10
   0  17  -5 153.186 181.405  10
   0  17  -4 2337.01 318.015  10
   0  17  -3 4009.41 376.402  10
   0  18 -10 2104.23 272.108  10
   0  18  -9 6154.65 449.912  10
   0  18  -8-67.6117 116.773  10
   0  18  -7 449.173 154.139  10
  -1  18  -7-48.6041 93.6702  10
  -1  18  -8 1259.63 219.070  10
  -1  18  -9 1186.70 202.873  10
  -1  17  -3 4177.05 396.013  10
  -1  17  -3 4146.28 372.789  22
  -1  17  -4 221.125 150.241  10
  -1  17  -4 207.330 123.299  22
  -1  17  -5 218.527 143.699  10
  -1  17  -5 200.455 126.517  22
  -1  17  -6 415.497 156.528  22
  -1  17  -6 244.113 136.249  10
  -1  17  -7 19063.9 933.920  10
  -1  17  -8 6267.13 554.304  10
  -1  17  -9-39.2632 160.193  10
  -1  17 -10 4997.27 473.913  10
  -1  17 -11 321.394 148.493  10
  -1  17 -12 15552.7 729.520  10
  -1  16   0 2122.64 276.529  22
  -1  16  -1 3000.48 360.259  22
  -1  16  -2 165.335 145.345  22
  -1  16  -3 733.241 236.419  22
  -1  16  -4 1506.02 301.140  22
  -1  16  -5 23075.3 1081.27  22
  -1  16  -5 20400.5 1092.29  10
  -1  16  -6-222.172 216.797  10
  -1  16  -6 9.00880 139.624  22
  -1  16  -7 86.1364 185.242  10
  -1  16  -7 347.051 175.423  22
  -1  16  -8 3928.38 510.320  10
  -1  16  -9 318.448 229.524  10
  -1  16 -10 7998.72 676.927  10
  -1  16 -11-16.6332 172.552  10
  -1  16 -12 1348.59 294.802  10
  -1  16 -13 531.888 185.887  10
  -1  16 -14 3534.22 347.970  10
  -1  16 -14 3997.34 383.856   7
  -1  15   2 6741.33 481.968  22
  -1  15   1 3600.56 406.125  22
   1 -15  -1 3508.64 372.378  17
  -1  15   0-314.771 201.903  22
   1 -15   0-181.209 147.289  17
   1 -15   1 232.697 155.165  17
  -1  15  -1 482.978 230.898  22
  -1  15  -2 9097.25 738.198  22
  -1  15  -3 8535.45 736.443  22
  -1  15  -4 154.055 188.042  22
  -1  15  -5 3043.02 435.634  22
  -1  15  -6 741.488 221.241  22
  -1  15  -6 806.147 365.316  10
  -1  15  -7 1725.78 368.496  22
  -1  15  -7 1201.31 352.649  10
  -1  15  -8 7656.15 747.354  10
  -1  15  -9 13289.8 959.992  10
  -1  15 -10 229.540 201.050  10
  -1  15 -11-101.392 188.058  10
  -1  15 -12 4082.20 504.293  10
  -1  15 -13 676.270 218.101  10
  -1  15 -14-8.51872 141.522   7
  -1  15 -14 40.2833 133.524  10
  -1  15 -15 1814.01 261.028  10
  -1  15 -15 2023.12 281.693   7
   1 -14  -3 7767.11 546.868  17
  -1  14   3 8640.50 596.028  22
   1 -14  -2 1597.10 300.528  17
   1 -14  -1 8280.53 680.960  17
   1 -14   0 9974.86 770.140  17
   1 -14   1 8564.46 724.227  17
   1 -14   2 434.823 193.333  17
  -1  14  -2-62.4860 219.309  22
  -1  14  -3 542.012 290.237  22
  -1  14  -4 104.175 198.920  22
  -1  14  -5 10314.5 850.381  22
  -1  14  -6 269.885 183.482  22
  -1  14  -7 290.757 283.018  10
  -1  14  -7 428.619 227.041  22
  -1  14  -8 1155.90 355.037  10
  -1  14  -9-33.0519 221.722  10
  -1  14 -10 7498.46 744.307  10
  -1  14 -11 3716.09 533.933  10
  -1  14 -12 6916.36 672.659  10
  -1  14 -13 4996.42 547.576  10
  -1  14 -14 3002.42 406.183  10
  -1  14 -14 2984.68 434.988   7
  -1  14 -15 3176.32 372.288  10
  -1  14 -15 3101.15 381.926   7
  -1  14 -16 954.351 186.220  10
   1 -13  -5 712.800 182.840  17
   1 -13  -4 3733.35 438.960  17
   1 -13  -3 7299.02 644.432  17
   1 -13  -2 7692.85 694.847  17
  -1  13   1 609.285 289.294   4
   1 -13  -1 564.418 275.298  17
  -1  13   0 113.628 258.976   4
   1 -13   0 493.285 254.381  17
  -1  13  -1 205.359 214.817   4
   1 -13   1 164.399 199.129  17
  -1  13  -2 824.107 290.527   4
   1 -13   2 710.365 253.950  17
  -1  13  -4 329.335 228.072  22
  -1  13  -5 4483.21 583.255  22
  -1  13  -5 5950.59 672.165  24
   1 -13   5 5642.34 644.984  13
  -1  13  -6 13029.7 956.670  24
   1 -13   6 11716.6 906.173  13
  -1  13  -6 11394.8 884.867  22
  -1  13  -6 11554.5 1020.93  14
  -1  13  -7 364.486 206.082  22
  -1  13  -7 126.956 277.760  10
  -1  13  -7 257.453 197.215  24
  -1  13  -7-258.439 234.879  14
   1 -13   7 618.453 238.083  13
  -1  13  -8-158.757 281.849  14
  -1  13  -8 168.629 233.420  10
  -1  13  -9 13519.7 1012.99  10
  -1  13 -10 383.471 286.701  10
  -1  13 -11 2335.10 444.122  10
  -1  13 -12 6984.67 703.149  10
  -1  13 -13 112.359 188.931  10
  -1  13 -14 2284.63 396.820   7
  -1  13 -14 1928.86 364.671  10
  -1  13 -15 3950.80 452.305   7
  -1  13 -15 4725.24 481.248  10
  -1  13 -16-239.460 148.946   7
  -1  13 -16 285.689 133.321  10
   1 -12  -6 1798.45 300.475  17
  -1  12   5 529.890 223.146  12
  -1  12   4 4739.94 552.358  12
  -1  12   3 3678.58 570.936   4
  -1  12   3 2505.21 441.737  12
  -1  12   2 3610.34 558.608   4
  -1  12   2 2989.06 492.827  12
  -1  12   1 119.476 176.413  12
  -1  12   1 101.568 239.144   4
  -1  12   0 5042.21 597.558  12
  -1  12   0 5098.53 675.858   4
   1 -12   1 4159.28 551.086  17
  -1  12  -1 3957.37 546.320  24
  -1  12  -1 3710.92 564.488   4
  -1  12  -2-114.576 219.186   4
   1 -12   2 747.059 281.326  17
   1 -12   2 335.260 263.788  13
  -1  12  -2 540.687 263.752  24
  -1  12  -3 6558.15 686.134  24
   1 -12   3 8503.91 773.839  13
   1 -12   4 2459.51 444.795  13
  -1  12  -4 2118.26 396.879  22
  -1  12  -4 1955.08 409.230  24
   1 -12   5 27685.8 1350.87  13
  -1  12  -5 27250.8 1343.50  22
  -1  12  -5 26838.7 1342.01  24
  -1  12  -6 16360.2 1032.98  22
   1 -12   6 16758.1 1047.88  13
  -1  12  -6 17830.7 1089.84  24
  -1  12  -6 15824.7 1182.37  14
   1 -12   7 1001.67 306.621  13
  -1  12  -7 1473.44 357.708  22
  -1  12  -7 1104.13 324.949  10
  -1  12  -7 1348.83 340.178  24
  -1  12  -7 1021.42 339.014  14
  -1  12  -8 840.996 299.201  24
  -1  12  -8 537.747 296.458  10
   1 -12   8 1134.53 330.424  13
  -1  12  -8 965.838 370.912  14
   1 -12   9 3022.50 454.621  13
  -1  12  -9 2233.42 529.369  14
  -1  12  -9 1974.16 387.395  24
  -1  12  -9 2168.43 412.014  10
  -1  12 -10 71766.3 2255.96  10
  -1  12 -10 62801.1 2001.05  24
  -1  12 -11 1149.89 314.037  10
  -1  12 -12 4241.84 555.623  10
  -1  12 -13 9764.67 816.292  10
  -1  12 -14-320.649 197.952  10
  -1  12 -14 154.398 231.215   7
  -1  12 -15 2866.98 415.233   7
  -1  12 -15 2559.31 382.268  10
  -1  12 -16-138.033 147.101   7
  -1  12 -16 173.526 137.181  10
  -1  11   7 491.388 203.505  12
  -1  11   6 31746.7 1337.99  12
  -1  11   5 1989.97 408.108  12
  -1  11   5 1554.79 391.278   4
  -1  11   4 124.093 218.768  12
  -1  11   4-158.390 274.270   4
  -1  11   3 25572.4 1433.57   4
  -1  11   3 26767.9 1399.64  12
  -1  11   2 57265.9 2039.48  12
  -1  11   2 53686.7 2068.15   4
  -1  11   1 18814.4 1149.92  24
  -1  11   1 19855.6 1257.47   4
  -1  11   1 17238.6 1113.88  12
  -1  11   0 4751.26 593.503  24
  -1  11   0 3687.38 530.116  12
  -1  11   0 4279.75 604.290   4
  -1  11  -1 29472.8 1395.36  24
  -1  11  -1 29351.9 1429.41   4
  -1  11  -2 12626.7 907.662  24
  -1  11  -3 10932.1 838.450  24
   1 -11   4 10587.9 817.009  13
  -1  11  -4 10766.2 820.538  24
  -1  11  -5 6559.69 655.290  24
   1 -11   5 6133.01 623.347  13
   1 -11   6 19384.4 1076.31  13
  -1  11  -6 16856.4 1011.79  24
  -1  11  -7 37.4606 170.263  24
   1 -11   7 65.8078 178.382  13
   1 -11   8 16012.4 983.638  13
  -1  11  -8 14797.0 1173.85  14
  -1  11  -8 17259.3 1075.48  10
  -1  11  -8 17519.4 1038.66  24
  -1  11  -9 15350.8 980.889  24
   1 -11   9 12932.6 886.942  13
  -1  11  -9 13581.7 970.550  10
  -1  11  -9 13251.7 1142.06  14
  -1  11 -10 24352.3 1234.93  24
   1 -11  10 21778.2 1130.72  13
  -1  11 -10 25685.7 1333.80  10
   1 -11  11 14284.3 1047.59  18
  -1  11 -11 16041.5 1076.34  10
  -1  11 -12 20255.3 1196.36  10
  -1  11 -13 647.850 271.180  10
  -1  11 -14-8.24977 210.375   7
  -1  11 -14 885.436 297.426  10
  -1  11 -15 11762.0 825.247   7
  -1  11 -15 11341.4 797.061  10
  -1  11 -16 572.159 178.479  10
  -1  11 -16 357.771 161.374   7
  -1  11 -17 10824.3 572.846  10
  -1  10   8 2762.55 376.650  12
  -1  10   7-28.7149 198.610  12
  -1  10   6 8263.95 787.859  12
  -1  10   6 6296.73 680.399   4
  -1  10   5 16423.0 1116.98  12
  -1  10   5 14154.1 1052.75   4
  -1  10   4 4330.38 616.314  12
  -1  10   4 4033.86 616.558   4
  -1  10   3 14451.4 1086.75   4
  -1  10   3 16898.8 1137.70  12
  -1  10   3 17937.4 1114.58  24
   1 -10  -3 18077.0 1254.38   8
   1 -10  -2 1996.47 450.402   8
  -1  10   2 2668.34 459.719  12
  -1  10   2 2764.78 508.991   4
  -1  10   2 2962.38 482.551  24
  -1  10   1 543.932 252.407   4
  -1  10   1 554.589 246.076  12
  -1  10   1 531.887 246.711  24
   1 -10  -1 716.560 242.312   8
  -1  10   0 9018.17 755.002  24
  -1  10  -1 12144.1 856.645  24
  -1  10  -2 4577.99 527.265  24
  -1  10  -3 12608.8 841.539  24
  -1  10  -4 78367.9 2038.89  24
  -1  10  -5 59842.5 1781.42  24
   1 -10   5 61496.6 1790.32  13
  -1  10  -6 6935.13 621.196  24
   1 -10   6 6448.29 594.667  13
  -1  10  -7 13285.6 850.765  24
   1 -10   7 15895.6 917.919  13
   1 -10   8 27717.5 1219.83  13
  -1  10  -8 27864.5 1245.70  24
   1 -10   9 28106.9 1228.46  13
  -1  10  -9 28056.1 1272.62  24
  -1  10  -9 27519.6 1563.41  14
  -1  10 -10 11770.2 845.303  24
  -1  10 -10 13648.3 952.599  10
  -1  10 -11 182.208 202.684  10
   1 -10  11 397.910 250.242  18
  -1  10 -12 8311.22 781.200  10
  -1  10 -13 6410.52 683.148  10
  -1  10 -13 6935.67 730.106   7
  -1  10 -14 382.549 258.149   7
  -1  10 -14 1159.66 341.815  10
  -1  10 -15 11120.8 850.922   5
  -1  10 -15 11230.0 820.327   7
  -1  10 -15 11437.8 813.975  10
  -1  10 -16 658.087 207.250  10
  -1  10 -16 371.748 178.148   7
  -1  10 -17 1673.93 280.267   5
  -1   9   9 4661.10 492.440  12
  -1   9   8 4298.26 542.916  12
  -1   9   7 3026.02 495.876   4
  -1   9   7 2580.92 496.818  12
  -1   9   6 18115.3 1167.19   4
  -1   9   6 18208.0 1199.16  12
  -1   9   5 4125.81 611.101  12
  -1   9   5 5274.03 672.022   4
   1  -9  -4 741.685 306.345   8
  -1   9   4 128.255 225.129   4
  -1   9   4 455.563 261.655  12
  -1   9   3 12655.9 982.010   4
  -1   9   3 12204.2 937.477  12
   1  -9  -3 13519.6 1064.40   8
   1  -9  -2 2210.17 432.472   8
  -1   9   2 3112.94 464.972  24
  -1   9   1 14303.1 906.976  24
   1  -9  -1 13489.6 931.873   8
  -1   9   0 5765.18 572.794  24
   1  -9   0 5280.11 556.061   8
  -1   9  -1 67957.8 1838.16  24
  -1   9  -2 125713. 2447.87  24
  -1   9  -3 64636.6 1734.13  24
  -1   9  -4 987.042 279.048  24
   1  -9   5 5250.04 513.597  13
  -1   9  -5 5867.03 545.319  24
  -1   9  -6 38484.9 1337.48  24
   1  -9   6 39972.4 1336.68  13
   1  -9   7 4663.45 487.197  13
  -1   9  -7 4858.58 495.783  24
  -1   9  -8 37496.5 1375.87  24
   1  -9   8 39853.4 1361.63  13
   1  -9   9 3294.93 408.933  13
  -1   9  -9 2754.04 409.575  24
   1  -9  10 2858.54 449.854  18
  -1   9 -10 3683.99 475.627  24
  -1   9 -10 3921.74 512.607  10
   1  -9  11 18557.9 1144.63  18
  -1   9 -11 20771.7 1171.34  10
  -1   9 -12 11686.9 897.550  10
   1  -9  12 14331.0 1033.08  18
  -1   9 -13 1355.61 357.170   7
  -1   9 -13 991.389 329.052  10
  -1   9 -14-78.8984 240.310  10
  -1   9 -14 147.558 201.322   7
  -1   9 -15 32038.7 1367.15   7
  -1   9 -15 32617.1 1373.10  10
  -1   9 -16 6833.42 651.639   5
  -1   9 -16 7749.13 611.786   7
  -1   9 -16 6898.82 580.151  10
  -1   9 -17 4136.15 447.779   5
  -1   8  10 33302.6 1243.65  12
  -1   8   9 2900.01 458.783  12
  -1   8   8 18588.4 1167.56  12
  -1   8   8 18146.5 1073.37   4
   1  -8  -8 16024.5 984.148   9
  -1   8   7 239.875 255.107  12
  -1   8   7 520.171 255.125   4
  -1   8   6 31580.3 1555.81   4
  -1   8   6 30717.0 1568.12  12
  -1   8   5 15739.3 1099.09   4
  -1   8   5 16085.2 1119.79  12
   1  -8  -5 16472.8 1237.12   8
  -1   8   4 2295.67 428.242  12
   1  -8  -4 2717.96 549.471   8
   1  -8  -3 2077.06 435.777   8
   1  -8  -2 2644.05 446.055   8
   1  -8  -1 68073.0 1960.68   8
   1  -8   0 13044.0 804.496   8
  -1   8   0 13743.1 792.896  24
   1  -8   1 13028.9 730.055   8
  -1   8  -1 12622.0 747.471  24
  -1   8  -2 116.440 175.115  24
  -1   8  -3 34029.3 1158.69  24
  -1   8  -4 364720. 3753.51  24
   1  -8   5 175.854 175.665  13
  -1   8  -5 115.628 160.920  24
  -1   8  -6 39002.1 1259.25  24
   1  -8   6 38222.6 1211.65  13
   1  -8   7 2408.15 332.520  13
  -1   8  -7 2155.84 338.413  24
  -1   8  -8 11145.9 722.636  24
   1  -8   8 10190.2 652.592  13
  -1   8  -9 11958.6 775.658  24
   1  -8  10 18046.2 1072.00  18
   1  -8  11 6767.87 696.996  18
  -1   8 -11 6174.93 638.774  10
   1  -8  12 11896.9 932.472  18
  -1   8 -12 10716.2 881.088   7
  -1   8 -12 11386.9 882.929  10
  -1   8 -13 23210.8 1284.96   7
  -1   8 -13 22472.0 1243.97  10
  -1   8 -14 15357.4 1016.00   7
  -1   8 -14 13613.3 946.615  10
  -1   8 -15 16565.3 995.954   7
  -1   8 -15 18278.0 1029.97  10
  -1   8 -16 1364.43 286.230   7
  -1   8 -16 1389.62 274.970  10
  -1   8 -17 1636.13 309.481   5
  -1   7  11-259.830 171.582  12
   1  -7 -11 156.175 144.198   9
   1  -7 -10 883.342 247.840   9
  -1   7  10 954.820 298.802  12
  -1   7   9 6612.01 719.694  12
   1  -7  -9 7241.18 685.421   9
  -1   7   8 29765.6 1430.88   4
  -1   7   8 27526.0 1471.17  12
   1  -7  -8 26773.9 1355.42   9
  -1   7   7 9156.22 835.611   4
   1  -7  -7 9902.81 835.626   9
  -1   7   7 9582.56 887.561  12
  -1   7   6 31939.4 1516.92   4
  -1   7   6 31993.2 1562.63  12
   1  -7  -6 35095.6 1797.72   8
   1  -7  -6 31370.0 1440.24   9
   1  -7  -5 197.384 225.177   8
  -1   7   5 642.384 248.302   4
  -1   7   5 441.177 266.275  12
  -1   7   4 5025.24 499.464  23
   1  -7  -4 5153.71 644.945   8
   1  -7  -3 47125.5 1752.00   8
  -1   7   3 50919.9 1539.07  23
   1  -7  -2 10652.3 794.641   8
  -1   7   2 9902.41 667.624  23
   1  -7  -1 27150.8 1151.97   8
  -1   7   1 27081.8 1049.90  23
   1  -7   0 494.745 171.941   8
  -1   7   0 1305.40 269.128  23
  -1   7  -1 49.9963 146.745  24
   1  -7   1 153.849 126.240   8
  -1   7  -2 84198.5 1668.10  24
  -1   7  -3 31766.8 1021.74  24
  -1   7  -4 12133.6 639.509  24
  -1   7  -4 12159.7 609.715  21
  -1   7  -5 694.260 167.277  21
  -1   7  -5 902.962 213.398  24
   1  -7   5 664.899 188.019  13
  -1   7  -6 35440.4 1124.31  24
   1  -7   6 35771.9 1089.24  13
  -1   7  -7 21766.8 918.736  24
   1  -7   7 19635.3 816.192  13
   1  -7   8 8349.91 549.137  13
  -1   7  -8 8348.89 597.742  24
   1  -7   9 5838.18 580.801  18
   1  -7  10 1582.56 363.661  18
  -1   7 -11 29155.1 1336.41  10
   1  -7  11 27953.7 1357.29  18
  -1   7 -12 18.1598 160.678   7
  -1   7 -12 414.376 231.300  10
   1  -7  12 80.3688 227.875  18
  -1   7 -13 37601.4 1580.51  10
  -1   7 -13 36700.9 1590.48   7
  -1   7 -14 2683.65 457.188  10
  -1   7 -14 2670.93 447.132   9
  -1   7 -14 2923.57 468.986   7
  -1   7 -15 6281.33 624.610   7
  -1   7 -15 6532.76 641.658   9
  -1   7 -15 6397.33 627.262  10
  -1   7 -16 7596.75 619.950   9
  -1   7 -16 7953.23 607.837   7
  -1   7 -17 821.174 236.549   5
   1  -6 -12 460.276 154.117   9
  -1   6  12 249.626 150.108  12
   1  -6 -11-194.210 177.730   9
  -1   6  11-91.3889 203.877  12
   1  -6 -10 10009.8 815.450   9
  -1   6  10 10051.0 860.818  12
  -1   6   9 2528.04 477.550  12
   1  -6  -9 1768.94 381.979   9
  -1   6   8 39843.0 1654.58   4
  -1   6   8 43979.6 1858.96  12
   1  -6  -8 42658.1 1747.27   9
   1  -6  -7 2469.84 511.271   8
  -1   6   7 3058.00 513.654  12
   1  -6  -7 3239.57 473.990   9
  -1   6   7 3755.26 536.392   4
   1  -6  -6 10899.9 973.828   8
  -1   6   6 9136.64 810.061  12
   1  -6  -5 16856.0 1133.23   8
  -1   6   4 333.501 175.674  23
   1  -6  -4-22.5265 217.924   8
  -1   6   3 16289.3 801.886  23
   1  -6  -3 16323.1 971.340   8
  -1   6   2 115.796 141.848  23
   1  -6  -2 163.471 176.848   8
  -1   6   1 19152.1 803.642  23
   1  -6  -1 18409.4 874.877   8
   1  -6   0 36661.5 1106.07   8
  -1   6   0 37108.2 1072.13  23
  -1   6  -1 17820.9 709.472  24
  -1   6  -1 18726.5 746.949  23
   1  -6   1 20207.9 734.345   8
  -1   6  -2 3955.97 343.848  24
  -1   6  -3 1247.40 208.323  21
  -1   6  -3 1316.45 222.721  24
  -1   6  -4 82535.3 1513.10  24
  -1   6  -4 81488.0 1424.71  21
   1  -6   5 6043.08 415.418  13
  -1   6  -5 5553.14 418.296  24
  -1   6  -5 5448.27 374.358  21
  -1   6  -6 29168.2 856.132  21
   1  -6   6 28190.7 886.463  13
  -1   6  -6 29405.1 967.985  24
  -1   6  -7 6918.19 508.466  24
   1  -6   7 6556.01 443.086  13
  -1   6  -8 35706.7 1177.78  24
   1  -6   9 11572.6 786.187  18
   1  -6  10 36898.9 1450.37  18
   1  -6  11 4703.04 578.473  18
  -1   6 -12 3234.15 488.145   7
   1  -6  12 3546.14 508.056  18
  -1   6 -12 3194.71 481.909  10
  -1   6 -13 8286.14 760.355   7
  -1   6 -13 7314.49 715.019  10
  -1   6 -14 2480.57 421.324  10
  -1   6 -14 2606.64 452.296   9
  -1   6 -14 2635.20 457.813   7
  -1   6 -15 6898.80 670.662   9
  -1   6 -15 5844.85 588.969   7
  -1   6 -16 385.661 170.692   9
  -1   6 -17 1196.62 275.266   5
  -1   6 -17 1249.76 206.970   9
  -1   5  13 3593.54 360.742  12
   1  -5 -13 3488.38 355.951   9
   1  -5 -12 6660.29 595.580   9
  -1   5  12 6803.03 600.272  12
   1  -5 -11 723.841 283.430   9
  -1   5  11 793.642 285.382  12
  -1   5  10 3914.07 579.454  12
   1  -5 -10 3917.73 557.179   9
  -1   5   9 6485.94 741.655  12
   1  -5  -9 6490.28 699.993   9
   1  -5  -8 5055.77 615.843   9
  -1   5   8 4315.82 596.955  12
   1  -5  -8 5300.01 721.927   8
   1  -5  -7 24429.1 1432.08   8
  -1   5   7 22868.8 1277.31  12
   1  -5  -6 12086.1 969.967   8
  -1   5   5 31237.8 1103.99  23
   1  -5  -5 30405.2 1412.74   8
  -1   5   4 15284.3 751.541  23
  -1   5   3 84071.3 1635.84  23
  -1   5   2 20843.1 787.284  23
  -1   5   2 19324.8 657.226  20
  -1   5   1 8627.42 489.417  23
  -1   5   1 7982.85 431.150  20
  -1   5   0 34795.0 882.152  20
  -1   5   0 36825.2 954.530  23
  -1   5  -1 83066.4 1348.05  20
  -1   5  -1 87282.2 1437.43  23
  -1   5  -1 83167.3 1378.38  24
  -1   5  -2 20451.5 684.428  21
   1  -5   2 21675.8 680.465  20
  -1   5  -2 19075.2 650.956  20
  -1   5  -2 21383.0 693.353  24
   1  -5   3 46932.7 1002.74  20
  -1   5  -3 45127.1 970.864  21
  -1   5  -3 43512.8 985.498  20
  -1   5  -3 43786.6 1009.49  24
  -1   5  -4 647.206 132.960  20
  -1   5  -4 816.183 170.968  24
  -1   5  -4 890.170 155.609  21
  -1   5  -5 35715.1 868.518  21
   1  -5   5 34749.9 875.439  13
  -1   5  -5 34683.4 902.545  20
  -1   5  -5 34131.6 947.430  24
  -1   5  -6 128784. 1926.35  24
   1  -5   6 126999. 1711.58  13
  -1   5  -6 126428. 1737.69  21
  -1   5  -7 50629.3 1282.26  24
   1  -5   7 50571.0 1112.68  13
  -1   5  -7 50913.8 1177.43  21
   1  -5   8 30.7852 178.747  18
   1  -5   9 2738.99 402.098  18
   1  -5  10 22412.6 1120.00  18
   1  -5  11 29302.7 1340.59  18
   1  -5  12 2211.09 438.330  18
  -1   5 -12 1811.42 360.593   7
  -1   5 -12 2345.42 422.846  10
  -1   5 -13 2215.58 426.063   9
  -1   5 -13 1941.98 394.352   7
  -1   5 -13 2164.54 419.187  10
  -1   5 -14 239.681 225.314  10
  -1   5 -14 320.537 196.462   7
  -1   5 -14 270.215 232.861   9
  -1   5 -15 8268.84 682.769   7
  -1   5 -15 8078.80 734.648   9
  -1   5 -16 5700.44 545.085   9
  -1   5 -17 719.252 215.004   5
  -1   5 -17 1199.81 215.092   9
  -1   4  13-67.2673 178.217  12
   1  -4 -13-194.733 174.656   9
  -1   4  12 1109.07 318.037  12
   1  -4 -12 812.582 268.673   9
   1  -4 -11 3010.76 483.993   9
  -1   4  11 3454.81 517.358  12
  -1   4  10 9161.47 851.191  12
   1  -4 -10 9495.88 852.033   9
  -1   4   9 7453.38 765.323  12
   1  -4  -9 9435.08 934.596   8
   1  -4  -9 8397.27 786.455   9
   1  -4  -8 990.856 266.771   9
  -1   4   8 846.349 263.325  12
   1  -4  -8 1342.84 382.054   8
   1  -4  -7 1730.93 392.557   8
  -1   4   5 106338. 1874.06  23
  -1   4   4 25299.7 873.645  23
  -1   4   3 34696.7 955.556  23
  -1   4   2 2475.48 255.035  23
  -1   4   2 2113.92 199.601  20
   1  -4  -1 459.596 113.019  20
  -1   4   1 781.651 152.563  23
  -1   4   1 649.968 126.960  20
  -1   4   0 18097.5 565.321  20
  -1   4   0 18386.9 596.878  23
  -1   4  -1 52717.9 965.858  20
  -1   4  -1 54944.7 1038.13  21
  -1   4  -2 231406. 2015.17  23
  -1   4  -2 236356. 2032.92  20
  -1   4  -2 237955. 2047.72  21
  -1   4  -3 213886. 2019.63  24
  -1   4  -3 214010. 1889.29  21
  -1   4  -3 209871. 1938.05  20
   1  -4   4 1300.19 84.0702  25
  -1   4  -4 1216.65 186.072  24
   1  -4   4 1207.01 156.586  20
  -1   4  -4 1154.37 163.071  21
   1  -4   5 34990.8 790.063  13
  -1   4  -5 34210.0 799.696  20
  -1   4  -5 34651.4 920.795  24
  -1   4  -5 34086.1 850.403  21
  -1   4  -6 73297.6 1342.68  21
   1  -4   6 72250.4 1172.27  13
  -1   4  -6 72258.4 1391.31  24
  -1   4  -6 70862.5 1149.02  20
  -1   4  -7 861.138 172.939  21
   1  -4   7 480.958 189.966  18
  -1   4  -8 73950.0 1574.20  21
   1  -4   8 74649.3 1747.54  18
   1  -4   9 75767.7 1891.62  18
   1  -4  10 1235.72 325.396  18
   1  -4  11 1508.13 356.927  18
  -1   4 -12-139.193 187.333   7
  -1   4 -12 195.754 182.356  10
   1  -4  12 252.229 216.747  18
  -1   4 -12 511.717 278.756   9
  -1   4 -13 11787.6 892.970  10
  -1   4 -13 10360.1 894.993   9
  -1   4 -13 9610.50 804.903   7
  -1   4 -14 604.547 233.914   7
  -1   4 -14 714.945 250.997   9
  -1   4 -15 4413.51 496.336   7
  -1   4 -15 4192.85 538.712   9
  -1   4 -16 5300.87 515.517   9
  -1   4 -17 1406.82 265.357   5
  -1   3  14 997.368 198.312  12
   1  -3 -14 634.051 205.415   9
   1  -3 -13 11272.0 822.490   9
  -1   3  13 10242.8 753.962  12
  -1   3  12 9969.85 832.957  12
   1  -3 -12 9089.83 814.958   9
   1  -3 -11 9622.55 863.159   9
  -1   3  11 9704.96 860.012  12
  -1   3  10 733.926 293.462  12
   1  -3 -10 809.725 290.282   9
   1  -3 -10 1478.43 422.781   8
  -1   3   9 15966.2 1076.82  12
   1  -3  -9 14255.4 1100.46   8
   1  -3  -9 13615.3 984.943   9
  -1   3   8 10.2330 216.020  18
   1  -3  -8 21.2016 225.713   8
  -1   3   7 98580.7 2201.52  18
  -1   3   6 1800.17 255.197  23
  -1   3   6 1495.74 291.059  18
  -1   3   5 15115.9 738.660  18
  -1   3   5 15216.2 659.835  23
  -1   3   4 127.740 148.292  18
  -1   3   4 95.7990 115.967  23
  -1   3   3 8486.38 457.784  18
  -1   3   3 7968.54 421.752  23
  -1   3   2 16481.6 475.746  20
  -1   3   2 17677.1 580.536  23
   1  -3  -2 16856.8 470.813  20
   1  -3  -1 3304.99 219.359  20
  -1   3   1 2583.16 194.101  20
  -1   3   0 784.227 139.402  20
   1  -3   0 775.815 134.112  20
  -1   3  -1 455955. 2487.76  20
  -1   3  -2 632599. 2982.13  20
  -1   3  -2 640705. 2834.11  23
   1  -3   3 27418.8 370.699  25
   1  -3   3 27669.0 613.642  20
  -1   3  -3 26247.6 634.684  21
  -1   3  -3 25996.5 608.038  20
   1  -3   4 320514. 2107.22  20
   1  -3   4 332343. 2557.71  19
  -1   3  -4 321510. 2471.30  24
  -1   3  -4 311232. 2123.87  20
  -1   3  -4 320114. 2402.36  21
   1  -3   4 326362. 2024.62  13
  -1   3  -5 255877. 2408.36  24
   1  -3   5 252495. 1850.27  20
   1  -3   5 255311. 1884.08  13
  -1   3  -5 257687. 2376.37  21
  -1   3  -6 48854.9 1130.76  21
   1  -3   6 46644.3 1169.90  18
  -1   3  -7 30929.1 989.322  21
   1  -3   7 32445.7 1049.40  18
   1  -3   8 79.2925 153.717  18
  -1   3  -8 139.608 126.471  21
   1  -3   9 1938.75 332.656  18
  -1   3  -9 2804.14 362.988  21
   1  -3  10 201.401 175.386  18
   1  -3  11 63365.5 1967.38  18
  -1   3 -11 66091.6 2120.01   9
  -1   3 -11 61679.1 1908.35  10
  -1   3 -11 60534.2 1938.60   7
  -1   3 -12 2792.01 497.830   9
  -1   3 -12 2850.60 462.806  10
   1  -3  12 1957.22 393.548  18
  -1   3 -12 1954.37 388.288   7
  -1   3 -13 334.908 254.065   7
  -1   3 -13 180.192 206.321   9
  -1   3 -14 3169.28 523.249   9
  -1   3 -14 2610.41 429.703   7
  -1   3 -15 364.665 223.266   9
  -1   3 -16 10841.7 711.845   9
   1  -2 -15 1485.18 254.936   9
  -1   2  14 22280.5 988.305  12
   1  -2 -14 23956.3 1134.63   9
   1  -2 -13 7392.07 741.674   9
  -1   2  13 8382.09 730.686  12
   1  -2 -12 9285.69 847.271   9
  -1   2  12 10335.1 872.023  12
   1  -2 -11 3670.59 557.129   9
  -1   2  11 3884.70 555.855  12
   1  -2 -10 75575.0 2355.32   9
   1  -2 -10 70595.3 2419.17   8
  -1   2  10 67585.5 2221.49  12
  -1   2  10 73497.4 2217.07  18
  -1   2   9 32107.4 1386.68  18
   1  -2  -9 33516.2 1598.18   8
  -1   2   8 459.102 218.729  18
  -1   2   7 7932.65 611.747  18
  -1   2   6 31749.7 936.341  23
  -1   2   6 30402.9 1056.67  18
  -1   2   5 105066. 1767.72  18
   1  -2  -4-2.04820 76.8960  19
  -1   2   4 196.975 108.086  18
   1  -2  -3 56650.8 725.179  20
  -1   2   3 54391.2 1036.81  18
  -1   2   2 18891.8 538.563  18
   1  -2  -2 20017.3 444.331  20
   1  -2  -1 92198.9 967.529  20
  -1   2   0 334664. 1849.92  20
  -1   2  -1 1090.95 129.060  20
   1  -2   2 6070.24 180.256  25
   1  -2   2 6111.86 262.250  20
  -1   2  -2 6159.60 264.818  20
   1  -2   3 334202. 2212.14  19
   1  -2   3 335368. 1854.56  20
   1  -2   4 175706. 1350.80  20
  -1   2  -4 175207. 1822.98  21
   1  -2   4 173563. 1779.29  18
   1  -2   5 189420. 1356.91  20
   1  -2   5 191213. 2104.68  18
   1  -2   6 41242.3 1079.36  18
   1  -2   7 7262.89 509.750  18
   1  -2   8 27507.1 1064.18  18
   1  -2   9 78176.9 1905.48  18
   1  -2  10 1929.81 367.526  18
   1  -2  11 12024.6 873.544  18
  -1   2 -11 11504.2 867.755   7
  -1   2 -11 11784.4 855.267  10
  -1   2 -11 12509.1 968.786   9
  -1   2 -12 368.826 262.802   9
  -1   2 -12 103.623 193.578   7
   1  -2  12-27.4703 194.227  18
  -1   2 -13 567.258 300.976   9
  -1   2 -13 1085.47 311.593   7
  -1   2 -14 26292.1 1210.52   7
  -1   2 -14 25243.0 1329.72   9
  -1   2 -15 220.766 173.306   9
  -1   2 -16 471.508 184.213   5
  -1   2 -16 615.344 201.976   9
   1  -1 -15 58.2029 168.162   9
   1  -1 -14 10026.6 815.265   9
   1  -1 -13 6736.05 718.595   9
  -1   1  13 7833.04 712.597  12
  -1   1  12 13357.1 992.431  12
   1  -1 -12 14147.6 1063.10   9
  -1   1  11 2050.14 438.336  18
  -1   1  11 1532.09 370.422  12
   1  -1 -11 1705.36 380.672   9
   1  -1 -10 9611.53 827.314   9
  -1   1  10 7812.25 717.629  18
   1  -1 -10 7350.11 754.194   8
  -1   1  10 8255.47 766.555  12
  -1   1   9 13076.1 864.194  18
  -1   1   8 12620.9 780.251  18
  -1   1   7 249876. 3108.96  18
  -1   1   6 10291.8 590.534  18
   1  -1  -5 2020.20 235.357  19
  -1   1   5 2228.30 253.646  18
   1  -1  -4 18219.3 594.083  19
  -1   1   4 18912.4 637.912  18
   1  -1  -4 18144.5 652.677  16
   1  -1  -3 189.117 53.2433  20
   1  -1  -3 29.0054 68.7984  19
  -1   1   3 210.382 102.244  18
   1  -1  -2 7347.55 244.207  20
   1  -1  -1 318.334 74.5846  20
   1  -1   0 748.600 83.1054  25
   1  -1   1 79428.1 663.894  25
   1  -1   1 78083.4 713.567  19
   1  -1   2 245180. 1609.57  19
  -1   1  -2 249201. 1080.77  25
   1  -1   2 250395. 1075.27  27
   1  -1   2 244287. 1404.13  20
   1  -1   3 794715. 2503.00  20
   1  -1   3 795788. 3243.40  18
  -1   1  -4 13919.5 540.192  19
   1  -1   4 14502.8 512.787  18
   1  -1   4 13891.0 319.500  20
   1  -1   4 15517.0 561.413  19
  -1   1  -4 13933.5 474.159   8
   1  -1   5 17893.3 317.502  20
   1  -1   5 17118.6 638.182  18
  -1   1  -6 600.830 155.899   8
   1  -1   6 475.888 163.384  18
   1  -1   7 124029. 2059.78  18
   1  -1   8 500.550 200.113  18
   1  -1   9 869.309 237.405  18
   1  -1  10 30199.7 1313.14  18
  -1   1 -11 32890.8 1588.22   9
  -1   1 -11 32044.4 1443.48   7
   1  -1  11 29049.5 1361.50  18
  -1   1 -12 571.165 319.284   9
  -1   1 -12 401.268 216.257   7
  -1   1 -13 11087.9 934.262   9
  -1   1 -13 12256.8 878.209   7
  -1   1 -14 1047.83 322.208   9
  -1   1 -15 922.300 258.912   9
  -1   1 -16 15792.1 735.520   9
   1   0 -16 852.313 217.465   9
   1   0 -15 2293.00 404.394   9
   1   0 -14 16521.1 1087.05   9
  -1   0  13 27831.1 1364.23  12
   1   0 -13 26397.0 1424.10   9
  -1   0  12 8189.88 777.875  12
   1   0 -12 9830.59 898.755   9
  -1   0  11 29778.1 1405.89  18
   1   0 -11 29987.9 1489.85   9
  -1   0  11 30496.3 1452.13  12
  -1   0  10 44020.2 1610.11  18
  -1   0   9 97938.8 2216.03  18
  -1   0   8 38955.9 1304.81  18
  -1   0   7 887.696 218.436  18
  -1   0   6 1431.39 227.485  18
   1   0  -5 44374.5 991.195  19
   1   0  -5 43660.1 380.375  20
   1   0  -5 45463.0 1046.35  16
   1   0  -4 968.527 155.222  16
  -1   0   4 1000.40 148.248  18
   1   0  -4 917.650 140.360  19
   1   0  -3 18532.3 471.288  19
  -1   0   3 20877.3 519.595  18
   1   0  -2 17678.6 406.393  25
   1   0  -2 17587.8 344.818  19
   1   0  -1 9268.32 265.481  25
  -1   0   0 76407.9 441.962  19
   1   0   1 15494.1 316.860  27
  -1   0  -1 15640.3 337.268  19
  -1   0  -2 71259.7 937.295  19
  -1   0  -2 70688.7 744.082  27
  -1   0  -3 731.834 137.983  19
  -1   0  -3 1041.25 148.158   8
  -1   0  -3 790.283 96.7190  27
   1   0   3 726.467 118.134  18
  -1   0  -4 60929.5 1187.79  19
   1   0   4 64210.0 584.307  20
  -1   0  -4 61099.7 1177.43   8
  -1   0  -4 64640.0 842.423  27
   1   0   4 62427.3 1089.66  18
  -1   0  -5 466872. 3626.07   8
   1   0   5 484178. 3403.39  18
  -1   0  -6 19375.5 833.021   8
   1   0   6 21346.3 806.755  18
   1   0   7 290.977 160.550  18
  -1   0  -7 188.971 146.668   8
   1   0   8 3311.84 406.651  18
   1   0   9 108303. 2373.99  18
  -1   0 -10 14548.6 1038.67   9
   1   0  10 13970.2 921.906  18
  -1   0 -10 14452.7 956.509   7
   1   0  11 136.449 209.140  18
  -1   0 -11 104.127 203.671   7
  -1   0 -11-92.1159 197.597   9
  -1   0 -12 132.444 181.844   7
  -1   0 -12 54.2208 228.223   9
  -1   0 -13 5543.63 579.856   7
  -1   0 -13 6988.49 746.035   9
  -1   0 -14 19977.9 1116.75   9
  -1   0 -15 342.170 187.244   9
   1   1 -16 23942.8 1056.67   9
   1   1 -15 251.951 246.602   9
   1   1 -14 690.309 345.602   9
   1   1 -13 875.022 340.420   9
   1   1 -12 42787.4 1819.90   9
  -1  -1  12 46134.0 1781.42  18
  -1  -1  11 10068.1 828.134   1
  -1  -1  11 9805.77 803.917  18
   1   1 -11 9379.09 830.325   9
  -1  -1  10 16096.2 961.374  18
  -1  -1   9 5927.08 555.580  18
  -1  -1   8 19312.0 885.819  18
  -1  -1   7 47427.3 1242.38  18
   1   1  -6 2423.14 197.308  25
  -1  -1   6 2467.14 276.308  18
   1   1  -6 2439.97 265.136  16
  -1  -1   5 19471.6 653.076  18
   1   1  -5 19282.5 631.621  16
   1   1  -5 20385.1 508.913  25
  -1  -1   5 20592.8 642.344  19
  -1  -1   4 83675.0 1113.52  19
  -1  -1   4 83588.7 1131.64  13
   1   1  -4 81047.1 937.064  25
   1   1  -4 85943.8 1151.25  16
  -1  -1   4 84442.2 1176.02  18
   1   1  -3 27.4149 61.6631  25
  -1  -1   3 34.2395 75.8468  19
  -1  -1   2 237537. 1377.30  25
   1   1  -1 75052.5 748.254  27
   1   1   0 39096.5 564.125  27
   1   1   1 197.202 83.4715  27
  -1  -1  -1 265.261 77.8202  27
  -1  -1  -2 189698. 1859.26   8
  -1  -1  -2 185211. 1476.59  27
  -1  -1  -3 49424.7 819.530  27
  -1  -1  -3 48941.9 1002.47  19
  -1  -1  -3 50970.6 1086.06   8
   1   1   3 51727.8 910.223  18
   1   1   4 65433.1 1186.10  18
  -1  -1  -4 63675.9 1369.51   8
  -1  -1  -4 67998.0 1043.54  27
  -1  -1  -4 65498.5 1315.02  19
   1   1   5 4164.40 354.782  18
  -1  -1  -5 3880.99 395.169   8
  -1  -1  -6 3805.91 420.545   8
   1   1   6 4880.49 416.095  18
  -1  -1  -7 50267.0 1566.55   8
   1   1   7 49054.6 1408.61  18
   1   1   8 4025.36 452.951  18
  -1  -1  -8 4494.03 520.852   8
   1   1   9 9501.09 735.357  18
   1   1  10 80035.1 2217.68  18
  -1  -1 -10 81798.8 2486.64   9
  -1  -1 -10 82339.4 2291.41   7
  -1  -1 -11 636.489 230.056   7
  -1  -1 -11 249.720 274.704   9
  -1  -1 -12 39335.5 1747.58   9
  -1  -1 -12 38646.3 1538.83   7
  -1  -1 -13 427.864 254.753   9
  -1  -1 -14 1474.04 322.919   9
  -1  -1 -15 11.6876 103.849   9
   1   2 -17 978.608 210.764   9
   1   2 -16 105.204 191.965   9
   1   2 -15 4463.73 589.471   9
   1   2 -14 9355.11 875.502   9
   1   2 -13 23699.0 1370.89   9
  -1  -2  12 8459.67 765.210   1
  -1  -2  12 7954.67 752.606  18
   1   2 -12 7638.52 732.526  10
  -1  -2  11 57537.5 1861.60  18
  -1  -2  10 1380.53 326.502  18
  -1  -2   9 44462.6 1428.59  18
  -1  -2   8 789.075 233.573  18
  -1  -2   7 59508.9 1377.22  18
   1   2  -7 59569.6 1270.49  16
   1   2  -6 21322.1 680.928  16
  -1  -2   6 20630.1 734.092  18
  -1  -2   6 20053.6 668.828  13
  -1  -2   5 3136.48 268.223  18
  -1  -2   5 3476.88 268.358  19
   1   2  -5 3754.90 258.802  16
  -1  -2   5 3260.73 259.649  13
  -1  -2   4 107330. 1267.76  19
  -1  -2   4 109382. 1329.91  18
  -1  -2   4 109634. 1249.61  26
   1   2  -3 10566.8 314.899  27
  -1  -2   3 11601.1 327.735  25
   1   2  -2 170511. 1244.47  27
   1   2  -1 11363.2 341.017  27
   1   2   0 383312. 2098.84  27
  -1  -2  -1 4816.34 267.983  27
  -1  -2  -2 133.089 79.5233  27
   1   2   2 55.5067 66.4493  18
  -1  -2  -3 164342. 1748.86  27
  -1  -2  -3 164556. 2218.72   8
  -1  -2  -4 367.726 168.079   8
  -1  -2  -4 374.435 107.072  27
   1   2   4 339.247 128.029  18
   1   2   5 170835. 2279.34  18
  -1  -2  -5 172027. 2703.59   8
   1   2   6 2819.37 346.683  18
  -1  -2  -6 2658.07 404.538   8
   1   2   7 11620.8 728.735  18
  -1  -2  -7 8519.24 712.685   8
  -1  -2  -8 30573.6 1421.11   8
   1   2   8 30427.9 1271.53  18
  -1  -2  -9 13429.7 1007.58   9
  -1  -2  -9 13792.9 930.390   7
   1   2   9 15869.1 986.248  18
   1   2  10 6253.67 643.262  18
  -1  -2 -10 4913.83 582.373   7
  -1  -2 -10 5976.98 720.288   9
  -1  -2 -11 15716.7 1126.67   9
  -1  -2 -11 15276.4 992.043   7
  -1  -2 -12 18494.5 1032.77   7
  -1  -2 -12 16239.1 1121.31   9
  -1  -2 -13 753.663 313.015   9
  -1  -2 -14 5668.74 519.633   9
   1   3 -17 502.817 192.849   9
   1   3 -16 4630.04 540.240   9
   1   3 -15 8224.62 798.604   9
   1   3 -14 2037.18 484.466   9
   1   3 -13 133.375 265.564  10
  -1  -3  13-51.9177 179.213   1
   1   3 -12 18347.7 1120.17  10
  -1  -3  12 18243.4 1095.94   1
  -1  -3  12 18117.2 1107.55  18
  -1  -3  11 111517. 2555.04  18
  -1  -3  10 182.087 188.617  18
  -1  -3   9 20842.9 978.869  18
  -1  -3   8 10038.3 637.583  18
   1   3  -7 172108. 2002.53  16
  -1  -3   7 171215. 2313.57  18
  -1  -3   7 171016. 2138.98  13
  -1  -3   6 121.764 95.9328  13
  -1  -3   6 81.2798 107.046  18
   1   3  -6 217.103 65.4085  27
   1   3  -6 294.448 99.4306  16
  -1  -3   5 32944.7 817.066  19
   1   3  -5 31534.4 577.190  27
  -1  -3   5 30904.6 723.872  26
  -1  -3   5 30563.4 784.172  13
  -1  -3   4 149112. 1419.97  26
  -1  -3   4 149079. 1239.17  25
   1   3  -3 62933.4 839.277  27
   1   3  -2 23517.9 538.741  27
  -1  -3   2 23093.5 541.474  27
  -1  -3   1 26076.9 600.103  26
  -1  -3   1 25277.0 551.160  13
  -1  -3   0 89495.5 1224.69  26
  -1  -3  -1 34121.1 792.206  27
  -1  -3  -2 177781. 1935.56  27
  -1  -3  -2 173667. 2320.08   8
  -1  -3  -3 68126.6 1578.86   8
   1   3   3 64356.9 1242.57  18
   1   3   4 58750.8 1328.94  18
  -1  -3  -4 57160.0 1573.73   8
  -1  -3  -5 31699.4 1270.10   8
   1   3   5 32211.9 1069.97  18
  -1  -3  -6 5048.86 558.941   8
   1   3   6 5348.64 484.942  18
  -1  -3  -7 40874.0 1664.80   8
   1   3   7 41755.9 1439.72  18
  -1  -3  -8-364.295 218.247   8
  -1  -3  -8-259.979 206.978   9
  -1  -3  -9 1314.64 389.557   9
  -1  -3  -9 1763.15 393.883   8
  -1  -3  -9 1496.93 355.789   7
  -1  -3 -10 26802.2 1329.75   7
  -1  -3 -10 26618.4 1486.84   9
  -1  -3 -11 1113.08 310.695   7
  -1  -3 -11 1705.96 432.482   9
  -1  -3 -12 2515.61 482.601   9
  -1  -3 -13 927.633 265.119   9
  -1  -3 -14 8622.50 551.999   9
   1   4 -17 1182.52 276.995   9
   1   4 -16 4203.28 536.603   9
   1   4 -15 1678.22 417.902   9
   1   4 -14 3943.99 574.429  10
   1   4 -13 9606.77 848.949  10
  -1  -4  13 10623.9 848.759   1
  -1  -4  13 9720.22 832.148  18
   1   4 -12 1236.42 322.196  10
  -1  -4  12 1889.52 408.019  18
  -1  -4  12 1605.33 359.283   1
  -1  -4  11 77597.9 2122.84  18
  -1  -4  10 8396.90 679.896  18
  -1  -4   9 100879. 2108.03  18
  -1  -4   8 12063.6 633.704  13
  -1  -4   8 11818.6 679.934  18
  -1  -4   7 12148.5 594.927  13
  -1  -4   7 11310.8 616.957  18
  -1  -4   6 65451.4 1271.48  13
   1   4  -6 64080.5 994.510  24
   1   4  -5 15627.9 459.474  24
  -1  -4   5 16191.6 508.575  26
   1   4  -5 16084.3 444.123  27
  -1  -4   5 15815.2 433.992  25
  -1  -4   5 15233.5 578.280  13
   1   4  -4 8703.19 343.754  27
   1   4  -4 8288.40 328.649  24
  -1  -4   4 8171.51 405.281  13
  -1  -4   4 8261.51 345.409  26
  -1  -4   3 19045.4 515.551  26
   1   4  -3 19470.4 534.197  27
   1   4  -3 20881.7 520.928  24
  -1  -4   3 19362.3 529.379  27
  -1  -4   2 323043. 2315.07  13
  -1  -4   2 327056. 2199.17  26
  -1  -4   1 12232.3 476.563  27
  -1  -4   1 10902.4 439.405  26
  -1  -4   0 273809. 2686.33   8
  -1  -4   0 276307. 2375.66  27
  -1  -4  -1 2047.39 270.812   8
   1   4   2 78101.8 1144.36  20
  -1  -4  -2 77725.5 1715.80   8
  -1  -4  -3 198175. 2947.21   8
  -1  -4  -4 41484.2 1471.52   8
  -1  -4  -5 24853.8 1227.25   8
  -1  -4  -6 1752.23 376.507   8
  -1  -4  -7 28848.5 1494.65   8
  -1  -4  -8 3188.67 477.912   7
   1   4   8 2946.67 473.059  12
  -1  -4  -8 3045.96 541.145   8
  -1  -4  -8 3268.90 505.620   9
   1   4   9 11899.5 911.047  12
  -1  -4  -9 9102.48 876.729   9
  -1  -4  -9 11803.2 900.177   7
  -1  -4 -10 14841.6 1098.87   9
  -1  -4 -11 5731.01 680.288   9
  -1  -4 -12 18443.7 1050.27   9
  -1  -4 -13 2381.99 336.563   9
   1   5 -17 1016.94 236.646   9
   1   5 -16 15552.3 1014.74   9
   1   5 -15 1090.23 373.872   9
   1   5 -15 641.128 283.400  10
   1   5 -14 24347.0 1330.28  10
   1   5 -13 3159.25 495.517  10
  -1  -5  13 3011.11 499.427  18
   1   5 -12 3665.18 517.150  10
  -1  -5  12 3313.32 497.358  18
  -1  -5  11 41386.0 1564.13  18
  -1  -5  10 6828.71 544.447  13
  -1  -5  10 7043.05 629.552  18
  -1  -5   9 31816.2 1096.62  13
  -1  -5   9 31733.4 1209.36  18
  -1  -5   8 96813.0 1946.61  18
  -1  -5   8 97687.2 1824.11  13
  -1  -5   7 66641.5 1431.68  13
  -1  -5   6 18682.8 714.374  13
   1   5  -6 19987.8 605.203  24
  -1  -5   6 18019.3 574.575  26
   1   5  -6 18034.6 640.136  20
   1   5  -5 7992.12 375.815  24
  -1  -5   5 7629.93 354.321  26
  -1  -5   5 7731.03 447.303  13
  -1  -5   4 117868. 1631.38  13
  -1  -5   4 117447. 1347.10  26
   1   5  -4 119572. 1430.75  24
  -1  -5   4 119112. 1404.54  27
  -1  -5   3 25675.0 648.543  26
  -1  -5   3 25112.5 687.031  27
   1   5  -3 26326.8 691.432  24
  -1  -5   3 25716.0 743.612  13
  -1  -5   2 1227.22 162.210  26
  -1  -5   2 1571.98 194.499  13
  -1  -5   2 1574.40 194.540  27
  -1  -5   1 29224.2 799.721  26
  -1  -5   0-27.8466 137.496   8
  -1  -5   0 139.930 121.841  26
  -1  -5  -1 11981.3 697.290   8
  -1  -5  -1 12721.0 630.818  26
   1   5   1 10957.7 495.900  20
  -1  -5  -2 27.3293 187.859   8
  -1  -5  -3 46816.0 1586.38   8
  -1  -5  -4 13379.1 920.594   8
  -1  -5  -5 48828.1 1835.30   8
  -1  -5  -6 9248.62 864.311   8
   1   5   7 27131.7 1374.87  12
  -1  -5  -7 26333.0 1408.84   9
  -1  -5  -7 26639.3 1513.35   8
  -1  -5  -7 24313.5 1257.26   7
  -1  -5  -8 21062.5 1304.63   9
  -1  -5  -8 24299.0 1380.88  26
  -1  -5  -8 20619.8 1194.10   7
   1   5   8 20730.3 1230.41  12
  -1  -5  -8 21458.1 1379.79   8
   1   5   9 996.645 329.404  12
  -1  -5  -9 421.382 296.206   9
   1   5  10 11260.1 846.056  12
  -1  -5 -10 10797.9 909.503   9
  -1  -5 -11 3633.34 515.847   9
  -1  -5 -12 3224.51 413.887   9
   1   6 -18 4906.48 425.172   9
   1   6 -17 1350.31 305.733   9
   1   6 -16-10.5211 181.089   9
   1   6 -15 3246.55 521.302  10
   1   6 -14-240.157 252.817  10
  -1  -6  13 14303.4 1018.83  18
   1   6 -13 15434.6 1054.49  10
  -1  -6  12 3679.77 525.764  18
   1   6 -12 4367.12 559.961  10
  -1  -6  11 32076.6 1400.14  18
  -1  -6  10 235.216 142.645  13
  -1  -6  10 208.856 167.824  18
  -1  -6   9 47883.9 1511.93  18
  -1  -6   9 49000.3 1416.15  13
  -1  -6   8 9027.19 589.382  13
  -1  -6   7 21959.3 862.318  13
   1   6  -6 27795.1 791.602  24
  -1  -6   6 27205.2 923.837  13
   1   6  -5 17463.4 619.806  24
  -1  -6   5 16693.0 697.468  13
  -1  -6   4 387.018 157.504  13
  -1  -6   4 363.621 101.175  26
  -1  -6   4 378.909 118.397  27
  -1  -6   3 8911.34 485.143  13
  -1  -6   3 8880.24 424.737  26
  -1  -6   2 14676.5 610.940  13
  -1  -6   2 15324.5 587.272  26
  -1  -6   1 23782.7 800.366  26
  -1  -6   0 272.274 155.490  26
  -1  -6   0 259.039 198.516   8
  -1  -6  -1 6887.30 514.730  26
  -1  -6  -1 7488.00 609.202   8
  -1  -6  -2 4460.53 457.972  26
  -1  -6  -2 5063.21 563.760   8
  -1  -6  -3 26237.5 1288.07   8
  -1  -6  -4 12200.5 957.994   8
  -1  -6  -5 47339.7 1925.55   8
  -1  -6  -6 356.543 263.056  26
  -1  -6  -6 142.940 209.233   8
   1   6   6 335.318 199.416  12
  -1  -6  -6 565.492 244.605   9
  -1  -6  -7 33570.5 1618.51  26
  -1  -6  -7 30124.5 1543.45   9
   1   6   7 30295.3 1506.99  12
  -1  -6  -8 14031.1 1067.46   9
   1   6   8 16439.1 1103.18  12
   1   6   9 41350.8 1654.80  12
  -1  -6  -9 41935.5 1771.88   9
   1   6  10 1473.24 331.499  12
  -1  -6 -10 1568.11 388.734   9
  -1  -6 -11 5171.11 520.382   9
   1   7 -18 1913.18 279.401   9
   1   7 -17 7523.10 644.418   9
   1   7 -16 14125.0 970.005   9
   1   7 -16 14415.7 949.259  10
   1   7 -15 7617.26 746.874  10
   1   7 -14 26013.9 1370.39  10
   1   7 -13 23514.5 1303.16  10
  -1  -7  13 25283.4 1348.89  18
   1   7 -12 1474.30 346.348  10
  -1  -7  12 1284.93 326.201  18
  -1  -7  11 7757.29 645.220  13
  -1  -7  11 7285.99 698.792  18
  -1  -7  10 6713.77 576.026  13
  -1  -7  10 6599.76 623.458  18
  -1  -7   9 33713.5 1219.84  13
  -1  -7   9 32545.9 1283.26  18
  -1  -7   8 39972.1 1280.98  13
  -1  -7   7-2.23855 154.036  13
  -1  -7   6 28270.8 1006.78  13
   1   7  -6 30522.8 906.844  24
   1   7  -5 1768.92 236.742  24
  -1  -7   5 2484.13 319.975  13
   1   7  -4 89862.1 1581.79  24
  -1  -7   4 89734.4 1685.75  13
  -1  -7   3 2307.61 292.213  13
  -1  -7   3 2387.61 242.364  26
   1   7  -3 2806.11 308.043  24
  -1  -7   2 2950.88 320.560  13
  -1  -7   2 2585.38 275.086  26
  -1  -7   1 687.502 179.674  26
  -1  -7   0 45403.5 1292.88  26
  -1  -7  -1 31896.7 1338.98   8
  -1  -7  -1 30965.4 1153.52  26
  -1  -7  -2 1055.86 349.568   8
  -1  -7  -2 574.218 230.750  26
  -1  -7  -3 44286.5 1791.57   8
  -1  -7  -3 43112.8 1563.58  26
  -1  -7  -4 1256.89 351.747   8
  -1  -7  -4 1135.98 335.040  26
   1   7   5 16253.9 1065.25   4
   1   7   5 16196.1 1100.05  12
  -1  -7  -5 14880.4 1048.87  26
  -1  -7  -5 15316.2 1073.79   9
  -1  -7  -5 15946.8 1197.34   8
  -1  -7  -6 29513.8 1515.19  26
  -1  -7  -6 27789.4 1480.98   9
   1   7   6 26832.1 1436.96  12
  -1  -7  -7 19149.5 1234.71   9
   1   7   7 21528.2 1281.68  12
  -1  -7  -8 30785.0 1511.91   9
   1   7   8 34213.4 1546.17  12
  -1  -7  -9 3675.30 530.952   9
   1   7   9 4078.37 516.240  12
   1   7  10 22948.7 1001.72  12
  -1  -7 -10 22894.3 1083.81   9
  -1  -7 -11 2713.92 326.035   9
   1   8 -18 8570.90 563.842   9
   1   8 -17 1890.70 333.483   9
   1   8 -16 1497.04 342.238  10
   1   8 -15 179.011 267.482  10
   1   8 -14 162.897 251.979  10
  -1  -8  13 22970.6 1296.36  18
   1   8 -13 24962.8 1333.53  10
   1   8 -12 8097.59 768.235  10
  -1  -8  12 7228.51 732.427  18
  -1  -8  12 6787.73 631.352  13
  -1  -8  11 9294.13 728.434  13
  -1  -8  11 10030.1 816.612  18
  -1  -8  10 10250.0 748.093  13
  -1  -8  10 10433.3 796.223  18
  -1  -8   9 20315.6 993.540  13
  -1  -8   8 41191.6 1365.71  13
   1   8  -7 842.903 184.434  24
  -1  -8   7 843.229 260.204  13
   1   8  -6 172218. 2360.82  24
  -1  -8   6 163963. 2586.12  13
  -1  -8   5 38188.0 1224.45  13
   1   8  -5 38134.3 1122.38  24
   1   8  -4 24700.2 922.299  24
  -1  -8   4 23465.7 945.311  13
  -1  -8   3 406.303 175.987  13
   1   8  -3 268.483 165.142  24
  -1  -8   2 1434.21 232.814  26
  -1  -8   2 1448.74 263.963  13
  -1  -8   1 76400.8 1678.64  26
  -1  -8   1 75567.6 1684.90  13
  -1  -8   0 89.8420 137.074  26
  -1  -8  -1 22919.3 1067.18  26
  -1  -8  -2 5649.38 586.588  26
  -1  -8  -3 13229.9 922.701  26
   1   8   3 12321.8 930.064  12
   1   8   4 32803.4 1545.51   4
  -1  -8  -4 31036.4 1525.62   9
   1   8   4 31564.2 1539.79  12
  -1  -8  -4 29630.7 1448.74  26
   1   8   5 14259.5 1058.10  12
  -1  -8  -5 16272.9 1125.79   9
  -1  -8  -5 16632.2 1122.78  26
   1   8   6 335.025 254.509  12
  -1  -8  -6-15.8287 244.352   9
   1   8   7 424.984 236.691  12
  -1  -8  -7 671.531 316.402   9
   1   8   8 33634.3 1449.13  12
  -1  -8  -8 33063.2 1463.59   9
  -1  -8  -9 1575.49 320.018   9
   1   8   9 2170.87 354.583  12
  -1  -8 -10 1722.82 279.660   9
   1   9 -18 1196.49 216.348   9
   1   9 -17 12120.1 780.953   9
   1   9 -17 11812.9 753.865  10
   1   9 -16 142.500 214.244  10
   1   9 -15 4043.31 560.100  10
   1   9 -14-1.21490 250.709  10
   1   9 -13 20511.6 1224.07  10
  -1  -9  12 2533.30 412.467  13
  -1  -9  12 3671.89 552.818  18
   1   9 -12 2825.76 484.023  10
  -1  -9  11 74172.5 2090.84  13
   1   9 -11 75135.9 2494.41  14
   1   9 -11 76684.6 2245.27  10
  -1  -9  11 76895.2 2279.50  18
  -1  -9  10 8858.24 727.595  13
  -1  -9  10 8302.89 739.539  18
  -1  -9   9 2594.86 411.566  13
  -1  -9   8 33011.9 1295.99  13
  -1  -9   7 15071.0 865.327  13
   1   9  -7 15897.6 787.571  24
  -1  -9   6 22635.2 1037.79  13
   1   9  -6 23046.5 952.963  24
  -1  -9   5 17936.6 904.934  13
   1   9  -5 19344.3 885.124  24
   1   9  -4 23374.5 983.698  24
  -1  -9   4 21778.8 982.844  13
  -1  -9   3 76716.7 1821.17  13
   1   9  -3 78821.6 1845.83  24
  -1  -9   2 4859.19 479.562  13
  -1  -9   1 1769.81 296.846  13
  -1  -9   0 6455.73 567.505  26
  -1  -9  -1 144732. 2820.39  26
  -1  -9  -2 1708.72 371.005   9
   1   9   2 2083.52 417.444   4
   1   9   2 2243.50 427.009  12
  -1  -9  -2 2397.65 420.808  26
  -1  -9  -3 4794.50 586.352  26
   1   9   3 5640.27 689.508   4
   1   9   3 5208.93 651.544  12
  -1  -9  -3 6035.16 688.936   9
  -1  -9  -4 7621.68 778.713   9
   1   9   4 7057.33 769.259  12
  -1  -9  -5 7894.43 798.640   9
   1   9   5 7537.89 781.923  12
  -1  -9  -6 101.704 225.253   9
   1   9   6 373.090 281.892  12
   1   9   7 2120.87 416.964  12
  -1  -9  -7 2625.37 442.674   9
  -1  -9  -8 5679.13 558.609   9
   1   9   8 4822.43 509.093  12
  -1  -9  -9 118.333 116.168  17
  -1  -9  -9 404.914 163.760   9
   1  10 -17 5849.55 532.288  10
   1  10 -16 839.540 287.723  10
   1  10 -15 4666.20 600.993  10
   1  10 -14-22.8204 201.618  10
   1  10 -13 11755.7 954.995  10
  -1 -10  12 758.242 295.676  18
   1  10 -12 604.790 286.032  14
  -1 -10  12 561.931 229.531  13
   1  10 -12 506.481 266.166  10
  -1 -10  11 19266.9 1104.19  13
  -1 -10  11 17413.5 1124.17  18
   1  10 -11 19320.2 1334.87  14
   1  10 -11 17920.1 1125.70  10
   1  10 -10 18270.1 1283.10  14
  -1 -10  10 19209.8 1096.50  13
   1  10 -10 18640.6 1105.37  10
  -1 -10   9 144.108 221.852  13
  -1 -10   8 18135.7 1019.00  13
   1  10  -7 17176.8 880.401  24
  -1 -10   7 17831.0 989.894  13
  -1 -10   6 22007.6 1087.40  13
   1  10  -6 22797.3 1022.83  24
  -1 -10   5 58582.5 1741.08  13
   1  10  -5 59993.5 1674.91  24
  -1 -10   4 5838.79 564.607  13
   1  10  -4 6739.11 588.434  24
   1  10  -3 807.391 250.392  24
  -1 -10   3 959.625 264.423  13
   1  10  -2 8671.48 700.825  24
  -1 -10   2 8874.36 683.683  13
  -1 -10   1 72423.5 1901.04  13
  -1 -10   0 7704.81 732.659   9
   1  10   0 7812.38 762.104   4
   1  10   0 6367.16 686.049  12
  -1 -10  -1 4247.25 594.884   9
   1  10   1 4100.33 585.500  12
  -1 -10  -2 1846.21 391.137   9
   1  10   2 1625.27 429.123  12
  -1 -10  -3 6529.37 724.456   9
   1  10   3 6381.53 743.354  12
  -1 -10  -4 5550.86 661.975   9
   1  10   4 5034.91 653.629  12
  -1 -10  -5 2485.24 464.966   9
   1  10   5 2245.28 462.727  12
   1  10   6 44.4200 226.175  12
  -1 -10  -6-139.730 200.940   9
  -1 -10  -7 1046.28 269.099   9
  -1 -10  -7 783.638 242.262  17
  -1 -10  -8 3748.62 368.514   9
  -1 -10  -8 3655.81 356.120  17
   1  11 -17 3683.36 419.507  10
   1  11 -16-45.1709 176.096  10
   1  11 -15 212.438 216.093  10
   1  11 -14 10116.8 857.069  10
   1  11 -13 2526.41 475.201  10
   1  11 -13 2713.81 538.764  14
   1  11 -12 52834.0 2227.15  14
   1  11 -12 53682.4 1982.32  10
   1  11 -11 181.950 269.318  14
   1  11 -11 420.598 231.055  10
  -1 -11  11 253.441 179.337  13
  -1 -11  11 564.506 249.064  18
  -1 -11  10 6910.52 692.102  13
   1  11 -10 6118.55 794.461  14
   1  11 -10 5273.53 621.388  10
   1  11  -9 26012.1 1555.40  14
   1  11  -9 22754.6 1238.87  10
  -1 -11   9 22837.8 1206.17  13
  -1 -11   8 31389.3 1391.99  13
   1  11  -8 30951.2 1419.26  10
  -1 -11   7 13211.0 902.926  13
  -1 -11   6 5097.28 569.692  13
   1  11  -6 5732.45 561.162  24
  -1 -11   5 931.011 283.334  13
   1  11  -5 1104.46 278.590  24
  -1 -11   4 48064.4 1656.12  13
   1  11  -4 47547.8 1639.01  24
  -1 -11   3 38512.8 1478.33  13
   1  11  -3 38086.4 1507.90  24
  -1 -11   3 37021.4 1565.97  17
  -1 -11   2 65.5591 178.681  13
  -1 -11   2 195.705 157.057  17
   1  11  -2 172.061 220.537  24
  -1 -11   1 3634.13 546.402  17
   1  11  -1 4984.53 592.430  24
  -1 -11   0 22522.4 1276.35   9
   1  11   0 24959.1 1310.83  24
  -1 -11   0 23796.1 1346.77  17
  -1 -11  -1 24819.5 1359.39   9
   1  11   1 22451.5 1323.08  12
  -1 -11  -2 227.215 230.115   9
   1  11   2 1148.46 375.692  12
  -1 -11  -3 370.906 219.413   9
   1  11   3-287.007 335.117  12
   1  11   4 1014.32 334.316  12
  -1 -11  -4 1599.60 369.131   9
  -1 -11  -5 2834.83 428.985   9
  -1 -11  -5 2353.45 433.707  17
  -1 -11  -6 8950.91 643.023   9
  -1 -11  -6 8748.83 653.489  17
  -1 -11  -7 2386.93 298.826  17
   1  12 -17 1601.38 269.733  10
   1  12 -16-24.6256 172.181  10
   1  12 -15 9941.93 791.120  10
   1  12 -14 6162.18 673.630  10
   1  12 -13 51.8057 209.508  14
   1  12 -13 88.1416 200.677  10
   1  12 -12 187.687 235.177  14
   1  12 -12 751.051 327.674  10
   1  12 -11 5686.24 662.090  10
   1  12 -11 4432.96 706.665  14
   1  12 -10 3282.00 620.896  14
  -1 -12  10 3193.07 495.665  13
   1  12 -10 2795.81 455.769  10
   1  12  -9-30.0901 137.932  10
  -1 -12   9-26.3341 133.659   1
  -1 -12   9 22.1653 177.796  13
   1  12  -9 121.759 245.937  14
   1  12  -8 366.538 223.709  10
  -1 -12   8 465.531 233.521  13
  -1 -12   7 1426.88 366.593  13
   1  12  -7 1466.97 357.471  10
  -1 -12   6 19397.8 1150.02  17
  -1 -12   6 19883.5 1146.07  13
   1  12  -6 19799.7 1087.94  24
  -1 -12   5 22651.3 1244.66  17
   1  12  -5 24835.4 1235.12  24
  -1 -12   5 26060.2 1290.95  13
  -1 -12   4-376.618 226.721  13
  -1 -12   4 412.665 258.495  17
   1  12  -4 94.3747 176.811  24
  -1 -12   3 1824.47 359.393  13
   1  12  -3 1805.48 395.782  24
  -1 -12   3 1254.25 327.263  17
  -1 -12   2 1232.00 375.601  17
   1  12  -2 1202.94 336.183  24
  -1 -12   1 42979.3 1808.09  17
  -1 -12   0 114.161 194.660  17
  -1 -12  -1 844.501 304.191  17
  -1 -12  -2 2255.74 467.931  17
  -1 -12  -3 1384.33 386.895  17
  -1 -12  -4 3598.27 477.752  17
  -1 -12  -5 36.6296 161.636  17
   1  13 -17 2829.73 334.839  10
   1  13 -16 771.682 232.894  10
   1  13 -15 248.822 209.479  10
   1  13 -14 2279.76 434.951  10
   1  13 -13 26361.1 1537.54  14
   1  13 -13 27392.4 1365.36  10
   1  13 -12 2714.29 573.235  14
   1  13 -12 1931.45 418.925  10
   1  13 -11 215.787 282.082  14
   1  13 -11 179.666 213.498  10
   1  13 -10 3263.34 612.046  14
   1  13 -10 3123.32 512.075  10
  -1 -13   9 67.0296 155.651   1
   1  13  -9-250.269 217.464  10
   1  13  -9 391.413 343.638  14
   1  13  -8 12092.1 953.898  10
   1  13  -8 14914.4 1226.18  14
   1  13  -7 14787.6 1047.80  10
  -1 -13   7 15291.8 1029.60  13
   1  13  -7 16653.3 1262.11  14
  -1 -13   6 3563.51 526.974  17
   1  13  -6 3402.14 598.512  14
  -1 -13   6 4040.93 547.790  13
   1  13  -5 23810.4 1437.68  14
  -1 -13   5 20812.1 1235.52  17
  -1 -13   5 22687.1 1246.10  13
   1  13  -5 22302.7 1209.46  24
  -1 -13   4 4092.46 593.211  17
  -1 -13   3 47534.6 1895.69  17
  -1 -13   2 147.149 234.432  17
  -1 -13   1 668.207 290.932  17
  -1 -13   0 233.049 274.729  17
  -1 -13  -1 34426.2 1527.83  17
  -1 -13  -2 6506.22 666.695  17
  -1 -13  -3 106.513 192.848  17
  -1 -13  -4 3906.87 416.194  17
   1  14 -16 1535.92 270.115  10
   1  14 -15 19316.7 970.405  10
   1  14 -14 1899.42 382.703  10
   1  14 -13 935.370 321.064  10
   1  14 -12 11110.7 1033.57  14
   1  14 -12 11717.7 885.780  10
   1  14 -11 2747.43 474.577  10
   1  14 -11 1805.63 502.331  14
   1  14 -10 18558.8 1143.29  10
   1  14 -10 17496.1 1343.54  14
  -1 -14   9 312.508 213.380   1
   1  14  -9 35.3785 233.472  14
   1  14  -9 542.661 307.032  10
   1  14  -8 1701.46 379.999  10
   1  14  -8 2066.45 500.278  14
   1  14  -7 1893.37 491.172  14
   1  14  -7 920.535 306.371  10
   1  14  -6 10687.0 975.961  14
   1  14  -6 10561.0 874.870  10
  -1 -14   6 10989.3 896.827  17
  -1 -14   5 10380.4 876.446  17
   1  14  -4 669.436 250.944   2
  -1 -14   4 696.257 267.309  17
  -1 -14   3-19.8446 169.949  17
  -1 -14   2 299.408 246.728  17
  -1 -14   1 34352.2 1493.40  17
  -1 -14   0 11617.6 857.622  17
  -1 -14  -1 352.430 220.540  17
  -1 -14  -2 1882.34 328.150  17
  -1 -14  -3 713.487 189.913  17
   1  15 -16 736.072 191.126  10
   1  15 -15 580.257 208.033  10
   1  15 -14 994.011 274.861  10
   1  15 -13 2433.94 404.060  10
   1  15 -12 13113.9 1069.45  14
   1  15 -12 13242.9 889.965  10
   1  15 -11 3705.73 655.741  14
   1  15 -11 3547.05 509.565  10
   1  15 -10 2942.38 476.306  10
   1  15 -10 2523.22 552.525  14
   1  15  -9 159.188 297.954  14
   1  15  -9-344.135 237.185  10
   1  15  -8 10097.5 952.945  14
   1  15  -8 9628.48 810.739  10
   1  15  -7 11417.0 978.861  14
   1  15  -7 11268.8 866.735  10
   1  15  -6 549.297 261.112  10
  -1 -15   5 1202.19 319.750  17
   1  15  -5 380.309 222.280  10
  -1 -15   4 976.818 294.631  17
   1  15  -4 419.308 181.390   2
  -1 -15   3 4958.13 581.298  17
   1  15  -3 5854.10 550.735  22
   1  15  -3 5679.63 559.849   2
  -1 -15   2-254.109 220.487  17
   1  15  -2-360.127 174.664   2
   1  15  -2 165.906 159.707  22
  -1 -15   1-47.3423 177.823  17
  -1 -15   0 2738.49 373.220  17
  -1 -15  -1 9548.53 601.570  17
   1  15   1 8797.82 547.064   2
   1  16 -15 2931.94 309.014  10
   1  16 -14 7325.83 536.856  10
   1  16 -13 2030.42 324.934  10
   1  16 -12 3498.18 432.071  10
   1  16 -11 1007.93 283.193  10
   1  16 -10 698.046 276.692  14
   1  16 -10 664.316 260.349  10
   1  16  -9 275.738 224.237  10
   1  16  -9-80.2834 261.700  14
  -1 -16   8 151.132 159.972   1
   1  16  -8-20.8324 185.604  10
   1  16  -8 38.8776 209.741  14
   1  16  -7 7204.20 647.949  10
   1  16  -6 5650.59 564.783  10
   1  16  -5 5707.64 560.681  10
   1  16  -4 688.841 231.812  10
  -1 -16   3 5017.17 502.536  17
   1  16  -3 4829.45 464.309  10
  -1 -16   2 1796.96 317.440  17
   1  16  -2 1389.27 241.839  10
   1  16  -2 1647.87 252.025  22
   1  16  -2 2023.75 265.542   2
  -1 -16   1 7634.89 525.108  17
   1  17 -13 1005.89 209.512  10
   1  17 -12 2734.86 340.153  10
   1  17 -11 257.575 165.282  10
   1  17 -10 243.140 164.929  10
   1  17  -9 5720.55 509.574  10
   1  17  -8 303.517 172.667  10
   1  17  -7 7479.23 567.250  10
   1  17  -6 726.359 191.824  10
   1  17  -5 677.006 195.682  10
   1  17  -4 1014.96 207.695  10
  -2  17  -3 6418.98 452.138  22
  -2  17  -3 6802.34 462.992  10
  -2  17  -4 1096.84 221.697  10
  -2  17  -4 1253.03 250.714  22
  -2  17  -5 1212.60 248.067  22
  -2  17  -5 941.062 208.926  10
  -2  17  -6 173.975 126.343  10
  -2  17  -6-67.6218 115.767  22
  -2  17  -7 5837.18 464.518  22
  -2  17  -7 6231.42 506.595  10
  -2  17  -8 1677.14 279.093  10
  -2  17  -8 1167.59 221.770  22
  -2  17  -9 1000.04 217.831  10
  -2  17 -10 201.083 134.170  10
  -2  17 -11 406.387 154.187  10
  -2  16   0 457.299 159.607  22
  -2  16  -1 1477.86 273.468  22
  -2  16  -2 55.6030 156.912  22
  -2  16  -3 3042.57 404.157  22
  -2  16  -4 1906.31 350.447  10
  -2  16  -4 2436.76 382.817  22
  -2  16  -5 5759.58 559.332  22
  -2  16  -5 5994.81 574.687  10
  -2  16  -6 2470.28 395.336  22
  -2  16  -6 2071.41 358.620  10
  -2  16  -7 182.468 169.264  10
  -2  16  -7-1.27259 157.862  22
  -2  16  -8 10335.1 749.372  10
  -2  16  -8 9638.18 680.376  22
  -2  16  -9 429.276 153.918  22
  -2  16  -9 874.415 268.631  10
  -2  16 -10 2231.82 336.163  10
  -2  16 -11 69.6053 129.851  10
  -2  16 -12 1578.76 250.094  10
  -2  16 -13 29.4840 124.135   7
  -2  16 -13 100.049 91.9625  10
  -2  15   2 12.0691 94.8071  22
  -2  15   1 1119.00 254.451  22
  -2  15   0 482.252 212.465  22
  -2  15  -1 4742.90 529.843  22
  -2  15  -2 557.150 268.044  22
  -2  15  -3 18653.9 1070.85  22
  -2  15  -4 1895.49 389.428  22
  -2  15  -5 426.050 253.092  22
  -2  15  -6 454.814 255.652  22
  -2  15  -6 218.047 200.982  10
  -2  15  -7 11500.8 849.568  22
  -2  15  -7 9644.66 798.562  10
  -2  15  -8 3650.76 491.028  22
  -2  15  -8 4305.26 540.655  10
  -2  15  -9-129.397 157.355  10
  -2  15  -9 128.436 154.255  22
  -2  15 -10 7019.01 641.695  10
  -2  15 -11 2254.67 366.926  10
  -2  15 -12 3464.30 414.912  10
  -2  15 -13-189.468 169.484   7
  -2  15 -13-101.514 108.323  10
  -2  15 -14 2304.93 330.217   7
  -2  15 -14 2123.33 253.834  10
   2 -14  -3 2105.57 264.122  17
  -2  14   3 2410.02 332.630  22
  -2  14   2 659.410 248.370  22
   2 -14  -2 652.605 192.729  17
  -2  14   1 2455.13 408.156  22
  -2  14   0 3310.45 501.415  22
  -2  14  -1 10885.7 862.032  22
  -2  14  -2 3091.45 522.208  22
  -2  14  -3 14111.8 1010.46  22
  -2  14  -4 486.393 241.721  22
  -2  14  -5 7182.03 725.752  22
  -2  14  -6 3146.68 499.989  22
  -2  14  -6 3108.75 515.683  10
  -2  14  -7 477.359 211.445  22
  -2  14  -7 247.191 287.297  10
  -2  14  -8 16839.5 1050.49  22
  -2  14  -8 17451.1 1093.25  10
  -2  14  -9 10350.7 842.849  10
  -2  14  -9 9692.73 784.310  22
  -2  14 -10 2483.92 431.269  10
  -2  14 -10 3187.22 441.200  22
  -2  14 -11 2794.63 429.568  10
  -2  14 -12 6649.73 604.625  10
  -2  14 -13 846.021 278.666   7
  -2  14 -13 730.855 219.305  10
  -2  14 -14 190.004 176.966   7
  -2  14 -14 174.371 111.102  10
  -2  14 -15 151.026 141.421   7
  -2  13   5 69.3474 123.617  22
  -2  13   4 25353.3 1044.51  22
   2 -13  -4 24995.3 1006.03  17
   2 -13  -3 4275.12 474.560  17
  -2  13   3 4220.56 525.884   4
   2 -13  -2 763.796 250.455  17
  -2  13   2 43.4746 202.525   4
  -2  13   1 17872.0 1117.02   4
   2 -13  -1 18628.2 1035.52  17
  -2  13   0 46.2662 191.104   4
  -2  13  -1 7525.21 745.267   4
  -2  13  -1 7227.89 750.302  22
  -2  13  -2 1437.97 378.672  22
  -2  13  -3 14679.7 1054.95  22
  -2  13  -4 1123.61 356.260  22
  -2  13  -5 1105.84 342.800  22
  -2  13  -6 3501.16 539.700  22
  -2  13  -7 3879.02 551.517  10
  -2  13  -7 2597.78 464.725  22
  -2  13  -8 67.5795 179.988  22
  -2  13  -8 277.765 226.009  10
  -2  13  -9 12270.1 906.548  22
  -2  13  -9 12077.5 924.438  10
  -2  13 -10 23055.6 1188.42  22
  -2  13 -10 22118.6 1207.48  10
  -2  13 -11 11224.2 850.799  10
  -2  13 -12-3.98198 168.164  10
  -2  13 -13 2487.70 437.198   7
  -2  13 -13 2348.48 350.220  10
  -2  13 -14 3807.06 410.154  10
  -2  13 -14 3455.93 465.708   7
  -2  13 -15 1098.16 270.542   7
  -2  13 -16-75.8631 129.738   7
   2 -12  -6 15969.2 771.644  17
  -2  12   6 16476.8 738.956  22
  -2  12   5 3620.37 469.702   4
  -2  12   5 4064.86 442.724  12
  -2  12   4 450.494 193.248  12
  -2  12   4-493.497 258.856   4
  -2  12   3 6149.17 607.552  12
  -2  12   3 6062.55 684.735   4
  -2  12   2-127.079 262.707   4
  -2  12   1 18532.0 1186.85   4
  -2  12   0 246.181 275.027   4
  -2  12  -1 16519.9 1087.66   4
  -2  12  -2 1149.87 328.287  24
  -2  12  -3 3172.24 500.549  24
  -2  12  -3 3254.67 515.661  22
  -2  12  -4 7689.17 745.126  24
   2 -12   4 9286.29 804.516  13
  -2  12  -4 7805.60 760.649  22
   2 -12   5 6144.10 661.556  13
  -2  12  -5 4405.66 583.543  24
  -2  12  -5 5127.11 613.009  22
  -2  12  -6 6528.63 690.114  24
   2 -12   6 7896.13 739.853  13
  -2  12  -6 6977.18 725.215  22
  -2  12  -7 11081.0 880.101  22
  -2  12  -7 9682.01 837.557  10
  -2  12  -7 11589.1 914.539  24
   2 -12   7 11701.5 874.128  13
   2 -12   8 20538.8 1138.02  13
  -2  12  -8 19107.5 1152.20  10
  -2  12  -8 18501.5 1144.78  24
  -2  12  -8 17925.5 1111.92  22
  -2  12  -9 331.614 225.167  10
  -2  12  -9 328.220 206.117  22
  -2  12 -10 1452.28 342.685  22
  -2  12 -10 789.725 258.309  10
  -2  12 -11 311.290 197.831  10
  -2  12 -12 10289.8 799.239  10
  -2  12 -13 1132.97 355.358   7
  -2  12 -13 512.661 208.922  10
  -2  12 -14 1343.71 252.931  10
  -2  12 -14 1347.28 356.457   7
  -2  12 -15 2424.27 373.972   7
  -2  12 -16 219.829 152.280   7
  -2  11   7 363.099 162.695  12
  -2  11   6 725.437 256.602   4
  -2  11   6 693.246 251.975  12
  -2  11   5 3808.10 559.882   4
  -2  11   5 4145.93 524.952  12
  -2  11   4 8912.87 844.729   4
  -2  11   4 9026.66 782.981  12
  -2  11   3 10022.2 854.269  12
  -2  11   3 10606.6 938.836   4
  -2  11   2 3846.02 606.214   4
  -2  11   2 3847.65 540.833  12
  -2  11   1 5475.40 687.757   4
  -2  11   1 6849.02 699.095  24
  -2  11   0 6965.68 705.952  24
  -2  11   0 7626.98 770.298   4
  -2  11  -1 9861.74 842.691   4
  -2  11  -1 10877.4 870.938  24
  -2  11  -2 1793.91 372.927  24
  -2  11  -3 2431.03 421.418  22
  -2  11  -3 1528.91 345.409  24
  -2  11  -4 555.308 228.934  22
  -2  11  -4 729.382 277.493  24
  -2  11  -5 6115.24 644.374  22
   2 -11   5 6581.08 658.255  13
  -2  11  -5 5237.34 597.741  24
  -2  11  -6 22861.0 1216.65  22
  -2  11  -6 23945.0 1244.02  24
   2 -11   6 22479.7 1167.68  13
   2 -11   7 1062.41 287.044  13
  -2  11  -7 163.533 215.739  10
  -2  11  -7 997.219 294.217  22
  -2  11  -7 706.295 289.868  24
  -2  11  -8 1666.05 371.502  22
  -2  11  -8 1796.93 396.827  24
   2 -11   8 1505.43 331.316  13
  -2  11  -8 1016.95 308.192  10
  -2  11  -9 1869.45 386.501  24
  -2  11  -9 2881.85 481.342  10
  -2  11  -9 1606.82 363.084  22
  -2  11 -10 683.474 262.343  24
  -2  11 -10 1102.70 314.901  10
  -2  11 -10 462.843 205.015  22
  -2  11 -11 4667.47 572.879  10
  -2  11 -12 196.357 238.910  10
  -2  11 -13 312.211 264.662   7
  -2  11 -13 381.143 207.965  10
  -2  11 -14 1753.41 396.733   7
  -2  11 -14 1923.89 315.037  10
  -2  11 -15 21107.6 1062.51   7
  -2  11 -16 1502.34 278.017   7
  -2  10   8 8897.65 645.293  12
  -2  10   7-109.586 207.177   4
  -2  10   7-31.1945 189.805  12
  -2  10   6 40980.9 1644.14  12
  -2  10   6 41035.1 1677.61   4
  -2  10   5 9547.67 859.927   4
  -2  10   5 9629.47 841.284  12
  -2  10   4 2037.69 424.198   4
  -2  10   4 2360.73 462.515  12
  -2  10   3 1902.20 401.662  12
  -2  10   3 1978.44 442.497   4
  -2  10   3 1711.31 371.210  24
  -2  10   2 13580.6 948.180  24
  -2  10   2 14926.3 1085.71   4
  -2  10   2 15554.0 1026.29  12
  -2  10   1 33575.9 1559.98   4
  -2  10   1 33776.3 1461.83  24
  -2  10   0 576.907 219.578   4
  -2  10   0 1714.66 352.922  24
  -2  10  -1 176.446 176.461  24
  -2  10  -2 2387.59 413.206  24
  -2  10  -3 216.441 200.480  24
  -2  10  -4 47383.7 1649.59  24
   2 -10   5 1994.17 371.386  13
  -2  10  -5 1851.28 370.627  24
   2 -10   6 17594.4 972.304  13
  -2  10  -6 17907.3 1033.12  24
   2 -10   7 7909.94 649.483  13
  -2  10  -7 8813.54 734.771  24
   2 -10   8 35920.8 1356.05  13
  -2  10  -8 34440.0 1460.88  24
  -2  10  -9 34865.7 1475.21  22
  -2  10  -9 34288.5 1481.78  24
  -2  10  -9 35292.0 1481.52  10
   2 -10  10 39753.5 1679.88  18
  -2  10 -10 42157.9 1637.64  10
  -2  10 -10 42055.4 1620.33  22
   2 -10  11-28.8124 228.172  18
  -2  10 -11 1035.57 300.740  10
  -2  10 -12 2730.62 441.129  10
  -2  10 -13 34399.4 1567.57   7
  -2  10 -13 35565.3 1445.94  10
  -2  10 -13 36188.2 1631.73   5
  -2  10 -14 2041.98 400.194   5
  -2  10 -14 1437.52 381.768   7
  -2  10 -15 5826.12 618.931   5
  -2  10 -15 6423.30 613.230   7
  -2  10 -16 637.965 218.444   7
  -2  10 -16 1004.28 256.754   5
  -2   9  10 1159.50 215.876  12
  -2   9   9 320.453 174.260  12
  -2   9   8 12360.8 846.911   4
  -2   9   8 11374.6 841.789  12
  -2   9   7 496.526 277.140   4
  -2   9   7 659.761 310.005  12
  -2   9   6 32606.7 1570.52   4
  -2   9   6 34971.8 1615.85  12
  -2   9   5 767.829 311.200  12
  -2   9   5 1028.11 378.572   4
   2  -9  -4 25063.4 1474.63   8
  -2   9   4 23891.0 1376.15   4
  -2   9   4 21252.0 1267.05  12
   2  -9  -3 59840.8 2175.97   8
  -2   9   3 54018.5 2014.39   4
  -2   9   3 59072.1 2005.26  12
  -2   9   3 58265.4 1887.83  24
  -2   9   2 1563.95 322.283  24
   2  -9  -2 1917.03 418.665   8
  -2   9   2 1440.22 351.539   4
  -2   9   1 4925.60 542.302  24
  -2   9   0 18240.5 995.290  24
  -2   9  -1 10854.4 758.751  24
  -2   9  -2 38485.7 1397.34  24
  -2   9  -3 12158.2 796.927  24
  -2   9  -4 108.622 183.110  24
  -2   9  -5 62.8109 187.632  24
  -2   9  -6 87789.9 2043.82  21
  -2   9  -6 88453.3 2145.98  24
   2  -9   6 90621.0 2033.30  13
   2  -9   7 29108.7 1148.47  13
  -2   9  -7 28669.7 1254.37  24
  -2   9  -8 48254.5 1656.43  24
  -2   9  -9 452.235 250.790  24
   2  -9  10 4176.56 568.481  18
  -2   9 -10 4922.15 571.929  22
  -2   9 -10 3683.96 497.067  10
  -2   9 -11 7545.06 784.597   5
  -2   9 -11 6233.62 624.296  10
   2  -9  11 6438.87 687.732  18
  -2   9 -12 1618.36 448.511   5
  -2   9 -12 1066.27 345.121   7
  -2   9 -12 941.505 278.543  10
  -2   9 -13 384.308 292.831   5
  -2   9 -13 486.123 275.364   7
  -2   9 -14 1337.62 375.135   5
  -2   9 -14 2023.15 415.350   7
  -2   9 -15 9087.74 801.830   5
  -2   9 -15 10956.6 794.621   7
  -2   9 -16 5060.12 544.032   5
  -2   9 -16 5177.92 487.118   7
  -2   9 -17 1281.88 239.486   5
  -2   8  10 10605.0 720.273  12
  -2   8   9 3178.13 433.605   4
  -2   8   9 3109.85 456.679  12
  -2   8   8 1871.13 428.310  12
  -2   8   8 2134.07 429.985   4
  -2   8   7 1020.23 306.398  12
  -2   8   7 1471.65 403.899   4
  -2   8   6 9365.73 867.469   4
  -2   8   6 10871.3 941.721  12
   2  -8  -5 33036.4 1726.61   8
  -2   8   5 29198.5 1351.69  23
  -2   8   5 29918.7 1503.07  12
  -2   8   5 30957.2 1543.03   4
   2  -8  -4 26929.3 1494.32   8
  -2   8   4 24850.2 1318.77  12
  -2   8   4 27788.7 1309.69  23
  -2   8   4 25359.4 1354.87   4
  -2   8   4 25487.8 1205.25  24
   2  -8  -3 16372.0 1106.56   8
  -2   8   3 15606.6 928.248  24
  -2   8   3 16349.6 988.141  23
   2  -8  -2 12484.0 902.024   8
  -2   8   2 11612.3 807.696  23
  -2   8   2 12092.7 796.737  24
   2  -8  -1 83636.1 2147.22   8
  -2   8   1 80030.3 2040.03  23
  -2   8   0 22725.1 1025.13  24
  -2   8   0 26242.5 1142.96  23
  -2   8  -1 10618.3 732.487  23
  -2   8  -1 10882.2 709.612  24
  -2   8  -2 28216.6 1111.65  24
  -2   8  -3 16082.8 843.373  24
  -2   8  -4 59093.1 1611.58  24
  -2   8  -4 57827.7 1581.35  21
  -2   8  -5-39.6458 203.987  24
  -2   8  -5-376.878 171.279  21
  -2   8  -6 52533.3 1488.35  21
   2  -8   6 51553.2 1420.04  13
  -2   8  -6 49773.2 1527.29  24
  -2   8  -7 1754.42 360.442  24
   2  -8   7 1861.31 291.947  13
  -2   8  -7 1621.77 288.772  21
  -2   8  -8 35987.1 1382.04  24
   2  -8   9 21573.2 1134.71  18
   2  -8  10 14999.7 992.067  18
  -2   8 -10 14328.9 921.838  22
   2  -8  11 6435.82 674.608  18
  -2   8 -11 6565.34 707.842   7
  -2   8 -11 6643.07 645.819  22
  -2   8 -12-119.144 258.520   7
  -2   8 -13 34025.7 1567.27   7
  -2   8 -14 1350.37 363.300   7
  -2   8 -15 2781.11 431.155   7
  -2   8 -15 2291.92 460.990   5
  -2   8 -16 943.209 288.858   5
  -2   8 -16 1240.12 277.649   7
  -2   8 -17 11008.4 666.654   5
  -2   7  11 196.697 195.751  12
  -2   7  10 3036.11 469.675  12
  -2   7   9 2056.70 384.951   4
  -2   7   9 1699.42 397.294  12
  -2   7   8 16755.0 1107.63   4
  -2   7   8 18735.3 1224.67  12
  -2   7   7 6075.72 722.553  12
  -2   7   7 5961.81 703.948   4
   2  -7  -6 53215.0 2193.13   8
  -2   7   6 49202.1 1919.10   4
  -2   7   6 50741.1 1955.12  12
   2  -7  -5 253.706 236.436   8
  -2   7   5 518.858 233.691  23
  -2   7   5-12.6995 171.941  12
  -2   7   5 567.756 237.070   4
   2  -7  -4 16996.1 1127.99   8
  -2   7   4 18098.6 1005.00  23
  -2   7   4 17974.5 949.684  24
  -2   7   3 77897.4 1982.09  23
  -2   7   3 78602.9 1907.25  24
   2  -7  -3 82046.4 2310.08   8
  -2   7   2 18833.0 899.239  24
  -2   7   2 17479.3 917.431  23
  -2   7   1 4903.07 460.157  24
  -2   7   1 4767.48 480.580  23
  -2   7   0 1965.64 308.597  24
  -2   7   0 1804.43 318.273  23
  -2   7  -1 40418.2 1272.14  23
  -2   7  -1 39217.2 1197.06  24
  -2   7  -2 87233.7 1772.31  24
  -2   7  -2 88731.7 1811.66  23
  -2   7  -3 8600.47 586.379  21
  -2   7  -3 8991.92 589.449  24
  -2   7  -4 32719.5 1100.47  21
  -2   7  -4 31087.1 1094.24  24
  -2   7  -5 4624.38 447.637  24
  -2   7  -5 3983.52 402.716  21
  -2   7  -6 29385.5 1114.83  24
   2  -7   6 26973.5 944.869  13
  -2   7  -6 27945.5 1027.02  21
  -2   7  -7 329.719 190.517  24
  -2   7  -7 443.305 172.653  21
  -2   7  -8 39132.3 1389.73  24
   2  -7   9 2873.75 429.727  18
   2  -7  10 10603.3 811.503  18
   2  -7  11 19354.4 1123.53  18
  -2   7 -11 18148.7 1146.48   7
  -2   7 -11 20109.7 1099.53  22
   2  -7  12 1200.97 322.002  18
  -2   7 -12 753.001 288.963   7
  -2   7 -13 3521.31 530.242   7
  -2   7 -14 2481.64 448.377   7
  -2   7 -15 6650.10 714.457   5
  -2   7 -15 6297.01 622.295   7
  -2   7 -16 598.738 281.878   5
  -2   7 -16 420.166 188.044   7
  -2   7 -17 547.840 196.923   5
  -2   6  12 1546.61 288.111  12
  -2   6  11 1834.41 375.541  12
  -2   6  10 16533.1 1102.87  12
  -2   6   9 8697.21 777.790   4
  -2   6   9 8747.13 847.075  12
  -2   6   8 1330.07 379.754  12
  -2   6   8 1308.27 343.097   4
   2  -6  -7 32564.6 1735.47   8
  -2   6   7 32082.2 1515.70   4
  -2   6   7 33168.7 1599.93  12
  -2   6   6 4304.95 570.846  12
  -2   6   6 4820.83 522.961  23
  -2   6   6 3634.06 506.143   4
   2  -6  -6 4295.25 624.288   8
  -2   6   5 34171.9 1332.73  23
  -2   6   4 998.388 270.664  23
  -2   6   3 3128.46 393.654  23
  -2   6   2 8505.44 560.674  24
  -2   6   2 8115.33 585.618  23
  -2   6   1 28330.0 1030.20  23
  -2   6   1 26548.9 945.946  24
  -2   6   0 26510.2 915.595  24
  -2   6   0 25106.0 936.122  23
  -2   6  -1 586.671 189.017  24
  -2   6  -1 430.544 188.275  23
  -2   6  -2 6893.61 478.211  24
  -2   6  -2 6853.23 490.063  21
  -2   6  -2 6759.60 466.398  23
  -2   6  -3 25356.1 897.726  24
  -2   6  -3 25259.8 905.924  21
  -2   6  -4 90335.0 1689.01  21
  -2   6  -4 87048.9 1701.42  24
   2  -6   5 33228.2 952.273  13
  -2   6  -5 31096.2 1057.06  24
  -2   6  -5 33938.4 1048.67  21
  -2   6  -6-1.15567 114.243  21
   2  -6   6 64.0705 87.6727  13
  -2   6  -6-59.8499 157.598  24
  -2   6  -7 81760.0 1747.20  21
  -2   6  -7 82895.8 1872.93  24
   2  -6   8 867.513 234.600  18
  -2   6  -8 819.294 214.390  21
   2  -6   9 7828.46 659.844  18
   2  -6  10 91.9154 168.039  18
  -2   6 -11 2755.11 491.987   7
  -2   6 -11 2898.85 426.401  22
   2  -6  11 2383.47 415.094  18
   2  -6  12 1984.91 379.736  18
  -2   6 -12 1750.39 419.673   7
  -2   6 -13 15388.3 1056.87   7
  -2   6 -14 554.940 262.978   7
  -2   6 -15-82.3894 209.186   7
  -2   6 -16 9054.02 735.374   5
  -2   6 -16 8380.01 593.559   7
  -2   6 -17 2747.08 342.651   5
  -2   5  13 1139.00 241.375  12
  -2   5  12 11892.3 820.009  12
  -2   5  11 856.159 353.335  12
  -2   5  10-20.8995 293.170  12
  -2   5   9 33.3157 215.065  12
   2  -5  -8 9682.32 962.270   8
  -2   5   8 9969.54 828.267   4
  -2   5   8 9053.47 855.035  12
  -2   5   7 41695.1 1733.97  12
  -2   5   7 41258.9 1640.54   4
  -2   5   6 9278.02 689.552  23
  -2   5   5 25383.7 1074.32  23
  -2   5   4 97.2842 145.729  23
  -2   5   3 62151.2 1514.46  23
  -2   5   2 55549.7 1277.99  24
  -2   5   2 58177.3 1397.69  23
  -2   5   1 136.999 148.264  23
  -2   5   1 35.7017 128.231  24
  -2   5   0 12948.4 581.862  24
  -2   5   0 12171.8 598.727  23
  -2   5  -1 162459. 2020.28  24
  -2   5  -1 159526. 2041.79  23
  -2   5  -1 164487. 2190.20  21
  -2   5  -2 21444.8 777.885  21
  -2   5  -2 20786.0 713.770  23
  -2   5  -2 22116.8 757.414  24
  -2   5  -3 1587.71 233.775  21
  -2   5  -3 1886.81 254.975  24
   2  -5   3 1561.93 166.831  25
  -2   5  -4 32733.4 952.583  21
  -2   5  -4 34643.3 1003.62  24
  -2   5  -5 37381.5 1064.57  21
  -2   5  -5 36519.8 1084.02  24
   2  -5   5 38269.9 911.039  13
  -2   5  -6 52790.1 1377.02  24
  -2   5  -6 52827.7 1323.38  21
   2  -5   7 16906.7 821.080  18
  -2   5  -7 16802.5 795.233  21
   2  -5   8 9135.24 649.853  18
  -2   5  -8 9385.33 636.906  21
   2  -5   9 23400.3 1087.50  18
  -2   5  -9 23226.6 1049.40  21
   2  -5  10 9787.41 748.697  18
   2  -5  11 40682.5 1587.21  18
  -2   5 -11 41466.1 1700.37   7
  -2   5 -11 42329.6 1602.44  22
   2  -5  12-63.4740 147.510  18
  -2   5 -12 47.1421 248.939   7
  -2   5 -13 404.906 252.543   7
  -2   5 -14 6039.74 652.513   7
  -2   5 -15 8709.11 693.582   7
  -2   5 -16 1625.00 321.501   5
  -2   5 -16 1624.18 268.266   7
   2  -4 -13-23.4033 115.014   9
  -2   4  13 414.284 193.430  12
   2  -4 -12 10005.6 750.049   9
  -2   4  12 9293.97 791.318  12
  -2   4  11 1384.92 360.987  12
   2  -4 -11 953.770 268.958   9
  -2   4  10 2306.81 474.697  12
   2  -4 -10 2868.00 465.827   9
   2  -4  -9 1326.21 377.101   8
  -2   4   9 1702.80 419.696  12
   2  -4  -9 1654.26 358.278   9
  -2   4   8 122.471 178.050  12
  -2   4   7 35182.1 1289.78  23
  -2   4   6 52080.4 1507.26  23
  -2   4   5 51893.6 1419.50  23
  -2   4   4 51064.4 1325.60  23
  -2   4   3 43939.0 1166.85  23
   2  -4  -2 19917.1 661.669  20
  -2   4   2 18888.5 733.885  23
  -2   4   2 19185.7 673.279  24
  -2   4   1 144905. 1902.77  23
  -2   4   1 142540. 1746.11  24
   2  -4   0 13331.3 537.633  20
   2  -4   0 11851.3 480.235  16
  -2   4   0 12182.7 512.602  24
  -2   4   0 11095.8 513.680  23
  -2   4   0 12953.5 588.708  21
   2  -4   1 130.464 78.9073  20
  -2   4  -1 82.0063 99.0463  23
   2  -4   1 138.526 70.6821  16
  -2   4  -1 115.877 88.6989  24
  -2   4  -1-15.0382 92.1883  21
  -2   4  -2 171.274 90.5159  23
   2  -4   2-7.87149 49.1293  25
  -2   4  -2 243.654 126.606  24
  -2   4  -2 391.972 141.991  21
   2  -4   3 8020.05 322.062  25
  -2   4  -3 7507.07 427.993  24
  -2   4  -3 7296.97 426.975  21
  -2   4  -4 162871. 2067.21  24
  -2   4  -4 163336. 2064.04  21
  -2   4  -5 93001.9 1667.00  24
  -2   4  -5 91935.2 1651.22  21
   2  -4   6 252.405 136.261  18
  -2   4  -6 359.601 163.384  21
   2  -4   7 147446. 2329.57  18
  -2   4  -7 144309. 2354.62  21
   2  -4   8 474.641 189.756  18
  -2   4  -8 344.455 166.623  21
   2  -4   9 65412.7 1772.27  18
  -2   4  -9 64088.6 1790.61  21
   2  -4  10 10391.6 769.756  18
   2  -4  11 8295.19 725.248  18
  -2   4 -11 9677.93 840.133   7
  -2   4 -12 3154.57 508.968   7
  -2   4 -13 34699.0 1547.95   7
  -2   4 -13 34294.9 1524.61   9
  -2   4 -14 3106.20 470.721   7
  -2   4 -14 2594.42 415.580   9
  -2   4 -15-17.4356 219.796   5
  -2   4 -15-28.0123 80.6007   9
  -2   4 -15 8.91635 167.291   7
  -2   4 -16 4723.83 409.428   7
  -2   4 -16 5274.27 511.277   5
  -2   3  14 6162.06 518.784  12
   2  -3 -14 5983.01 486.654   9
  -2   3  13 2948.70 449.642  12
   2  -3 -13 1743.06 337.314   9
   2  -3 -12 6104.31 647.560   9
  -2   3  12 8400.71 785.165  12
  -2   3  11 12930.0 1016.88  12
   2  -3 -11 12515.3 946.521   9
   2  -3 -10 6001.95 751.189   8
  -2   3  10 6455.15 735.381  12
   2  -3 -10 5792.47 655.651   9
  -2   3   9 7150.53 740.018  12
   2  -3  -9 6905.62 685.681   9
  -2   3   7 95855.1 2015.43  23
  -2   3   7 95811.7 2176.17  18
  -2   3   6 47.8520 176.626  18
  -2   3   6 453.672 175.948  23
  -2   3   5 21002.8 842.518  23
  -2   3   5 19741.4 846.658  18
   2  -3  -4 666.363 153.027  19
  -2   3   4 1096.78 217.156  23
   2  -3  -3 103808. 1374.72  20
  -2   3   3 104206. 1643.37  23
   2  -3  -3 102202. 1741.94  16
  -2   3   2 114796. 1627.75  23
  -2   3   2 114423. 1403.41  24
   2  -3  -2 116977. 1469.20  20
   2  -3  -1 362336. 2690.10  16
  -2   3   1 373305. 2464.90  24
   2  -3  -1 385612. 2658.62  20
  -2   3   1 373287. 2753.44  23
  -2   3   1 356516. 2943.46  21
  -2   3   0 44581.9 987.220  21
  -2   3   0 45534.8 863.492  24
  -2   3   0 45586.8 910.219  23
   2  -3   0 47275.9 939.902  20
   2  -3   0 46399.5 847.116  16
   2  -3   1 19135.4 544.301  25
  -2   3  -1 20099.6 594.593  24
  -2   3  -1 19768.5 571.585  23
  -2   3  -2 36408.0 734.913  23
   2  -3   2 40252.1 864.278  20
  -2   3  -2 40222.5 874.166  24
   2  -3   2 37764.8 691.692  25
  -2   3  -2 36970.8 876.814  21
   2  -3   3 23193.8 649.202  19
   2  -3   3 24760.5 686.638  20
  -2   3  -3 23836.1 715.455  24
  -2   3  -3 22770.2 734.878  21
   2  -3   4 4910.32 315.730  20
   2  -3   4 4913.60 340.160  19
  -2   3  -4 4834.58 362.588  24
   2  -3   4 4682.27 188.758  27
  -2   3  -4 5097.85 379.735  21
   2  -3   5 145924. 1920.20  18
   2  -3   5 145829. 1674.50  20
  -2   3  -5 150466. 2125.65  21
  -2   3  -6 101692. 1889.91  21
   2  -3   6 96518.6 1715.49  18
   2  -3   7 152150. 2318.70  18
  -2   3  -7 154823. 2496.26  21
   2  -3   8 8270.12 602.475  18
  -2   3  -8 8593.22 647.924  21
   2  -3   9 15641.2 875.474  18
  -2   3  -9 14589.3 894.264  21
  -2   3 -10 912.518 264.922  21
   2  -3  10 513.307 217.503  18
  -2   3 -11 107633. 2741.34   7
   2  -3  11 107721. 2523.29  18
  -2   3 -11 105704. 2676.50   9
  -2   3 -12 1773.77 376.130   9
  -2   3 -12 1890.96 389.726   7
  -2   3 -13 8777.67 794.143   9
  -2   3 -13 9004.12 811.536   7
  -2   3 -14 1988.46 364.706   9
  -2   3 -14 1306.60 331.367   7
  -2   3 -15 8536.32 725.392   5
  -2   3 -15 8545.55 631.322   9
  -2   3 -15 9567.19 665.333   7
  -2   3 -16 3544.62 391.654   5
   2  -2 -14 18905.1 972.861   9
  -2   2  14 19929.3 1005.33  12
   2  -2 -13 1324.22 327.318   9
  -2   2  13 1076.80 333.141  12
  -2   2  12 1532.22 383.054  12
   2  -2 -12 1191.99 328.749   9
   2  -2 -11-311.480 201.222   9
  -2   2  11-11.3934 263.744  12
  -2   2  10 3546.15 536.780  12
   2  -2 -10 2014.55 415.551   9
  -2   2  10 2431.62 447.917  18
  -2   2   9 21498.7 1132.15  18
  -2   2   8 12231.0 730.201  23
  -2   2   8 11445.7 786.391  18
  -2   2   7 29655.3 1145.85  18
  -2   2   6 1437.11 264.705  18
  -2   2   5 206788. 2492.94  18
   2  -2  -4 26466.4 639.678  20
  -2   2   4 25096.8 795.117  18
   2  -2  -4 25364.1 881.140  16
   2  -2  -4 25374.5 717.194  19
   2  -2  -3 33109.2 735.961  20
   2  -2  -3 31637.7 692.843  19
  -2   2   3 31409.5 801.884  18
   2  -2  -2 39151.8 801.977  20
  -2   2   2 38413.1 685.790  24
  -2   2   1 956638. 3686.12  26
  -2   2   1 963085. 3362.11  24
   2  -2  -1 956876. 4066.25  25
   2  -2  -1 967580. 3966.95  16
  -2   2   1 955210. 4225.16  21
  -2   2   0 29312.2 614.193  24
   2  -2   0 29143.8 658.005  25
   2  -2   1 3740.59 225.973  25
  -2   2  -1 3736.88 240.461  24
  -2   2  -1 3953.53 224.285  23
   2  -2   2 34843.4 761.788  20
   2  -2   2 34469.7 662.994  19
   2  -2   3 256.257 88.5911  20
   2  -2   3-45.3959 42.4185  27
  -2   2  -3 60.4078 100.074  24
   2  -2   3 219.946 95.8651  19
  -2   2  -3 91.6271 100.254  21
  -2   2  -3 52.9249 54.4607  26
   2  -2   4 1759.73 180.602  20
   2  -2   4 1902.31 213.342  19
   2  -2   4 1761.36 193.498  18
  -2   2  -4 1610.41 171.313  26
   2  -2   4 1793.83 127.776  27
  -2   2  -4 1916.74 253.932  21
  -2   2  -5 55781.3 1074.42  26
  -2   2  -5 53465.9 1300.53  21
   2  -2   5 51794.7 1118.26  18
  -2   2  -6 10678.3 640.950  21
   2  -2   6 10498.5 563.736  18
   2  -2   7 655.566 192.542  18
  -2   2  -7 355.293 190.732  21
  -2   2  -8 472.962 214.589  21
   2  -2   8 170.501 141.890  18
  -2   2  -9 33546.9 1395.53  21
   2  -2   9 33507.1 1279.45  18
  -2   2 -10 11932.5 901.211   9
   2  -2  10 11954.2 820.421  18
  -2   2 -10 12164.5 892.197  21
  -2   2 -10 12441.4 913.316   7
  -2   2 -11 8287.02 790.055   9
   2  -2  11 9498.07 766.520  18
  -2   2 -11 8738.80 808.688   7
  -2   2 -12 7383.29 767.576   9
  -2   2 -12 8096.50 768.730   7
  -2   2 -13 15504.1 1019.51   7
  -2   2 -13 14384.1 1011.79   9
  -2   2 -14 1334.14 321.876   9
  -2   2 -14 1027.00 298.885   7
  -2   2 -15 4553.62 456.384   9
  -2   2 -15 4539.84 493.431   5
  -2   2 -15 4504.75 434.308   7
   2  -1 -15 792.513 225.951   9
  -2   1  15 782.952 202.942  12
   2  -1 -14 703.693 269.171   9
  -2   1  14 610.011 254.454  12
   2  -1 -13 1129.69 351.611   9
  -2   1  13 1094.68 351.257  12
   2  -1 -12 384.174 262.185   9
  -2   1  12 193.114 203.020  12
  -2   1  11 38282.4 1610.28  18
   2  -1 -11 39415.5 1689.36   9
  -2   1  11 37466.3 1712.70  12
  -2   1  10 9457.49 782.967  18
  -2   1  10 9347.75 831.211  12
  -2   1  10 8980.33 819.072   1
   2  -1 -10 7924.60 740.029   9
  -2   1   9 52692.7 1693.13  18
  -2   1   8 11605.7 748.428  18
  -2   1   7 42945.1 1294.30  18
  -2   1   6 440.566 159.137  18
   2  -1  -6 566.866 198.825  16
   2  -1  -5 32068.5 1019.98  16
  -2   1   5 31262.5 914.722  18
   2  -1  -5 29792.0 810.242  19
   2  -1  -4 38051.9 739.452  20
  -2   1   4 37640.5 884.679  18
   2  -1  -4 37542.5 776.710  19
   2  -1  -4 37604.3 912.442  25
   2  -1  -4 39465.8 1017.21  16
   2  -1  -3 78461.9 1295.17  16
   2  -1  -3 80371.3 1236.73  25
  -2   1   3 77687.8 1103.16  18
  -2   1   2 963393. 3945.36  26
   2  -1  -2 954774. 4019.92  25
   2  -1  -1 530.667 105.673  25
  -2   1   1 936.677 131.357  21
   2  -1   0 2087.17 93.6088  19
   2  -1   0 2278.00 194.204  25
  -2   1   0 2001.38 184.480  21
   2  -1   1 4627.71 200.172  19
  -2   1  -1 5091.18 270.020  24
  -2   1  -1 4967.81 252.521  25
  -2   1  -2 2702.56 183.345  25
   2  -1   2 2770.57 184.265  27
  -2   1  -2 2339.31 184.892  26
   2  -1   3 13761.5 462.459  20
  -2   1  -3 14630.6 593.809  21
  -2   1  -3 14843.2 409.247  25
  -2   1  -3 13954.6 486.444  26
   2  -1   3 14065.4 397.754  27
   2  -1   3 13665.8 439.946  18
   2  -1   4 38874.4 767.561  20
  -2   1  -4 37967.7 656.109  25
  -2   1  -4 37253.0 889.083  26
   2  -1   4 37294.0 837.600  18
  -2   1  -5 107009. 1676.97  26
   2  -1   5 107566. 1596.30  18
   2  -1   6 19223.6 751.508  18
   2  -1   7 28096.9 996.996  18
   2  -1   8 12413.3 733.743  18
   2  -1   9 16397.4 907.546  18
  -2   1  -9 17777.4 1063.96  21
  -2   1 -10 74789.0 2283.11   9
  -2   1 -10 76195.3 2260.71   7
  -2   1 -10 73564.4 2233.55  21
   2  -1  10 72639.4 2012.59  18
  -2   1 -11 52630.8 1985.96   9
  -2   1 -11 52887.9 1933.63  21
  -2   1 -11 52681.0 1935.18   7
  -2   1 -12 30903.4 1518.49   9
  -2   1 -12 28322.1 1403.51   7
  -2   1 -13 2727.63 446.893   9
  -2   1 -13 2433.56 444.268   7
  -2   1 -14 4985.46 543.373   9
  -2   1 -14 4861.49 536.418   5
  -2   1 -14 5002.30 514.232   7
  -2   1 -15 104.169 116.319   7
  -2   1 -15-179.756 134.579   9
   2   0 -16 5312.90 453.177   9
   2   0 -15 2362.54 387.591   9
  -2   0  15 2618.08 376.662  12
   2   0 -14 27999.0 1359.51   9
  -2   0  14 27734.0 1322.65  12
   2   0 -13 14783.5 1042.19   9
  -2   0  13 13655.0 1008.48  12
  -2   0  12 5776.01 679.673  12
   2   0 -12 7084.48 742.815   9
  -2   0  11 22544.1 1219.80  18
  -2   0  11 23667.4 1323.35  12
   2   0 -11 24974.8 1336.05   9
  -2   0  11 23086.6 1310.66   1
  -2   0  10 17181.5 1005.08  18
  -2   0   9 115628. 2404.33  18
  -2   0   8 1490.29 289.240  18
  -2   0   7 10082.0 607.068  18
   2   0  -7 10124.6 650.458  16
   2   0  -6 36264.6 1118.41  16
  -2   0   6 37482.5 1037.89  18
  -2   0   5 25501.1 765.721  18
   2   0  -5 25778.6 850.913  16
   2   0  -5 27287.0 773.522  25
  -2   0   4 50058.8 940.693  18
   2   0  -4 50742.3 986.844  25
   2   0  -4 50323.0 1082.75  16
  -2   0   3 47794.7 776.049  18
   2   0  -3 47285.4 898.635  25
   2   0  -2 680362. 3218.27  25
  -2   0   1 36458.3 715.333  26
  -2   0   0 479.781 63.4082  19
  -2   0   0 396.408 108.747  21
  -2   0   0 570.306 111.802  25
  -2   0  -1 54189.8 734.479  19
   2   0   1 55755.9 848.723  27
  -2   0  -1 58244.0 931.399  26
  -2   0  -1 56538.5 993.052  21
  -2   0  -2 16657.8 512.369  19
  -2   0  -2 17899.8 564.975  26
   2   0   2 16619.1 475.107  27
   2   0   3 101709. 1194.82  18
  -2   0  -3 101777. 1458.43  19
   2   0   4 112566. 1261.39  20
  -2   0  -4 112038. 1745.44  19
   2   0   4 113324. 1483.79  18
  -2   0  -4 115176. 1730.78  26
   2   0   5 34915.3 940.694  18
   2   0   6 5401.82 419.071  18
   2   0   7 158.477 142.798  18
  -2   0  -8 21149.4 1051.54  26
   2   0   8 22973.4 1014.71  18
   2   0   9 7042.70 613.092  18
  -2   0  -9 6817.13 646.897  26
  -2   0 -10 13.5955 197.504   7
  -2   0 -10 411.354 217.097   9
  -2   0 -10 104.422 225.040  21
  -2   0 -11 301.274 218.883   9
  -2   0 -11-188.938 216.500   7
  -2   0 -12 18474.4 1169.84   9
  -2   0 -12 18552.5 1118.33   7
  -2   0 -13 3390.02 494.828   9
  -2   0 -13 4478.79 525.024   7
  -2   0 -14 205.586 166.384   9
  -2   0 -14 133.716 154.173   7
   2   1 -16 11491.6 732.374   9
   2   1 -15 481.994 250.882   9
  -2  -1  15 207.819 187.716  12
  -2  -1  14 3540.40 513.301  12
   2   1 -14 3583.37 540.801   9
   2   1 -13 1246.20 368.464   9
  -2  -1  13 1454.11 359.366  12
  -2  -1  12 364.989 228.421  18
   2   1 -12 471.537 268.937   9
  -2  -1  12 313.976 197.272  12
  -2  -1  12-69.6360 204.654   1
  -2  -1  11 25680.1 1274.74  18
  -2  -1  11 29165.1 1438.05   1
  -2  -1  10 2780.26 425.477  18
  -2  -1   9 75601.1 1875.82  18
  -2  -1   8 87.2874 154.398  18
   2   1  -8 79.6660 149.707  16
  -2  -1   7 70899.7 1525.72  18
   2   1  -7 70148.5 1589.02  16
   2   1  -6 1640.02 261.008  16
   2   1  -6 1362.09 183.490  25
  -2  -1   6 1078.50 200.903  18
  -2  -1   5 34099.4 845.877  18
   2   1  -5 36304.5 952.167  16
   2   1  -5 34225.9 817.552  25
  -2  -1   4 100981. 1097.24  19
  -2  -1   4 99102.0 1243.04  18
  -2  -1   4 99612.5 1422.86  26
  -2  -1   3 27551.1 445.508  19
  -2  -1   3 28136.9 662.925  25
  -2  -1   2 1449.73 155.261  13
   2   1   0 2326.93 195.197  27
  -2  -1  -1 39837.7 865.464  26
   2   1   1 40689.9 781.718  27
  -2  -1  -2 32233.4 772.093  19
  -2  -1  -2 33243.3 857.343  26
   2   1   2 32869.1 746.145  27
  -2  -1  -3 210672. 2266.37  19
  -2  -1  -3 210972. 1952.64  27
  -2  -1  -3 208517. 2337.11  26
   2   1   3 212962. 1867.53  18
   2   1   4 21449.4 687.187  18
  -2  -1  -4 20755.4 649.769  27
  -2  -1  -4 21592.1 833.017  26
   2   1   5 74111.0 1434.10  18
   2   1   6 13360.1 681.549  18
   2   1   7 10408.6 656.743  18
   2   1   8 46.0809 154.311  18
  -2  -1  -8 33.8158 155.076  26
   2   1   9 3269.53 437.476  18
  -2  -1  -9 3068.94 497.042   7
  -2  -1  -9 3574.00 499.605  26
  -2  -1  -9 3616.96 537.208   9
  -2  -1 -10 9802.77 888.401   9
  -2  -1 -10 10617.1 885.207   7
  -2  -1 -11 163.302 220.153   7
  -2  -1 -11 143.246 220.826   9
  -2  -1 -12 12613.3 956.237   9
  -2  -1 -12 12777.2 903.348   7
  -2  -1 -13 2255.38 365.383   7
  -2  -1 -13 1991.62 363.237   9
  -2  -1 -14 14196.3 781.038   9
   2   2 -17 1629.08 260.733   9
   2   2 -16 4708.95 523.166   9
   2   2 -15-76.3519 259.710   9
   2   2 -14 16388.5 1112.81   9
  -2  -2  14 16078.2 1048.97  12
   2   2 -13 27769.8 1460.74   9
  -2  -2  13 26295.0 1384.03  12
  -2  -2  13 27476.1 1432.38   1
  -2  -2  12 145.715 201.567  18
  -2  -2  12-324.330 239.149   1
  -2  -2  11 56255.5 1824.97  18
  -2  -2  11 58414.0 1983.78   1
   2   2 -11 58231.7 1908.37  10
  -2  -2  10 914.004 260.566  18
  -2  -2   9 54444.4 1556.14  18
   2   2  -8 17542.9 818.177  16
  -2  -2   8 17944.5 820.879  18
   2   2  -7 16527.4 740.699  16
  -2  -2   7 16488.8 726.778  18
  -2  -2   6 196905. 2075.86  19
  -2  -2   6 203882. 2263.83  18
   2   2  -6 203821. 2361.39  16
  -2  -2   5 22610.9 617.796  19
  -2  -2   5 21949.0 665.759  18
  -2  -2   5 22327.7 726.066  26
  -2  -2   5 20803.2 704.691  13
  -2  -2   4 47867.8 784.092  19
  -2  -2   4 48570.3 990.091  13
  -2  -2   4 47565.3 980.690  26
  -2  -2   4 46907.3 840.524  18
  -2  -2   3 246.497 80.1013  25
  -2  -2   3 181.395 83.1479  13
  -2  -2   2 118360. 1287.12  13
   2   2  -2 117354. 1353.36  27
   2   2  -1 1807.32 182.719  27
   2   2   0 63271.4 1038.70  27
  -2  -2  -1 32212.4 780.113  27
   2   2   1 30586.3 763.161  27
  -2  -2  -1 30241.0 842.450  26
   2   2   2 4044.60 250.986  18
  -2  -2  -2 3930.90 292.647  27
  -2  -2  -2 4247.43 349.123  26
  -2  -2  -3 127836. 1987.57  26
   2   2   3 134292. 1618.13  18
  -2  -2  -4 36182.8 1154.22  26
   2   2   4 37171.4 972.786  18
   2   2   5 48184.1 1230.66  18
  -2  -2  -5 47214.6 1429.42  26
   2   2   6 101.373 128.475  18
  -2  -2  -6 336.042 212.960  26
   2   2   7 25315.1 1071.29  18
  -2  -2  -7 26505.4 1254.12  26
  -2  -2  -8 16052.2 1076.24   9
   2   2   8 14217.1 859.586  18
  -2  -2  -8 15375.5 1018.55  26
  -2  -2  -8 14527.0 971.217   7
  -2  -2  -9 23053.1 1337.69   9
  -2  -2  -9 21732.3 1237.33   7
  -2  -2  -9 23304.3 1290.38  26
  -2  -2 -10 6914.51 758.271   9
  -2  -2 -10 6006.90 678.222   7
  -2  -2 -11 3454.68 532.326   9
  -2  -2 -11 3566.29 523.140   7
  -2  -2 -12 32675.5 1471.41   9
  -2  -2 -12 33439.4 1374.39   7
  -2  -2 -13 73.0588 141.518   9
  -2  -2 -14 2758.76 315.869   9
   2   3 -17-50.4027 165.572   9
   2   3 -16 9721.30 769.248   9
   2   3 -15 20149.4 1197.46   9
  -2  -3  14 4962.02 597.687  12
  -2  -3  14 4693.58 609.010   1
   2   3 -14 5480.52 673.629   9
   2   3 -13 29931.4 1458.70  10
  -2  -3  13 25282.3 1372.60   1
  -2  -3  12 3216.51 495.084   1
   2   3 -12 3174.67 481.110  10
  -2  -3  12 2841.14 461.747  18
  -2  -3  11 269.119 241.113  18
  -2  -3  10 317.221 198.378  18
  -2  -3   9 69344.9 1718.75  18
   2   3  -9 66696.4 1629.84  16
   2   3  -8 327.921 141.836  16
  -2  -3   8 482.067 185.097  18
   2   3  -7 42608.1 1125.82  16
  -2  -3   7 39637.2 1128.34  13
  -2  -3   7 41855.8 1140.69  18
  -2  -3   6 114133. 1602.69  19
  -2  -3   6 116456. 1783.88  13
  -2  -3   6 113744. 1729.63  26
   2   3  -6 111537. 1464.34  27
  -2  -3   6 115741. 1708.03  18
  -2  -3   5 9256.43 416.590  19
  -2  -3   5 8995.16 433.198  18
  -2  -3   5 8445.11 460.675  13
  -2  -3   5 8719.35 452.717  26
   2   3  -5 8699.52 404.055  27
  -2  -3   5 10278.7 435.189  25
  -2  -3   4 30730.4 815.900  13
  -2  -3   4 30893.1 803.706  26
  -2  -3   4 32969.9 765.797  25
   2   3  -4 30263.0 744.093  27
  -2  -3   3 25157.4 703.776  26
   2   3  -3 24435.8 667.413  27
  -2  -3   3 23109.8 659.976  13
  -2  -3   2 80067.5 1118.46  13
  -2  -3   2 77892.0 1242.36  26
   2   3  -2 76085.5 1192.19  27
  -2  -3   1 85332.8 1066.93  13
   2   3  -1 84588.1 1273.14  27
  -2  -3   0 22166.8 512.427  13
  -2  -3   0 22752.6 731.802  26
   2   3   0 23800.8 711.706  27
  -2  -3   0 24781.1 730.193  27
  -2  -3  -1 51929.7 1181.55  26
  -2  -3  -2 66593.5 1446.29  26
  -2  -3  -3 14966.0 751.376  26
  -2  -3  -4 165.789 175.181  26
  -2  -3  -5 35721.1 1336.70  26
  -2  -3  -6 10584.9 796.270  26
  -2  -3  -7 7246.02 712.294  26
  -2  -3  -8 3036.39 510.256   9
  -2  -3  -8 3576.08 514.912   7
  -2  -3  -8 3423.28 528.849  26
  -2  -3  -9 14066.6 1088.44   9
  -2  -3  -9 13026.6 979.302   7
  -2  -3 -10 32038.7 1589.76   9
  -2  -3 -10 33181.5 1513.49   7
  -2  -3 -11 729.907 321.533   9
  -2  -3 -11 969.826 310.972   7
  -2  -3 -12 520.084 252.958   9
  -2  -3 -13 1027.56 235.603   9
   2   4 -17 9857.13 684.210   9
   2   4 -16 3763.06 519.817   9
   2   4 -15 17111.3 1128.58   9
  -2  -4  15 16761.3 1043.29   1
  -2  -4  14 6965.87 735.621   1
   2   4 -14 6685.91 709.977  10
  -2  -4  13 25742.8 1335.33  18
  -2  -4  13 23774.0 1317.36   1
   2   4 -13 27144.7 1387.96  10
  -2  -4  12 4446.35 570.420   1
  -2  -4  12 4593.81 570.020  18
   2   4 -12 5004.79 597.997  10
  -2  -4  11 53264.7 1729.03  18
  -2  -4  10 211.951 180.134  18
  -2  -4   9 1086.19 242.378  18
  -2  -4   8 32308.2 1096.21  18
  -2  -4   8 32079.6 1103.18  13
   2   4  -8 34037.0 1045.69  16
  -2  -4   7 1143.40 244.449  13
  -2  -4   7 653.423 183.253  18
  -2  -4   6 97548.1 1598.80  18
  -2  -4   6 98650.4 1685.35  13
   2   4  -6 93035.9 1370.66  27
  -2  -4   6 95491.9 1564.72  26
  -2  -4   6 100345. 1396.16  25
  -2  -4   5 6427.97 397.536  26
  -2  -4   5 6946.94 431.020  13
  -2  -4   5 6736.60 364.756  25
   2   4  -5 6526.93 365.555  27
  -2  -4   4 24035.9 741.902  13
  -2  -4   4 23997.0 724.365  26
   2   4  -4 23463.7 696.369  27
  -2  -4   3 5859.26 355.021  13
   2   4  -3 6124.77 364.925  27
  -2  -4   3 6143.69 371.752  26
   2   4  -2 77130.3 1305.27  27
  -2  -4   2 76314.2 1190.59  13
  -2  -4   2 78346.8 1309.49  27
  -2  -4   1 48104.8 1094.62  26
  -2  -4   1 49817.5 909.482  13
  -2  -4   0 35761.5 734.489  13
  -2  -4   0 34947.2 983.895  26
  -2  -4  -1 29660.1 975.258  26
  -2  -4  -2 1073.04 247.553  26
  -2  -4  -3 80487.4 1856.23  26
  -2  -4  -4 25808.8 1154.11  26
  -2  -4  -5 48532.3 1676.39  26
  -2  -4  -6 2936.74 472.500  26
  -2  -4  -7 38707.8 1710.22   9
  -2  -4  -7 40386.5 1654.82   7
  -2  -4  -7 42787.7 1745.93  26
  -2  -4  -8 10123.5 911.212   9
  -2  -4  -8 8281.56 816.515  26
  -2  -4  -8 9658.43 837.182   7
  -2  -4  -9 13523.3 1054.06   9
  -2  -4  -9 13538.3 991.132   7
  -2  -4 -10 1155.94 381.203   9
  -2  -4 -10 1029.66 315.732   7
  -2  -4 -11 397.388 252.092   9
  -2  -4 -12 29533.7 1188.54   9
   2   5 -18 5073.39 424.072   9
   2   5 -17 2145.64 374.565   9
   2   5 -16 14670.8 984.745   9
  -2  -5  15 154.221 200.993   1
   2   5 -14 346.884 306.990  10
  -2  -5  14 195.068 199.355   1
  -2  -5  13 15892.6 1043.20  18
   2   5 -13 16283.4 1078.54  10
  -2  -5  13 15613.3 1069.87   1
  -2  -5  12 1693.71 367.199  18
  -2  -5  12 1599.27 382.258   1
   2   5 -12 1650.93 364.581  10
  -2  -5  11 316.679 207.827  18
  -2  -5  10 2566.73 386.427  18
  -2  -5   9 164450. 2666.28  18
  -2  -5   9 164505. 2665.14  13
  -2  -5   8 30798.5 1090.68  18
  -2  -5   8 31971.4 1121.18  13
  -2  -5   7 55761.2 1351.51  18
  -2  -5   7 55597.3 1395.41  13
  -2  -5   7 55019.6 1247.42  26
  -2  -5   6 28603.7 953.259  13
  -2  -5   6 28975.0 870.787  26
   2   5  -5 79573.9 1348.42  27
  -2  -5   5 77630.7 1371.66  26
  -2  -5   4 178598. 2130.84  13
   2   5  -4 176582. 2053.10  27
  -2  -5   4 177961. 2048.92  26
   2   5  -3 275.409 108.364  27
  -2  -5   3 163.973 104.851  13
  -2  -5   3 110.035 88.5197  26
  -2  -5   2 172984. 2133.43  26
  -2  -5   2 171638. 1945.97  13
  -2  -5   1 71772.4 1211.96  13
  -2  -5   1 70370.7 1429.62  26
  -2  -5   0 41771.7 1164.49  26
  -2  -5  -1 57305.4 1471.63  26
  -2  -5  -2 32404.8 1183.22  26
  -2  -5  -3 9947.22 724.451  26
  -2  -5  -4 1404.86 345.964  26
  -2  -5  -5 97226.3 2489.20  26
  -2  -5  -6 723.421 294.194   9
  -2  -5  -6 493.351 250.118   7
   2   5   6 999.425 307.290  12
  -2  -5  -6 740.440 296.498  26
  -2  -5  -7 355.522 283.938   9
  -2  -5  -7 1016.17 320.400   7
   2   5   7 1125.01 298.405  12
  -2  -5  -7 1144.38 364.652  26
  -2  -5  -8 44.4005 231.928   9
  -2  -5  -8 253.185 233.494   7
  -2  -5  -9 534.609 325.547   9
  -2  -5 -10 61779.4 2030.46   9
  -2  -5 -11 32.4313 141.148   9
  -2  -5 -12 7247.64 516.303   9
   2   6 -18 274.073 140.611   9
   2   6 -17 291.254 210.794   9
   2   6 -16 4909.71 599.657   9
  -2  -6  16 4305.58 498.526   1
  -2  -6  15 14544.4 978.130   1
   2   6 -15 14417.6 1000.85  10
   2   6 -14 3052.77 521.971  10
  -2  -6  14 2997.79 492.093   1
  -2  -6  13 571.262 247.884  18
  -2  -6  13 688.607 278.737   1
   2   6 -13 460.839 236.297  10
  -2  -6  12 1299.17 336.734   1
   2   6 -12 1449.62 347.119  10
  -2  -6  12 1888.77 389.708  18
  -2  -6  11 105039. 2458.95  18
  -2  -6  10 2104.16 361.542  18
  -2  -6  10 2472.52 372.780  13
  -2  -6   9 58182.1 1636.78  13
  -2  -6   9 55359.4 1590.40  18
  -2  -6   8 3245.08 391.377  18
  -2  -6   8 2996.83 385.525  13
  -2  -6   7 3792.11 336.044  26
  -2  -6   7 3607.15 386.103  13
  -2  -6   6 297646. 3197.81  13
  -2  -6   6 297973. 2826.29  26
  -2  -6   5-106.121 103.265  26
  -2  -6   5 241.212 162.856  13
  -2  -6   4 58744.7 1317.00  13
  -2  -6   4 57094.0 1235.62  26
   2   6  -4 58803.2 1118.66  24
  -2  -6   3 118941. 1831.16  26
  -2  -6   3 118308. 1814.52  13
  -2  -6   2 79247.4 1445.38  13
  -2  -6   2 77826.8 1545.39  26
  -2  -6   1 10916.0 612.490  26
  -2  -6   1 10711.7 524.103  13
  -2  -6   0 1796.75 308.819  26
  -2  -6  -1 63475.9 1665.38  26
  -2  -6  -2 515.048 223.651  26
  -2  -6  -3 129074. 2706.73  26
  -2  -6  -4 3757.57 534.314  26
  -2  -6  -5 108.618 208.250   9
  -2  -6  -5-101.210 171.445   7
   2   6   5 301.132 157.252  12
  -2  -6  -5 495.702 256.488  26
  -2  -6  -6 316.837 233.591   9
   2   6   6 149.892 165.527  12
  -2  -6  -6 551.823 249.667  26
  -2  -6  -7 3797.11 601.327   9
   2   6   7 4599.35 587.863  12
   2   6   8 44556.0 1698.48  12
  -2  -6  -8 43698.6 1850.57   9
  -2  -6  -9 562.404 263.602   9
  -2  -6 -10 14091.0 903.845   9
  -2  -6 -11 521.074 186.578   9
   2   7 -18 6249.93 500.505   9
   2   7 -17 4470.88 514.937   9
   2   7 -16 11483.1 851.964  10
  -2  -7  16 10509.1 757.646   1
   2   7 -15 1755.07 404.708  10
  -2  -7  15 1210.20 312.802   1
  -2  -7  14 591.895 229.618   1
   2   7 -14 214.674 225.030  10
  -2  -7  13 51373.7 1893.68   1
  -2  -7  13 50302.3 1868.96  18
   2   7 -13 53857.5 1935.06  10
  -2  -7  12 256.198 241.105  18
  -2  -7  12 266.971 201.069   1
   2   7 -12 615.535 250.307  10
  -2  -7  11 33364.1 1419.41  18
  -2  -7  11 33868.6 1389.40  13
  -2  -7  10 708.506 253.064  18
  -2  -7  10 693.715 240.629  13
  -2  -7   9 42343.6 1436.32  18
  -2  -7   9 42592.0 1448.68  13
  -2  -7   8 50427.5 1516.57  13
  -2  -7   7 31008.7 1143.56  13
  -2  -7   6 5205.96 465.128  13
  -2  -7   5 269.893 149.139  13
  -2  -7   5 71.6170 101.280  26
   2   7  -4 59390.3 1265.47  24
  -2  -7   4 55893.9 1374.57  13
  -2  -7   4 56336.3 1304.94  26
  -2  -7   3 7548.71 511.981  13
  -2  -7   3 6924.53 483.905  26
  -2  -7   2 31130.8 991.880  13
  -2  -7   2 33439.1 1090.99  26
  -2  -7   1 19066.4 764.306  13
  -2  -7   1 19105.9 871.041  26
  -2  -7   0 1838.48 318.762  26
  -2  -7  -1 94270.5 2167.49  26
  -2  -7  -2 658.321 247.352  26
  -2  -7  -3 2141.68 422.359  26
  -2  -7  -4 4521.12 591.608   9
   2   7   4 4921.00 591.919  12
  -2  -7  -4 5847.00 662.496  26
   2   7   5 44563.7 1812.83  12
  -2  -7  -5 42364.1 1800.62  26
  -2  -7  -5 46574.3 1907.61   9
  -2  -7  -6 1434.87 412.177   9
   2   7   6 1458.84 380.907  12
  -2  -7  -7 1031.47 368.316   9
   2   7   7 775.595 285.096  12
   2   7   8 5051.52 559.212  12
  -2  -7  -8 4111.21 593.071   9
  -2  -7  -9-125.095 231.711   9
  -2  -7 -10 1404.11 281.974   9
   2   8 -18 1175.04 238.749   9
   2   8 -17 1008.73 271.304   9
   2   8 -16 13.7053 222.170  10
  -2  -8  15 7978.36 718.772   1
   2   8 -15 7625.62 733.707  10
  -2  -8  14-281.512 209.208   1
   2   8 -14 357.531 250.150  10
  -2  -8  13-323.066 199.164   1
   2   8 -13-508.986 259.529  10
  -2  -8  12 784.719 276.280  18
  -2  -8  12 1583.70 343.075  13
   2   8 -12 1087.46 293.552  10
  -2  -8  12 1875.21 389.792   1
  -2  -8  11 24679.1 1237.73  18
  -2  -8  11 24542.2 1266.57   1
  -2  -8  11 25056.3 1230.13  13
   2   8 -11 23084.0 1213.81  10
  -2  -8  10 11221.6 815.163  18
  -2  -8  10 11127.5 797.355  13
  -2  -8   9 10650.9 755.330  18
  -2  -8   9 7758.32 655.795  13
  -2  -8   8 763.252 257.143  13
  -2  -8   7 563.275 219.471  13
  -2  -8   6 45518.1 1409.79  13
  -2  -8   5 6571.22 541.038  13
  -2  -8   4 20411.6 897.949  13
  -2  -8   4 21007.6 845.463  26
   2   8  -4 21011.7 842.197  24
  -2  -8   3 69.3517 138.618  13
  -2  -8   3 274.483 143.106  26
  -2  -8   2 5534.90 462.234  13
  -2  -8   2 5431.74 479.965  26
  -2  -8   1 25923.1 1090.05  26
  -2  -8   0 25415.5 1135.29  26
  -2  -8  -1 600.750 255.449  26
  -2  -8  -2 39150.4 1570.54  26
   2   8   3 33272.9 1572.06  12
  -2  -8  -3 34082.1 1606.25   9
  -2  -8  -3 34194.3 1537.58  26
   2   8   4 10744.2 917.436  12
  -2  -8  -4 10365.8 901.420  26
  -2  -8  -4 9641.46 893.102   9
  -2  -8  -5 828.117 337.608   9
   2   8   5 190.803 217.085  12
  -2  -8  -6 3541.49 566.347   9
   2   8   6 3038.48 505.150  12
   2   8   7 4914.14 574.715  12
  -2  -8  -7 5994.72 690.639   9
  -2  -8  -8 29676.6 1328.55   9
  -2  -8  -9 19.3525 153.736   9
   2   9 -18 4058.23 403.685   9
   2   9 -17 20543.3 992.841  10
   2   9 -16 4284.92 533.834  10
  -2  -9  15-208.805 178.714   1
   2   9 -15-440.872 247.816  10
   2   9 -14 3936.62 560.749  10
  -2  -9  14 3555.49 501.617   1
  -2  -9  13 16692.0 1086.80   1
   2   9 -13 15701.9 1059.18  10
  -2  -9  12 19296.1 1156.55  18
  -2  -9  12 16358.8 1068.45   1
  -2  -9  12 18482.2 1112.18  13
   2   9 -12 19281.0 1157.37  10
  -2  -9  11 1682.53 380.686  18
   2   9 -11 1797.07 393.582  14
  -2  -9  11 2050.03 410.880   1
  -2  -9  11 1965.51 403.801  13
   2   9 -11 2193.90 407.249  10
  -2  -9  10 28940.2 1335.87  18
  -2  -9  10 29263.2 1334.12  13
  -2  -9   9 1101.71 316.608  13
  -2  -9   8 35535.2 1394.44  13
  -2  -9   7 10167.9 733.872  13
  -2  -9   6 17047.9 918.646  13
  -2  -9   5 1788.77 327.831  13
   2   9  -4 38373.1 1257.70  24
  -2  -9   4 36465.1 1290.59  13
  -2  -9   3 20809.8 958.847  13
  -2  -9   2-17.4474 124.672  26
  -2  -9   2 303.177 148.790  13
  -2  -9   1 278.999 191.969  26
  -2  -9   0 5927.32 595.614  26
   2   9   1 20113.3 1206.20  12
  -2  -9  -1 20944.5 1147.60  26
  -2  -9  -1 20728.0 1222.96   9
  -2  -9  -2 2659.67 458.805   9
  -2  -9  -2 1871.11 395.412  26
   2   9   2 3399.23 535.377  12
  -2  -9  -3 161.197 255.464   9
  -2  -9  -3 218.437 231.414  26
   2   9   3 92.5742 223.187  12
  -2  -9  -4 11178.2 950.846   9
   2   9   4 10904.7 920.517  12
   2   9   5 16063.5 1094.01  12
  -2  -9  -5 13836.4 1045.59   9
  -2  -9  -6 26647.6 1372.16   9
  -2  -9  -7 1376.63 279.988  17
  -2  -9  -7 1073.05 307.786   9
  -2  -9  -8 149.783 162.858   9
  -2  -9  -8-125.188 150.756  11
   2  10 -18 719.474 173.057   9
   2  10 -17 4203.50 464.067  10
   2  10 -16 3936.20 510.598  10
   2  10 -15 7248.61 709.751  10
  -2 -10  14-411.746 202.111   1
   2  10 -14 151.627 236.117  10
   2  10 -13 17272.7 1116.49  10
  -2 -10  13 17858.4 1116.38   1
  -2 -10  12 3848.04 537.430  18
   2  10 -12 3295.15 568.716  14
   2  10 -12 3123.50 494.935  10
  -2 -10  12 3133.10 500.790  13
  -2 -10  12 2960.62 471.680   1
  -2 -10  11 13194.5 961.661  18
   2  10 -11 13466.0 1114.83  14
  -2 -10  11 15156.3 1032.45   1
   2  10 -11 14766.4 1006.15  10
  -2 -10  11 13715.8 964.913  13
  -2 -10  10 862.400 261.379  18
  -2 -10  10 878.301 280.557   1
  -2 -10  10 780.033 292.776  13
   2  10 -10 1337.03 343.040  10
  -2 -10   9 10546.9 818.181  13
  -2 -10   8 1828.13 361.570  13
  -2 -10   7 310.878 232.170  13
  -2 -10   6 9244.03 722.556  13
  -2 -10   5 12425.3 814.226  13
  -2 -10   4 767.842 236.042  13
   2  10  -4 941.323 234.393  24
  -2 -10   3 625.110 220.602  13
   2  10  -3 668.215 223.807  24
  -2 -10   1 47024.1 1806.53  17
  -2 -10   1 46182.8 1818.23   9
  -2 -10   0 14875.0 1050.69  17
  -2 -10   0 13985.8 1036.57   9
  -2 -10   0 14063.2 927.894  26
  -2 -10  -1 23114.5 1314.31  17
  -2 -10  -1 21989.4 1197.77  26
  -2 -10  -1 22496.3 1331.99   9
  -2 -10  -2 5500.96 689.835   9
  -2 -10  -2 5397.36 673.533  17
  -2 -10  -3 13696.6 1015.51  17
  -2 -10  -3 12895.2 1016.98   9
  -2 -10  -4 12000.7 918.372  17
  -2 -10  -4 11971.5 955.369   9
  -2 -10  -5 2825.85 489.044   9
  -2 -10  -5 2615.40 431.845  17
  -2 -10  -6 2038.06 376.232   9
  -2 -10  -6 2248.69 349.227  17
  -2 -10  -7 353.647 170.964   9
  -2 -10  -7 582.202 185.481  17
   2  11 -17 30803.1 1140.30  10
   2  11 -16 1588.90 329.701  10
   2  11 -15 163.797 204.432  10
   2  11 -14 886.295 302.693  10
  -2 -11  14 1073.67 302.436   1
  -2 -11  13 13548.5 958.333   1
   2  11 -13 11270.7 982.086  14
   2  11 -13 13290.0 984.872  10
  -2 -11  12 13980.0 993.002   1
   2  11 -12 11693.7 1057.92  14
   2  11 -12 14093.1 1000.89  10
  -2 -11  11 463.248 226.427  18
   2  11 -11 195.953 291.712  14
  -2 -11  11 817.008 304.809  13
  -2 -11  11 1075.08 323.323   1
   2  11 -11 609.107 270.137  10
   2  11 -10 13417.3 1137.89  14
  -2 -11  10 11904.9 929.341   1
   2  11 -10 11289.3 870.847  10
  -2 -11  10 13605.1 962.156  13
  -2 -11   9 2886.58 454.492   1
   2  11  -9 2984.53 460.696  10
  -2 -11   9 2684.39 447.195  13
   2  11  -8 13064.8 896.931   2
  -2 -11   8 15186.7 1003.81  13
   2  11  -8 15721.5 1005.92  10
   2  11  -7 28811.2 1338.46   2
  -2 -11   7 28767.0 1338.14  13
   2  11  -7 27911.5 1312.73  10
  -2 -11   6 448.671 222.838  17
  -2 -11   6 667.122 242.827  13
   2  11  -6 650.700 255.804   2
  -2 -11   5 1911.56 384.650  17
  -2 -11   5 1822.32 353.852  13
  -2 -11   4 9523.69 831.340  17
  -2 -11   4 9960.17 760.260  13
   2  11  -4 11080.0 780.964  24
  -2 -11   3 87020.6 2487.37  17
   2  11  -3 83977.5 2218.82  24
  -2 -11   2 6915.19 722.559  17
   2  11  -2 7245.85 693.710  24
  -2 -11   1 545.116 270.096  17
   2  11  -1 986.683 310.474  24
  -2 -11   0 3629.58 556.762   9
  -2 -11   0 2933.42 514.970  17
  -2 -11  -1 91779.6 2623.09  17
  -2 -11  -1 88382.7 2605.06   9
  -2 -11  -2 3134.86 539.206   9
  -2 -11  -2 3299.35 524.239  17
  -2 -11  -3 1219.34 361.591   9
  -2 -11  -3 1144.96 351.950  17
  -2 -11  -4 11167.0 829.826  17
  -2 -11  -4 11730.3 875.958   9
  -2 -11  -5 928.015 271.786   9
  -2 -11  -5 1019.38 284.243  17
  -2 -11  -6 7089.38 501.793  17
   2  12 -17 189.791 146.100  10
   2  12 -16 2899.65 413.451  10
   2  12 -15 9172.24 745.837  10
   2  12 -14 14528.8 1058.99  14
   2  12 -14 12856.4 916.150  10
   2  12 -13-338.451 253.439  10
   2  12 -13 264.593 252.522  14
  -2 -12  13-189.803 206.765   1
   2  12 -12 21088.1 1216.25  10
  -2 -12  12 22329.6 1238.26   1
   2  12 -12 23204.6 1504.33  14
   2  12 -11 37444.4 1609.96  10
   2  12 -11 37532.7 1934.84  14
  -2 -12  11 37144.4 1623.92   1
   2  12 -10 19975.6 1410.68  14
  -2 -12  10 18061.8 1155.70   1
   2  12 -10 18190.0 1125.15  10
   2  12  -9 1268.99 316.310  10
  -2 -12   9 1082.12 313.971   1
  -2 -12   9 733.777 282.438  13
   2  12  -8 1423.63 335.851   2
  -2 -12   8 1979.09 393.937  13
   2  12  -8 1596.51 355.615  10
  -2 -12   7 274.292 253.518  13
   2  12  -7 281.596 233.192   2
   2  12  -7 127.754 146.679  10
   2  12  -6 88836.7 2449.62   2
  -2 -12   6 92883.7 2434.76  13
   2  12  -6 89019.1 2403.09  10
  -2 -12   6 96482.1 2656.60  17
  -2 -12   5 4191.45 580.469  17
  -2 -12   5 3983.61 516.373  13
   2  12  -5 3346.71 518.664   2
   2  12  -4 153.526 169.483  24
  -2 -12   4-110.503 234.813  17
  -2 -12   3 8102.03 819.135  17
   2  12  -3 8933.38 755.091  24
  -2 -12   2 11228.7 940.696  17
  -2 -12   1 14794.7 1072.19  17
  -2 -12   0 6656.16 748.545  17
  -2 -12  -1 410.398 241.199  17
  -2 -12  -2 2716.63 473.683  17
  -2 -12  -3 6657.48 646.834  17
  -2 -12  -4 8372.18 634.442  17
  -2 -12  -5 703.956 191.178  17
   2  13 -17 6856.21 482.392  10
   2  13 -16 3123.52 396.936  10
   2  13 -15 139.176 184.203  10
   2  13 -14 13429.5 894.967  10
   2  13 -13 7553.88 820.726  14
   2  13 -13 6853.43 675.327  10
  -2 -13  13 7484.21 672.702   1
   2  13 -12 16629.3 1055.15  10
  -2 -13  12 16789.3 1045.00   1
   2  13 -12 15633.5 1235.64  14
   2  13 -11 10149.9 1030.02  14
  -2 -13  11 10225.3 844.382   1
   2  13 -11 10919.7 867.712  10
   2  13 -10 1457.03 503.229  14
   2  13 -10 790.418 269.861  10
  -2 -13  10 756.698 263.421   1
   2  13  -9 3669.79 525.712  10
  -2 -13   9 2833.34 472.170   1
   2  13  -9 4067.43 690.997  14
   2  13  -8 20587.4 1182.18  10
   2  13  -7 6297.53 662.649   2
   2  13  -7 6394.86 674.238  10
  -2 -13   6 1320.65 387.802  17
   2  13  -6 2181.98 373.844  10
   2  13  -6 1726.85 385.562   2
   2  13  -5 480.514 235.491   2
  -2 -13   5 949.951 344.074  17
  -2 -13   4 619.071 288.826  17
  -2 -13   3 2664.57 509.491  17
  -2 -13   2 38.0411 230.211  17
  -2 -13   1 447.830 285.159  17
  -2 -13   0 3070.72 520.135  17
  -2 -13  -1 18828.8 1088.00  17
  -2 -13  -2 3040.88 437.119  17
  -2 -13  -3-110.012 155.264  17
   2  14 -16 4198.66 407.506  10
   2  14 -15 2151.07 340.325  10
   2  14 -14 16220.1 921.445  10
   2  14 -13 235.823 287.974  14
   2  14 -13 388.814 223.743  10
   2  14 -12 6255.12 763.439  14
  -2 -14  12 6228.90 608.220   1
   2  14 -12 6540.95 644.983  10
   2  14 -11 598.057 333.747  14
   2  14 -11 452.363 226.857  10
  -2 -14  11 232.555 182.720   1
   2  14 -10 12956.2 1155.21  14
  -2 -14  10 12170.9 912.902   1
   2  14 -10 11211.3 853.119  10
  -2 -14   9-16.6591 178.247   1
   2  14  -9-109.855 273.836  14
   2  14  -9 208.306 210.312  10
   2  14  -8 2690.54 441.222  10
   2  14  -8 2876.14 567.684  14
   2  14  -7 13498.8 928.572   2
   2  14  -7 10459.8 841.353  10
   2  14  -7 12208.6 1079.58  14
   2  14  -6 43088.9 1671.76   2
   2  14  -6 46391.9 1997.23  14
   2  14  -6 43938.5 1672.78  10
  -2 -14   5 1077.21 346.317  17
   2  14  -5 1341.26 313.237  10
   2  14  -5 1058.84 340.452  14
   2  14  -5 423.187 209.633   2
  -2 -14   4 30.9745 208.837  17
   2  14  -4-908.743 317.192   2
   2  14  -3 5886.44 638.753   2
  -2 -14   3 6499.59 718.860  17
  -2 -14   2 881.568 310.493  17
  -2 -14   1 15381.7 999.514  17
  -2 -14   0 168.817 223.686  17
  -2 -14  -1 1287.85 292.585  17
  -2 -14  -2 5479.77 457.837  17
   2  15 -15 1617.20 270.826  10
   2  15 -14 9654.16 653.305  10
   2  15 -13 3866.35 555.544  14
   2  15 -13 4500.89 486.364  10
  -2 -15  12 10612.0 727.581   1
   2  15 -12 13160.8 1035.00  14
   2  15 -12 11852.6 795.380  10
   2  15 -11-37.6937 306.343  14
   2  15 -11-5.16479 187.943  10
  -2 -15  11-185.106 182.490   1
   2  15 -10 3580.44 635.340  14
  -2 -15  10 3016.18 449.248   1
   2  15 -10 3586.71 474.032  10
   2  15  -9 9784.59 937.236  14
  -2 -15   9 9136.04 775.930   1
   2  15  -9 8495.97 710.348  10
   2  15  -8 1387.80 324.574  10
   2  15  -8 2128.07 492.585  14
   2  15  -7 3538.18 570.884  14
   2  15  -7 2297.41 394.992  10
   2  15  -6 1571.53 404.815  14
   2  15  -6 1465.11 319.998   2
   2  15  -6 1542.87 325.965  10
   2  15  -5 1666.74 331.603  10
   2  15  -5 1181.04 284.444   2
  -2 -15   4 546.885 247.512  17
   2  15  -4 770.712 249.082   2
   2  15  -4 940.977 253.570  10
  -2 -15   3 6552.63 639.186  17
   2  15  -3 6685.17 601.660   2
  -2 -15   2 295.116 219.505  17
   2  15  -2 299.600 199.174   2
  -2 -15   1 1799.02 329.959  17
   2  15  -1 1299.72 270.067   2
  -2 -15   0 10084.5 631.938  17
   2  15   0 9034.44 592.049   2
   2  16 -14 6432.63 462.601  10
   2  16 -13 119.855 136.074  10
   2  16 -12 2057.57 425.828  14
   2  16 -12 2805.04 375.636  10
  -2 -16  11 107.388 123.121   1
   2  16 -11-112.107 137.507  10
   2  16 -10 7887.22 762.998  14
  -2 -16  10 7062.74 589.351   1
   2  16 -10 6970.49 581.283  10
   2  16  -9 1657.87 386.687  14
   2  16  -9 1646.75 304.308  10
  -2 -16   9 1823.81 330.699   1
  -2 -16   8 934.074 267.830   1
   2  16  -8 513.829 284.431  14
   2  16  -8 927.000 246.481  10
   2  16  -7 9400.88 761.797  14
   2  16  -7 7907.74 608.267  10
   2  16  -6 814.265 203.298   2
   2  16  -6 1404.67 270.550  10
   2  16  -5 3804.40 413.856   2
   2  16  -4 131.367 102.498   2
   2  16  -3 2780.99 338.153   2
   2  16  -2 5438.28 428.326   2
   2  17 -11 1111.06 212.950  10
   2  17 -10 3180.78 437.587  14
   2  17 -10 2098.92 279.357  10
   2  17  -9 3904.64 463.392  14
  -2 -17   9 3370.49 365.639   1
   2  17  -9 3283.60 342.158  10
   2  17  -8 1539.97 285.703  14
   2  17  -8 782.766 183.237  10
  -2 -17   8 1446.54 254.726   1
  -2 -17   7 199.741 142.556   1
  -2 -17   6 583.652 175.870   1
  -3  17  -5 5886.39 446.310  22
  -3  17  -6 1448.43 245.512  22
  -3  17  -7 1225.15 225.896  22
  -3  17  -8 2204.79 272.774  22
  -3  16  -1 259.277 140.559  22
  -3  16  -2 146.276 141.820  22
  -3  16  -2 508.416 170.307  10
  -3  16  -3 5808.00 512.454  22
  -3  16  -3 6222.43 495.353  10
  -3  16  -4 125.578 173.741  22
  -3  16  -4-212.053 135.127  10
  -3  16  -5 340.619 196.723  22
  -3  16  -5 143.534 125.306  10
  -3  16  -6 869.676 214.425  10
  -3  16  -6 762.056 241.344  22
  -3  16  -7 3628.44 403.670  10
  -3  16  -7 3893.57 444.107  22
  -3  16  -8 921.941 196.044  10
  -3  16  -8 390.582 192.078  22
  -3  16  -9 3253.02 379.939  22
  -3  16  -9 3674.89 375.054  10
  -3  16 -10 3524.36 366.162  22
  -3  16 -11 13.2726 114.245   7
  -3  16 -12 3365.36 341.487   7
  -3  15   1-21.4114 137.615  22
  -3  15   0 446.253 180.192  22
  -3  15  -1 2515.50 384.760  22
  -3  15  -2-62.6124 239.774  22
  -3  15  -3 939.663 313.995  22
  -3  15  -4 863.198 267.610  10
  -3  15  -4 440.624 248.188  22
  -3  15  -5 7060.33 632.716  10
  -3  15  -5 8359.99 729.396  22
  -3  15  -6 2752.35 400.786  10
  -3  15  -6 2428.96 414.574  22
  -3  15  -7-274.861 168.230  10
  -3  15  -7 88.6170 195.005  22
  -3  15  -8 4006.62 504.555  22
  -3  15  -8 3777.27 444.033  10
  -3  15  -9 2187.63 368.751  22
  -3  15  -9 2267.18 322.650  10
  -3  15 -10 7014.19 582.572  22
  -3  15 -11-310.517 159.121  22
  -3  15 -12 5298.70 490.294   7
  -3  15 -13 280.157 143.507   7
  -3  14   3 13872.3 664.675  22
  -3  14   2 1988.88 324.384  22
  -3  14   1 4481.41 485.439   4
  -3  14   1 5375.83 546.705  22
  -3  14   0 402.750 184.552   4
  -3  14   0 171.158 201.727  22
  -3  14  -1 361.024 262.809  22
  -3  14  -2 524.391 274.570  22
  -3  14  -3 7727.73 749.637  22
  -3  14  -4 3113.93 518.243  22
  -3  14  -5 2494.24 425.987  10
  -3  14  -5 2612.92 478.499  22
  -3  14  -6 373.823 211.918  22
  -3  14  -6 898.347 291.229  10
  -3  14  -7 696.888 284.453  22
  -3  14  -7 634.318 254.692  10
  -3  14  -8 7796.39 672.245  10
  -3  14  -8 8432.84 752.951  22
  -3  14  -9 5925.03 634.056  22
  -3  14  -9 5486.27 553.213  10
  -3  14 -10 583.866 236.756  22
  -3  14 -11 3956.15 456.328  22
  -3  14 -12 3263.18 380.451  22
  -3  14 -12 2952.10 427.539   7
  -3  14 -13 3029.48 393.405   7
  -3  14 -14 1007.75 218.306   7
  -3  13   4 10518.1 690.506   4
  -3  13   4 10001.7 608.372  22
  -3  13   3 288.171 207.552   4
  -3  13   3 439.587 211.968  22
  -3  13   2 2711.90 435.794   4
  -3  13   2 2895.81 447.116  22
  -3  13   1 145.573 200.858   4
  -3  13   1 63.9630 255.173  22
  -3  13   0 4018.68 536.063   4
  -3  13   0 4241.78 572.052  22
  -3  13  -1 7267.17 754.203  22
  -3  13  -2 4315.63 613.758  22
  -3  13  -3 910.683 320.110  22
  -3  13  -4 2447.50 470.798  22
  -3  13  -5 5497.35 664.186  22
  -3  13  -6 796.641 283.607  10
  -3  13  -6 207.252 223.971  22
  -3  13  -7 151.431 180.289  10
  -3  13  -7-66.1270 240.778  22
  -3  13  -8 5484.40 598.478  10
  -3  13  -8 5096.50 626.267  22
  -3  13  -9 2654.11 453.496  22
  -3  13 -10 14239.4 948.907  22
  -3  13 -11-250.386 197.224  22
  -3  13 -12 360.596 172.359  22
  -3  13 -12 110.225 216.828   7
  -3  13 -13 201.984 192.044   7
  -3  13 -14 6092.32 534.313   7
  -3  13 -15 9449.43 571.154   7
  -3  12   6 293.466 165.994   4
  -3  12   5 1331.57 293.472   4
  -3  12   5 1487.80 270.470  22
  -3  12   4 5343.26 592.597   4
  -3  12   4 4778.16 506.640  22
  -3  12   3 1772.92 393.568   4
  -3  12   3 1427.09 335.370  22
  -3  12   2 9566.28 849.015   4
  -3  12   2 10240.3 836.397  22
  -3  12   1 40263.5 1695.91   4
  -3  12   1 39136.3 1661.17  22
  -3  12   0 367.597 242.190   4
  -3  12   0 683.483 279.073  22
  -3  12  -1 1050.90 335.623  22
  -3  12  -2 27.1946 209.976  22
  -3  12  -3 23948.5 1343.63  22
  -3  12  -4-11.6828 168.066  24
  -3  12  -4 369.056 266.004  22
   3 -12   5 281.453 244.171  13
  -3  12  -5 555.151 269.044  24
  -3  12  -5 467.343 273.292  22
   3 -12   6-122.727 184.775  13
  -3  12  -6 451.867 252.997  22
  -3  12  -6-72.1791 175.434  10
  -3  12  -7 401.094 244.943  22
  -3  12  -8 62510.5 2130.21  22
  -3  12  -9 362.238 221.136  22
  -3  12 -10 1436.29 366.843  22
  -3  12 -11 2980.03 474.278  22
  -3  12 -12 2117.36 408.494   7
  -3  12 -12 2626.10 395.588  22
  -3  12 -13 11383.1 838.715   7
  -3  12 -14 3945.77 478.502   7
  -3  12 -15-122.882 177.628   7
  -3  11   7 2704.88 348.766   4
  -3  11   7 2853.72 328.555  12
  -3  11   6 70.8217 188.236   4
  -3  11   6 61.5174 105.096  12
  -3  11   5 219.664 233.312   4
  -3  11   5 252.323 157.090  12
  -3  11   4 23419.6 1299.29   4
  -3  11   3 17504.0 1161.71   4
  -3  11   2 2045.01 453.344   4
  -3  11   1 2107.60 438.072   4
  -3  11   0 639.069 255.568  24
  -3  11   0 740.266 304.080   4
  -3  11   0 1211.33 367.112  22
  -3  11  -1 72016.1 2199.16  24
  -3  11  -1 76762.7 2356.87  22
  -3  11  -2 171.140 236.487  24
  -3  11  -2 94.4498 165.594  22
  -3  11  -3 17634.5 1099.72  24
  -3  11  -3 15817.9 1071.27  22
  -3  11  -4 4295.41 575.194  24
  -3  11  -4 4318.20 573.257  22
   3 -11   5 10523.3 813.176  13
  -3  11  -5 9941.46 859.728  22
  -3  11  -5 11269.4 886.919  24
   3 -11   6 21974.0 1141.50  13
  -3  11  -6 22246.2 1242.39  24
  -3  11  -6 21473.4 1246.77  22
  -3  11  -7 3168.87 494.796  24
  -3  11  -7 2786.09 463.119  22
  -3  11  -8 219.084 209.954  24
  -3  11  -8 621.930 261.300  22
  -3  11  -9 40.6327 215.468  22
  -3  11 -10 22489.5 1247.01  22
  -3  11 -11 3120.19 479.738  22
  -3  11 -12 904.048 262.495  22
  -3  11 -12 1392.78 398.202   7
  -3  11 -13 1064.46 330.102   7
  -3  11 -13 1026.45 265.859  22
  -3  11 -14 400.060 216.276   7
  -3  11 -15 9541.15 653.950   7
  -3  11 -16 96.8418 116.415   7
  -3  10   8 858.550 231.218   4
  -3  10   8 899.675 215.877  12
  -3  10   7 106.146 197.538   4
  -3  10   7-179.220 173.168  12
  -3  10   6 2732.27 485.540   4
  -3  10   6 1900.63 370.842  12
  -3  10   5 1032.92 317.176  12
  -3  10   5 407.349 243.317   4
  -3  10   4 6967.84 767.575   4
  -3  10   4 8180.48 752.103  12
  -3  10   3 7750.81 804.804   4
  -3  10   2 1620.00 409.642   4
  -3  10   1 116584. 2686.09  24
  -3  10   1 116245. 2896.35   4
  -3  10   0 17999.4 1112.17   4
  -3  10   0 18622.2 1079.47  24
  -3  10  -1 17606.5 1048.03  24
  -3  10  -1 19893.0 1162.75  22
  -3  10  -2 235.230 198.898  24
  -3  10  -2 660.207 227.444  22
  -3  10  -3 26932.7 1286.80  24
  -3  10  -4 6347.31 650.020  24
  -3  10  -5 140.734 206.205  24
  -3  10  -5 185.058 193.135  22
  -3  10  -6 161.064 164.788  24
   3 -10   6 27.9851 131.025  13
  -3  10  -6 268.411 261.333   3
  -3  10  -6 3.42983 200.491  22
  -3  10  -7 915.322 322.704  24
  -3  10  -7 855.660 333.081   3
  -3  10  -7 672.081 257.993  22
  -3  10  -8 2686.00 458.813  24
  -3  10  -8 1641.85 375.784  22
  -3  10  -9 381.386 227.786  22
   3 -10   9 327.203 179.692  18
  -3  10  -9 307.913 187.869  24
  -3  10 -10 307.328 237.924  22
  -3  10 -11 11584.0 966.111   5
  -3  10 -11 9702.32 873.940   7
  -3  10 -11 9496.19 816.737  22
  -3  10 -12-709.822 308.231   5
  -3  10 -12-355.616 275.820   7
  -3  10 -12-179.514 164.494  22
  -3  10 -13 37104.3 1587.86   7
  -3  10 -13 37542.4 1412.24  22
  -3  10 -13 39093.5 1676.48   5
  -3  10 -14-85.8027 157.753   5
  -3  10 -14 120.895 211.242   7
  -3  10 -15 475.084 207.335   5
  -3  10 -15 529.924 221.861   7
  -3  10 -16 431.584 161.354   7
  -3   9   9 748.023 213.379   4
  -3   9   9 598.708 188.508  12
  -3   9   8 10786.7 780.700   4
  -3   9   8 12340.6 827.820  12
  -3   9   7 4983.47 616.828   4
  -3   9   7 4793.16 569.970  12
  -3   9   6 8.83876 205.301  12
  -3   9   6 162.109 232.505   4
  -3   9   5 5391.45 641.017  12
  -3   9   5 5128.87 672.605   4
  -3   9   4 978.174 305.300  12
  -3   9   4 822.651 350.927   4
  -3   9   3 37100.2 1614.92  23
  -3   9   3 35027.9 1632.79   4
  -3   9   2 3620.75 550.952   4
  -3   9   2 3267.49 457.870  24
  -3   9   2 3886.20 547.015  23
  -3   9   1 8863.39 784.416   4
  -3   9   1 8870.73 721.457  24
  -3   9   1 8649.71 778.059  23
  -3   9   0 10695.6 779.667  24
  -3   9   0 11617.8 863.788  23
  -3   9  -1 23294.0 1140.07  24
  -3   9  -2 15731.0 936.630  24
  -3   9  -3 868.428 252.890  24
  -3   9  -4 605.620 268.854  24
  -3   9  -5 921.714 288.025  24
  -3   9  -5 525.576 216.664  21
  -3   9  -6 18664.8 1048.68  21
  -3   9  -6 18127.7 1040.14  24
  -3   9  -7 3236.51 452.139  21
  -3   9  -7 3664.62 509.822  24
  -3   9  -8 205.290 226.160  24
  -3   9  -8 45.1298 135.181  22
   3  -9   9 7927.72 718.098  18
  -3   9  -9 7496.33 730.610  22
  -3   9  -9 8729.43 822.235   5
  -3   9 -10 11695.3 894.533  22
  -3   9 -10 12523.4 1013.85   5
  -3   9 -11 15333.4 1085.35   7
  -3   9 -11 15424.1 1021.57  22
  -3   9 -11 14100.8 1094.65   5
  -3   9 -12 176.145 240.835   5
  -3   9 -12-146.168 256.015   7
  -3   9 -12-46.5044 166.441  22
  -3   9 -13 158.958 249.725   5
  -3   9 -13 224.999 258.809   7
  -3   9 -13 12.1514 191.198  22
  -3   9 -14 1853.70 419.527   5
  -3   9 -14 2288.77 416.381   7
  -3   9 -15 5319.77 574.710   5
  -3   9 -15 5762.43 549.136   7
  -3   9 -16 1968.13 309.348   5
  -3   9 -16 2322.17 309.607   7
  -3   8  10 7232.21 514.132   4
  -3   8  10 8460.44 613.806  12
  -3   8   9 1166.04 293.783   4
  -3   8   9 1398.13 339.466  12
  -3   8   8 5550.36 641.515   4
  -3   8   8 4974.04 598.246  12
  -3   8   7 1247.05 395.186  12
  -3   8   7 804.814 317.967   4
  -3   8   6 3160.84 518.824  12
  -3   8   6 3144.57 528.014   4
   3  -8  -5 14649.0 1148.36   8
  -3   8   5 13705.1 1046.98   4
  -3   8   5 15109.2 1053.98  12
  -3   8   5 13953.5 981.941  23
   3  -8  -4 3811.57 594.918   8
  -3   8   4 4826.55 590.269  12
  -3   8   4 4267.13 598.734   4
  -3   8   4 5274.11 612.338  23
   3  -8  -3 1062.09 305.760   8
  -3   8   3 1278.41 351.062   4
  -3   8   3 1301.57 341.713  23
  -3   8   2 9353.39 697.182  24
   3  -8  -2 9880.33 807.559   8
  -3   8   2 10961.7 826.419  23
  -3   8   1 15468.0 951.292  23
  -3   8   1 12660.1 800.990  24
  -3   8   0 8593.44 648.382  24
  -3   8   0 9044.32 726.438  23
  -3   8  -1 7301.16 604.937  24
  -3   8  -1 8312.85 675.430  23
  -3   8  -2 7259.99 605.835  24
  -3   8  -3 11232.6 756.773  24
  -3   8  -3 11618.4 807.561  21
  -3   8  -4 82221.7 2009.45  24
  -3   8  -4 81349.2 2066.09  21
  -3   8  -5 14642.5 885.224  24
  -3   8  -5 14216.8 872.593  21
  -3   8  -6 100.927 209.592  24
  -3   8  -6 218.752 180.504  21
  -3   8  -7 8572.89 693.825  21
  -3   8  -7 8568.30 717.410  24
  -3   8  -8 3513.58 488.358  24
  -3   8  -8 4065.85 494.765  21
   3  -8   9-405.651 203.604  18
  -3   8  -9-299.316 233.363   5
  -3   8  -9 249.215 176.551  22
  -3   8 -10 6584.74 785.869   5
  -3   8 -10 6476.14 697.390   7
  -3   8 -10 6773.21 689.056  22
  -3   8 -11 9448.26 933.296   5
  -3   8 -11 9071.41 836.740   7
  -3   8 -11 8916.88 781.850  22
  -3   8 -12 7106.59 699.999  22
  -3   8 -12 5700.11 723.892   5
  -3   8 -12 6732.15 739.931   7
  -3   8 -13 10784.7 888.859   7
  -3   8 -13 8461.85 864.171   5
  -3   8 -14 430.059 243.301   5
  -3   8 -14 313.978 239.056   7
  -3   8 -15 205.003 238.631   5
  -3   8 -15-243.431 205.140   7
  -3   8 -16 7931.52 539.645   7
  -3   8 -16 8109.98 614.630   5
  -3   7  11 170.121 154.217  12
  -3   7  10 54.6037 172.185   4
  -3   7  10 170.625 190.413  12
  -3   7   9 1613.76 342.388   4
  -3   7   9 1973.07 430.864  12
  -3   7   8 1133.03 332.393  12
  -3   7   8 589.154 283.126   4
  -3   7   7 1752.09 420.506  12
  -3   7   7 1571.05 397.962   4
   3  -7  -6 156.059 193.704   8
  -3   7   6 233.735 207.838  12
  -3   7   6 236.683 266.596   4
  -3   7   6 502.948 242.428  23
  -3   7   5 4406.21 587.011   4
  -3   7   5 3756.50 532.260  12
  -3   7   5 4070.98 546.074  23
  -3   7   4 813.754 295.220  23
  -3   7   3 29676.6 1307.45  23
  -3   7   2 15410.7 915.751  23
  -3   7   2 14216.1 792.614  24
  -3   7   1 14423.1 781.127  24
  -3   7   1 14883.6 873.694  23
  -3   7   0 23334.1 990.469  24
  -3   7   0 23377.2 1053.02  23
  -3   7  -1 4969.89 470.686  24
  -3   7  -1 4420.95 471.933  23
  -3   7  -2 45625.0 1372.57  24
  -3   7  -2 50025.3 1439.58  23
  -3   7  -2 48424.5 1528.70  21
  -3   7  -3 498.951 208.255  21
  -3   7  -3 817.601 258.932  24
  -3   7  -4 609.493 247.687  24
  -3   7  -4 200.631 193.840  21
  -3   7  -5 5349.77 527.785  21
  -3   7  -5 5967.64 549.389  24
  -3   7  -6 51335.3 1601.94  24
  -3   7  -6 50537.3 1553.28  21
  -3   7  -7 14354.8 860.955  21
  -3   7  -7 14942.2 907.496  24
   3  -7   8 5393.77 535.533  18
  -3   7  -8 5465.56 552.367  21
  -3   7  -9 28385.5 1493.17   5
  -3   7  -9 27949.1 1321.86  22
  -3   7  -9 29393.2 1277.22  21
  -3   7 -10 705.103 298.508   5
  -3   7 -10 588.677 276.065   7
  -3   7 -10 860.677 270.962  22
  -3   7 -11 16351.3 1223.68   5
  -3   7 -11 16426.6 1121.93   7
  -3   7 -11 17631.4 1092.12  22
  -3   7 -12 1464.77 445.234   5
  -3   7 -12 1530.62 409.699   7
  -3   7 -12 1043.62 298.536  22
  -3   7 -13 3082.44 565.530   5
  -3   7 -13 2584.10 490.308   7
  -3   7 -14 8226.18 734.059   7
  -3   7 -14 6299.92 715.527   5
  -3   7 -15 13280.4 820.356   7
  -3   7 -15 12406.7 895.431   5
  -3   7 -16 6369.00 483.181   7
  -3   7 -16 5627.66 510.793   5
  -3   6  12 9666.14 631.294  12
  -3   6  11 333.227 217.502  12
  -3   6  10 15339.5 944.645   4
  -3   6  10 15300.1 1032.94  12
  -3   6   9 8293.36 824.964  12
  -3   6   9 7596.81 733.747   4
  -3   6   8 63.9611 253.844  12
  -3   6   8 10.0176 197.185   4
  -3   6   7 339.560 232.873   4
  -3   6   7 431.450 258.490  12
  -3   6   7-366.872 200.836  23
  -3   6   6 8513.63 748.048  23
  -3   6   6 7429.11 737.864  12
  -3   6   6 8379.69 791.069   4
  -3   6   5 43647.1 1581.91  23
  -3   6   4 1806.69 348.618  23
  -3   6   3 8442.68 664.427  23
  -3   6   2 19402.3 844.257  24
  -3   6   2 22838.8 1033.29  23
  -3   6   1 55871.3 1409.40  24
  -3   6   1 58133.0 1573.78  23
  -3   6   0 5190.38 475.277  23
  -3   6   0 4841.11 424.985  24
  -3   6  -1 15421.0 756.963  23
  -3   6  -1 15246.2 739.540  24
  -3   6  -1 16020.6 837.102  21
  -3   6  -2 53639.6 1363.27  23
  -3   6  -2 52398.6 1366.13  24
  -3   6  -2 55284.4 1515.51  21
  -3   6  -3 5326.99 464.351  24
  -3   6  -3 5095.08 423.303  23
  -3   6  -3 5647.07 509.576  21
  -3   6  -4 248992. 3135.01  24
  -3   6  -4 245449. 3166.92  21
  -3   6  -5 46604.4 1420.22  24
  -3   6  -5 47470.3 1411.80  21
  -3   6  -6 5895.78 549.212  24
  -3   6  -6 5476.19 516.077  21
   3  -6   7 32429.1 1194.41  18
  -3   6  -7 32036.1 1239.37  21
  -3   6  -8 41946.7 1487.47  21
  -3   6  -9 16893.8 1058.50   7
  -3   6  -9 17922.1 1011.88  21
  -3   6 -10 492.115 214.487   7
  -3   6 -10 734.347 248.401  22
  -3   6 -11 13838.9 1022.91   7
  -3   6 -11 14136.8 979.440  22
  -3   6 -12 1448.82 439.907   5
  -3   6 -12 1416.34 386.608   7
  -3   6 -13 21691.1 1396.94   5
  -3   6 -13 23543.9 1294.34   7
  -3   6 -14-21.1811 288.511   5
  -3   6 -14 59.3896 236.930   7
  -3   6 -15 83.4337 210.099   5
  -3   6 -15-33.7159 177.391   7
  -3   6 -16 7611.86 507.869   7
  -3   6 -16 7514.47 578.697   5
  -3   5  13-219.289 145.501  12
  -3   5  12 19886.1 1042.01  12
  -3   5  11 1100.05 311.884  12
  -3   5  10 954.069 393.096  12
  -3   5  10 1005.87 282.679   4
  -3   5   9 4072.10 603.360  12
  -3   5   9 4834.27 595.364   4
  -3   5   8 17545.3 1123.94   4
  -3   5   8 18784.0 1222.12  12
  -3   5   8 17133.2 1026.07  23
  -3   5   7 6937.47 700.415   4
  -3   5   7 7133.52 736.534  12
  -3   5   7 6994.27 664.234  23
  -3   5   6 2944.19 423.727  23
  -3   5   5 27458.2 1191.93  23
  -3   5   4 2752.95 391.595  23
  -3   5   3 105183. 2131.67  23
  -3   5   2 9968.31 555.579  24
  -3   5   2 10397.2 653.901  23
  -3   5   1 2167.53 278.227  24
  -3   5   1 2609.41 334.936  23
  -3   5   0 72717.1 1472.30  24
  -3   5   0 74802.8 1566.17  23
  -3   5   0 72375.1 1678.83  21
  -3   5  -1 47974.0 1201.65  24
  -3   5  -1 47645.8 1202.17  23
  -3   5  -2 74331.0 1519.51  24
  -3   5  -2 77481.6 1497.46  23
  -3   5  -2 77204.7 1663.54  21
  -3   5  -3 499.343 210.068  24
  -3   5  -3 531.888 144.433  23
  -3   5  -3 261.923 170.045  21
  -3   5  -4 33149.7 1098.99  24
  -3   5  -4 31705.6 1084.49  21
  -3   5  -5 553.700 199.496  21
  -3   5  -5 758.053 240.131  24
   3  -5   6 150106. 2303.60  18
  -3   5  -6 147183. 2537.09  21
  -3   5  -7 25855.5 1123.60  21
  -3   5  -8 2040.44 364.527  21
  -3   5  -9 24611.6 1202.86  21
  -3   5 -10 122.330 184.945   7
  -3   5 -10 86.4796 161.753  21
  -3   5 -10 244.026 189.324  22
  -3   5 -11 10578.0 896.370   7
  -3   5 -11 8226.26 755.692  22
  -3   5 -12 328.958 261.298   7
  -3   5 -13 1133.99 384.877   5
  -3   5 -13 1467.63 395.402   7
  -3   5 -14 25746.4 1393.74   5
  -3   5 -14 24612.6 1219.07   7
  -3   5 -15 1281.82 340.795   5
  -3   5 -15 649.205 233.501   7
  -3   5 -16 1176.97 254.145   5
  -3   4  13 4361.18 481.883  12
  -3   4  12 2429.32 441.663  12
  -3   4  11 3292.24 551.523  12
  -3   4  10 7812.17 816.592  12
  -3   4   9 9779.46 824.810   4
  -3   4   9 9666.00 908.463  12
  -3   4   8 2378.73 459.722  12
  -3   4   8 2783.27 447.147   4
  -3   4   8 2657.17 414.242  23
  -3   4   7 39838.1 1473.43  23
  -3   4   6 598.020 250.464  23
  -3   4   5 14336.3 819.738  23
  -3   4   4 1282.14 277.263  23
   3  -4  -3 391.229 171.414  16
  -3   4   3 456.209 187.513  23
   3  -4  -2 69388.9 1525.44  16
  -3   4   2 69179.9 1296.06  24
  -3   4   2 67858.8 1516.26  23
   3  -4  -1 407013. 3377.02  16
  -3   4   1 400139. 3068.84  24
  -3   4   1 400241. 3467.91  23
  -3   4   1 403301. 3741.55  21
   3  -4   0 150382. 1874.18  16
  -3   4   0 147026. 1995.94  23
  -3   4   0 145629. 2180.54  21
  -3   4  -1 11166.9 542.561  24
  -3   4  -1 9536.85 502.074  23
  -3   4  -1 10472.5 582.351  21
  -3   4  -2 94265.7 1606.05  24
  -3   4  -2 95780.6 1483.52  23
   3  -4   2 93557.0 1433.33  25
  -3   4  -2 96615.5 1730.90  21
  -3   4  -3 192.888 159.593  24
  -3   4  -3 126.797 144.930  21
  -3   4  -4 62155.1 1443.47  24
  -3   4  -4 62823.1 1493.24  21
  -3   4  -5-19.2677 185.162  21
  -3   4  -6 9211.28 657.786  21
  -3   4  -7 565.442 203.460  21
  -3   4  -8 1053.49 289.526  21
  -3   4  -9 8031.53 723.678  21
  -3   4 -10 13930.6 999.554   7
  -3   4 -10 12291.3 913.697  22
  -3   4 -10 12050.8 896.508  21
  -3   4 -11 7605.46 764.792   7
  -3   4 -12 11157.0 913.620   7
  -3   4 -13 27673.1 1509.56   5
  -3   4 -13 29814.5 1430.48   7
  -3   4 -14 371.141 225.143   7
  -3   4 -14 553.032 273.621   5
  -3   4 -15 2043.79 373.258   5
  -3   4 -15 1184.37 271.359   7
  -3   3  14 433.627 205.393  12
  -3   3  13 962.877 311.360  12
  -3   3  12 22537.0 1284.42  12
  -3   3  11 261.570 238.360  12
  -3   3  10 737.983 330.287  12
  -3   3   9 21139.8 1277.54  12
  -3   3   9 18462.8 1091.77   4
  -3   3   9 18870.1 1042.76  23
  -3   3   8 22849.6 1268.70  12
  -3   3   8 21899.9 1097.20  23
  -3   3   7 7736.45 635.361  23
  -3   3   6 681.611 231.691  23
  -3   3   5 85246.5 1858.53  23
   3  -3  -4 30654.9 1119.42  16
   3  -3  -3 99611.4 1852.01  16
   3  -3  -2 170228. 2238.21  16
   3  -3  -1 24.1790 107.403  16
  -3   3   1 102.117 87.4494  24
  -3   3   1-61.2840 136.339  23
  -3   3   1-7.25550 125.665  21
  -3   3   0 40545.2 1058.92  21
  -3   3   0 41012.1 917.078  24
   3  -3   0 41297.5 933.146  16
  -3   3   0 42246.4 976.157  23
  -3   3   0 42005.6 858.012  26
   3  -3   0 40351.4 991.192  25
  -3   3  -1 24704.6 818.601  21
  -3   3  -1 23752.3 731.797  24
  -3   3  -1 25516.5 629.578  26
   3  -3   1 24755.1 737.993  25
  -3   3  -1 24547.5 711.882  23
  -3   3  -2 56119.9 1007.33  23
  -3   3  -2 57317.8 1193.13  24
  -3   3  -2 56654.7 1281.31  21
   3  -3   3 39576.9 892.016  19
  -3   3  -3 39680.3 1061.90  24
  -3   3  -3 39209.6 1117.25  21
  -3   3  -4 9795.21 604.361  21
  -3   3  -5 4818.89 459.779  21
  -3   3  -6 66585.7 1759.16  21
  -3   3  -7 2309.13 382.852  21
  -3   3  -8 1467.91 352.880  21
  -3   3  -9 119191. 2776.74   7
  -3   3  -9 114989. 2716.34  21
  -3   3 -10 2799.76 467.938   7
  -3   3 -10 2167.48 410.696  21
  -3   3 -11 10268.8 883.345   7
  -3   3 -12 981.409 345.139   7
  -3   3 -13 233.838 284.456   5
  -3   3 -13-7.15876 275.397   7
  -3   3 -14 14456.0 966.381   5
  -3   3 -14 14505.8 885.984   7
  -3   3 -15-56.8489 152.606   5
  -3   3 -15 7.45448 144.936   7
  -3   2  15-61.5620 110.071  12
  -3   2  14 11585.3 783.600  12
  -3   2  13 4010.64 567.677  12
  -3   2  12 18933.7 1209.58  12
  -3   2  11 6698.92 756.407  12
  -3   2  10 10948.5 935.916  12
  -3   2   9 10082.6 752.390  23
  -3   2   9 8356.29 781.341   1
  -3   2   8 4918.29 524.223  18
  -3   2   8 4171.41 470.085  23
  -3   2   7 53063.8 1536.23  18
  -3   2   6 1596.90 262.988  18
   3  -2  -6 1572.92 347.582  16
  -3   2   5 23.1457 97.4671  18
   3  -2  -5 109.812 175.414  16
   3  -2  -4 17705.3 802.620  16
   3  -2  -3 47.8516 133.627  16
   3  -2  -2 48285.7 1139.60  16
  -3   2   2 47637.7 1056.10  26
  -3   2   2 49972.0 1154.70  21
   3  -2  -1 4453.68 330.964  25
  -3   2   1 4234.84 302.206  26
  -3   2   1 4336.77 264.244  24
  -3   2   1 3695.16 319.225  21
  -3   2   0 132.778 80.8349  26
  -3   2   0 147.433 110.096  21
  -3   2   0 166.294 82.3129  24
   3  -2   0 274.453 111.494  25
   3  -2   1 4945.74 218.118  19
  -3   2  -1 5043.40 300.969  26
  -3   2  -1 4738.36 319.717  24
  -3   2  -1 4886.42 290.440  23
  -3   2  -1 4387.71 347.339  21
  -3   2  -2 17060.5 639.539  24
  -3   2  -2 17902.7 564.366  26
  -3   2  -2 18500.5 726.691  21
   3  -2   3 45369.9 901.005  27
  -3   2  -3 47885.5 965.968  26
  -3   2  -3 48610.1 1244.26  21
  -3   2  -4 185411. 2605.41  21
  -3   2  -5 4736.27 468.876  21
  -3   2  -6 779.221 261.488  21
  -3   2  -7 136202. 2719.56  21
  -3   2  -8-93.9476 226.451  21
  -3   2  -9 1461.12 357.321  21
  -3   2  -9 933.921 320.983   7
  -3   2 -10 592.438 281.178  21
  -3   2 -10 611.879 243.587   7
  -3   2 -11 8296.42 796.727   7
  -3   2 -12 16157.4 1162.83   5
  -3   2 -12 15599.8 1061.87   7
  -3   2 -13 3172.46 501.495   5
  -3   2 -13 3502.35 499.180   7
  -3   2 -14 4854.63 530.406   5
  -3   2 -14 5771.13 556.763   7
  -3   2 -15 115.401 112.518   7
  -3   1  15 154.532 169.075  12
   3  -1 -14 2163.78 352.409   9
  -3   1  14 2231.89 418.040  12
   3  -1 -13 556.578 247.676   9
  -3   1  13 177.851 199.670  12
   3  -1 -12 22440.2 1230.03   9
  -3   1  12 21551.2 1311.22  12
  -3   1  11 8605.27 766.787  18
  -3   1  11 8095.23 823.224  12
  -3   1  11 8767.11 854.484   1
  -3   1  10 3356.65 484.313  18
  -3   1  10 3869.99 550.730   1
  -3   1  10 4175.16 509.763  23
  -3   1   9 32307.6 1333.28  18
  -3   1   8 161.643 148.516  18
  -3   1   7 5226.91 462.257  18
   3  -1  -7 4715.18 519.606  16
  -3   1   6 2648.92 309.354  18
   3  -1  -6 2717.39 371.348  16
  -3   1   5 42198.7 1054.17  18
   3  -1  -5 42790.8 1273.60  16
  -3   1   4 75910.8 1261.18  18
   3  -1  -4 77661.0 1577.39  16
   3  -1  -3 7595.95 470.305  16
  -3   1   3 6864.35 427.821  26
  -3   1   3 6296.27 395.941  21
  -3   1   2 144018. 1799.31  26
  -3   1   2 149155. 1802.59  21
  -3   1   1 1454.00 187.544  21
  -3   1   1 1665.19 195.567  26
  -3   1   1 1382.75 143.465  24
  -3   1   0 29726.4 765.798  26
  -3   1   0 28905.2 823.211  21
  -3   1  -1 1814.91 192.736  25
  -3   1  -1 1722.95 195.942  26
  -3   1  -1 1614.26 219.110  21
  -3   1  -2 104298. 1717.30  21
   3  -1   2 101757. 1407.29  27
  -3   1  -2 103994. 1489.63  26
  -3   1  -2 105196. 1414.95  25
  -3   1  -3 19587.2 685.557  26
   3  -1   3 18387.0 593.857  27
  -3   1  -3 17831.2 587.184  25
  -3   1  -3 18923.8 794.270  21
  -3   1  -4 10865.2 548.505  26
  -3   1  -4 10226.7 637.618  21
  -3   1  -5 72155.2 1517.05  26
  -3   1  -5 71926.1 1789.57  21
  -3   1  -6 216.431 217.698  21
  -3   1  -7 24445.7 1201.84  21
  -3   1  -8 425.541 245.494  21
  -3   1  -9 27104.6 1380.78   7
  -3   1  -9 27646.6 1418.80  21
  -3   1 -10 1896.28 427.293   7
  -3   1 -10 1903.24 407.070  21
  -3   1 -11 29321.0 1459.85   7
  -3   1 -12 1987.18 419.114   5
  -3   1 -12 1623.64 390.951   7
  -3   1 -12 1821.95 382.591   9
  -3   1 -13 1625.36 344.614   5
  -3   1 -13 1155.79 313.615   7
  -3   1 -14 12638.8 735.093   7
   3   0 -15 120.070 149.504   9
  -3   0  15 38.7088 165.992  12
   3   0 -14 11424.4 839.469   9
  -3   0  14 13003.4 929.587  12
   3   0 -13-79.8011 157.342   9
  -3   0  13 72.3528 223.379  12
   3   0 -12 2174.30 440.154   9
  -3   0  12 2931.33 514.199  12
  -3   0  12 2948.68 538.901   1
  -3   0  11 16946.0 1043.27  18
   3   0 -11 20030.2 1166.02   9
  -3   0  11 18180.9 1184.97   1
  -3   0  10 226.856 181.716  18
  -3   0  10 35.5111 162.534   1
  -3   0   9 5364.41 540.076  18
   3   0  -8 508.718 244.435  16
  -3   0   8 497.656 195.619  18
  -3   0   7 18313.7 811.342  18
   3   0  -7 17948.8 925.444  16
  -3   0   6 24187.3 833.642  18
   3   0  -6 24692.3 998.963  16
  -3   0   5 62026.6 1181.11  18
   3   0  -5 63533.2 1472.97  16
  -3   0   4 167628. 1673.77  18
  -3   0   4 166851. 2148.06  26
  -3   0   3 4023.04 329.102  26
  -3   0   3 3671.65 272.758  21
  -3   0   2 95117.7 1477.68  26
  -3   0   2 94550.0 1309.99  21
  -3   0   1 9456.62 452.536  25
  -3   0   1 8532.13 432.173  26
  -3   0   1 9057.66 424.410  21
  -3   0   0 17948.4 642.691  21
  -3   0   0 17824.3 624.143  26
  -3   0   0 18606.6 624.886  25
  -3   0  -1 20701.5 656.955  25
   3   0   1 18375.8 622.488  27
  -3   0  -1 19456.6 711.061  21
  -3   0  -1 19876.2 675.919  26
  -3   0  -2 222.253 94.0069  25
   3   0   2 401.655 114.314  27
  -3   0  -2 437.227 153.629  21
  -3   0  -3 40397.7 1008.43  19
  -3   0  -3 45459.9 1144.63  26
  -3   0  -3 43933.7 1237.76  21
   3   0   3 42107.8 961.647  27
  -3   0  -4 38335.4 1246.85  21
  -3   0  -4 38504.6 1122.50  26
  -3   0  -5 10180.8 631.541  26
  -3   0  -6 7147.77 574.727  26
  -3   0  -7 107274. 2313.87  26
  -3   0  -7 107019. 2570.45  21
  -3   0  -8 16952.1 1050.27   7
  -3   0  -8 17353.2 1114.01  21
  -3   0  -9 4897.44 606.524   9
  -3   0  -9 4065.54 556.709   7
  -3   0  -9 3812.33 570.861  21
  -3   0 -10 24016.3 1319.42   9
  -3   0 -10 25640.1 1370.55   7
  -3   0 -11 14113.6 1007.62   9
  -3   0 -11 13815.7 997.621   7
  -3   0 -12 19340.8 1092.16   9
  -3   0 -12 20651.7 1159.45   7
  -3   0 -13 403.802 163.320   9
  -3   0 -13 1147.38 309.308   7
  -3   0 -14 327.957 151.182   7
  -3  -1  16 1800.98 281.288  12
   3   1 -16 1444.27 264.135   9
   3   1 -15 467.669 216.924   9
  -3  -1  15 526.291 260.191  12
   3   1 -14 9446.00 796.241   9
  -3  -1  14 7767.79 745.385  12
   3   1 -13 12551.1 956.691   9
  -3  -1  13 13493.8 1028.50  12
  -3  -1  12 38440.5 1582.50  18
   3   1 -12 40920.3 1695.08   9
  -3  -1  12 38036.5 1713.90   1
  -3  -1  11 10239.6 802.245  18
  -3  -1  11 8997.91 832.709   1
  -3  -1  10 338.320 147.492  18
  -3  -1   9 17121.3 896.431  18
   3   1  -9 17172.1 997.521  16
  -3  -1   8 692.385 199.132  18
   3   1  -8 747.258 244.484  16
  -3  -1   7 209.026 127.571  18
   3   1  -7 409.683 219.714  16
  -3  -1   6 617.783 151.033  18
   3   1  -6 520.166 207.174  16
  -3  -1   5 14980.3 545.928  18
  -3  -1   5 14344.7 675.155  26
  -3  -1   4 183458. 2224.42  26
  -3  -1   3 64016.1 1257.88  26
  -3  -1   3 62642.3 966.537  21
  -3  -1   2 38372.4 956.299  26
  -3  -1   2 36434.0 755.447  21
  -3  -1   1 242.767 42.7705  19
  -3  -1   1 489.608 116.680  21
   3   1  -1 250.713 107.433  27
  -3  -1   1 178.104 108.494  26
  -3  -1   0 83572.8 938.205  19
  -3  -1   0 81844.5 1362.26  21
  -3  -1   0 78776.7 1395.45  26
   3   1   0 79182.8 1334.93  27
  -3  -1  -1 88963.8 1195.59  19
   3   1   1 85989.7 1407.62  27
  -3  -1  -1 90202.1 1541.05  26
  -3  -1  -1 85587.1 1542.48  21
  -3  -1  -2 40319.7 948.297  19
  -3  -1  -2 42156.5 1113.07  26
   3   1   2 40657.0 992.474  27
  -3  -1  -3 76102.0 1586.12  26
  -3  -1  -4 45.6683 134.806  26
  -3  -1  -5 39738.5 1319.70  26
  -3  -1  -6 2026.95 350.736  26
  -3  -1  -7 1287.42 310.804  26
  -3  -1  -8 387.719 184.569   9
  -3  -1  -8 815.822 273.742   7
  -3  -1  -8 141.566 187.799  26
  -3  -1  -9 17105.3 1131.31   9
  -3  -1  -9 16816.5 1121.64   7
  -3  -1  -9 17297.6 1178.05  21
  -3  -1 -10 18009.2 1162.67   9
  -3  -1 -10 16579.0 1114.03   7
  -3  -1 -11 5313.81 623.146   7
  -3  -1 -11 4527.16 590.216   9
  -3  -1 -12 364.853 183.222   9
  -3  -1 -12 98.1067 212.001   7
  -3  -1 -13 573.988 180.183   9
  -3  -1 -13 161.394 167.942   7
   3   2 -16 13146.9 781.488   9
  -3  -2  16 12551.5 746.554  12
   3   2 -15 5869.53 613.960   9
  -3  -2  15 6456.52 644.265  12
   3   2 -14 28366.6 1402.27   9
  -3  -2  14 25419.1 1350.72  12
  -3  -2  14 27036.7 1405.83   1
   3   2 -13 6660.40 716.159   9
  -3  -2  13 7278.30 772.985   1
  -3  -2  12 5928.80 621.380  18
  -3  -2  12 5498.56 669.036   1
  -3  -2  11 27960.8 1274.82  18
   3   2 -11 26419.8 1288.92  10
  -3  -2  11 26284.9 1376.81   1
  -3  -2  10-16.2105 131.842  18
   3   2  -9 54479.3 1682.40  16
  -3  -2   9 56342.6 1576.28  18
  -3  -2   8 32.6657 106.123  18
   3   2  -8-408.523 187.740  16
  -3  -2   7 10520.3 568.561  18
   3   2  -7 11004.6 671.936  16
  -3  -2   6 101487. 1564.10  18
  -3  -2   6 106017. 1886.55  26
  -3  -2   5 1458.62 242.148  26
  -3  -2   4 3923.18 346.380  26
   3   2  -3 33781.3 912.869  27
  -3  -2   3 34944.3 954.380  26
   3   2  -2 84979.2 1440.39  27
  -3  -2   2 87774.3 1489.20  26
  -3  -2   2 87547.7 1159.41  21
  -3  -2   1 22.6517 69.7103  21
   3   2  -1 271.424 98.8907  27
  -3  -2   1 71.6115 109.019  26
  -3  -2   0 19003.2 691.097  21
  -3  -2   0 20118.3 754.165  26
  -3  -2  -1 60612.2 1139.05  19
  -3  -2  -1 63063.8 1380.09  26
  -3  -2  -2 34035.1 1077.81  26
  -3  -2  -3 76951.7 1719.50  26
  -3  -2  -4 33528.9 1216.88  26
  -3  -2  -5 21005.2 1030.85  26
  -3  -2  -6 1273.02 322.034  26
  -3  -2  -7 1192.74 333.987   9
  -3  -2  -7 889.770 295.148   7
  -3  -2  -7 754.046 255.792  26
  -3  -2  -8 7771.91 787.691   9
  -3  -2  -8 7306.92 722.325  26
  -3  -2  -8 7842.50 763.071   7
  -3  -2  -9 185.600 197.936   9
  -3  -2  -9 650.791 299.764   7
  -3  -2 -10 2034.92 440.555   9
  -3  -2 -10 2238.46 439.999   7
  -3  -2 -11 1620.95 361.645   9
  -3  -2 -11 1074.85 329.738   7
  -3  -2 -12 30807.9 1244.44   7
  -3  -2 -12 31204.1 1257.55   9
  -3  -2 -13 273.701 131.573   9
   3   3 -17 1921.57 292.034   9
   3   3 -16 5861.79 572.410   9
  -3  -3  16 5438.57 520.309  12
   3   3 -15 8475.41 759.988   9
  -3  -3  15 7933.62 718.999  12
  -3  -3  15 7836.63 755.766   1
   3   3 -14 10590.6 887.316   9
  -3  -3  14 9720.67 873.968   1
  -3  -3  13 71291.4 2338.53   1
  -3  -3  12-25.6763 203.914   1
  -3  -3  12 442.038 226.064  18
   3   3 -12 30.2507 158.357  10
  -3  -3  11 10937.7 800.909  18
  -3  -3  11 11283.8 900.565   1
   3   3 -11 12302.9 872.196  10
  -3  -3  10 305.353 177.920  18
   3   3 -10 520.598 218.544  16
  -3  -3   9 97433.9 2030.07  18
   3   3  -9 99399.5 2191.44  16
  -3  -3   8 3825.61 379.815  18
   3   3  -8 4087.29 435.266  16
  -3  -3   7 2373.50 275.941  18
  -3  -3   7 2934.68 357.124  26
  -3  -3   6 37647.7 1121.82  26
  -3  -3   5 142918. 2056.13  13
  -3  -3   5 143193. 2070.98  26
  -3  -3   4 233351. 2446.55  13
  -3  -3   4 226158. 2539.57  26
  -3  -3   3 17565.1 639.091  13
  -3  -3   3 18777.6 726.180  26
  -3  -3   2 89.4607 113.558  26
  -3  -3   2 5.71654 75.8772  13
  -3  -3   1 9996.20 551.279  26
  -3  -3   0 70380.6 1493.02  26
  -3  -3  -1 98515.0 1857.65  26
  -3  -3  -2 2608.03 343.633  26
  -3  -3  -3 1537.51 302.010  26
  -3  -3  -4 265.781 201.556  26
  -3  -3  -5 32762.0 1368.28  26
  -3  -3  -6 4903.99 583.872  26
  -3  -3  -7 3872.94 567.488   9
  -3  -3  -7 3353.99 528.833   7
  -3  -3  -7 3698.19 545.147  26
  -3  -3  -8 8473.14 817.058   9
  -3  -3  -8 8997.49 816.587   7
  -3  -3  -8 10427.8 884.199  26
  -3  -3  -9 12805.0 971.104   7
  -3  -3  -9 12378.5 990.030   9
  -3  -3 -10 22731.1 1242.01   7
  -3  -3 -10 19644.7 1171.84   9
  -3  -3 -11 3346.99 460.363   9
  -3  -3 -11 3177.37 464.848   7
  -3  -3 -12-19.4757 131.825   9
   3   4 -17-4.63751 153.231   9
   3   4 -16 6661.78 637.720   9
  -3  -4  16 6634.69 584.081  12
   3   4 -15 5385.35 634.368   9
  -3  -4  15 5973.05 636.989  12
  -3  -4  15 5559.36 635.856   1
  -3  -4  14 6012.27 699.537   1
   3   4 -13 982.056 323.350  10
  -3  -4  13 905.246 333.998   1
  -3  -4  12 2506.02 467.976   1
  -3  -4  12 2332.63 388.009  18
   3   4 -12 2269.93 398.079  10
  -3  -4  11 70840.8 2209.72   1
  -3  -4  11 70812.8 1963.25  18
  -3  -4  10 1371.94 287.590  18
  -3  -4   9 6459.23 534.535  18
   3   4  -9 7308.71 582.938  16
  -3  -4   8 4444.83 401.531  18
   3   4  -8 3796.31 412.571  16
  -3  -4   7 79550.2 1765.19  13
  -3  -4   7 78695.6 1687.22  26
  -3  -4   6 152225. 2250.39  26
  -3  -4   6 152556. 2294.97  13
  -3  -4   5 36260.1 1058.93  13
  -3  -4   5 37607.0 1084.99  26
  -3  -4   4 736.025 187.622  26
  -3  -4   4 729.186 180.632  13
  -3  -4   3 4161.74 332.637  13
  -3  -4   3 4310.88 379.803  26
  -3  -4   2 137629. 1730.07  13
  -3  -4   2 140400. 2094.12  26
  -3  -4   1 11816.7 638.508  26
  -3  -4   0 1948.27 298.149  26
  -3  -4  -1 3586.09 402.575  26
  -3  -4  -2 552.628 244.203  26
  -3  -4  -3 140902. 2677.82  26
  -3  -4  -4 14968.2 941.678  26
  -3  -4  -5 699.487 274.966  26
  -3  -4  -6-288.130 230.749   9
  -3  -4  -6-78.3086 158.131   7
  -3  -4  -6-89.1740 222.564  26
  -3  -4  -7 10020.1 869.228   7
  -3  -4  -7 11174.0 918.680  26
  -3  -4  -7 9570.27 881.045   9
  -3  -4  -8 13045.0 1012.22   9
  -3  -4  -8 12071.0 951.444   7
  -3  -4  -9 3483.92 544.488   9
  -3  -4  -9 4130.43 575.239   7
  -3  -4 -10 2695.82 428.502   9
  -3  -4 -11 5861.76 552.636   9
   3   5 -17 820.283 243.330   9
  -3  -5  16 3011.16 448.607   1
   3   5 -16 2599.15 434.750   9
  -3  -5  15 263.632 234.051   1
  -3  -5  14 188.158 249.313   1
   3   5 -14-72.9855 245.271  10
  -3  -5  13 27009.5 1437.27   1
   3   5 -13 29564.9 1419.25  10
  -3  -5  12 7179.03 747.154   1
  -3  -5  12 6841.66 660.717  18
   3   5 -12 7380.39 707.169  10
  -3  -5  11 632.706 254.951  18
  -3  -5  11 484.910 238.494   1
  -3  -5  11 747.155 276.624  11
  -3  -5  10 6422.76 571.994  18
  -3  -5   9 37689.4 1260.30  18
   3   5  -9 37171.0 1274.19  16
  -3  -5   8 36818.7 1161.52  18
  -3  -5   8 36857.2 1298.84  13
  -3  -5   8 35822.0 1203.15  26
  -3  -5   7 88012.2 1890.82  13
  -3  -5   7 87323.8 1803.48  26
  -3  -5   6 49.0635 124.003  26
  -3  -5   6-211.075 196.198  13
  -3  -5   5 6186.06 463.764  13
  -3  -5   5 6201.61 466.785  26
  -3  -5   4 76407.9 1511.73  13
  -3  -5   4 75687.8 1571.40  26
  -3  -5   3 40527.2 1053.43  13
  -3  -5   3 39353.8 1152.88  26
  -3  -5   2 8542.46 461.260  13
  -3  -5   2 7570.01 531.835  26
  -3  -5   1 524.425 198.512  26
  -3  -5   0 593.857 211.814  26
  -3  -5  -1 134373. 2493.47  26
  -3  -5  -2 28407.5 1223.17  26
  -3  -5  -3 13979.8 914.979  26
  -3  -5  -4 45580.6 1719.41  26
  -3  -5  -5 53665.4 1915.39   7
  -3  -5  -5 55284.9 2001.73   9
  -3  -5  -5 55598.3 1985.97  26
  -3  -5  -6 9841.46 869.407  26
  -3  -5  -6 8722.79 816.528   7
  -3  -5  -6 8872.05 842.772   9
  -3  -5  -7 39566.2 1754.22   9
  -3  -5  -7 37839.3 1677.51   7
  -3  -5  -8 10657.7 918.694   9
  -3  -5  -9 1412.69 346.545   9
  -3  -5 -10 19901.2 1042.27   9
  -3  -5 -11 1049.36 226.211   9
   3   6 -17 2023.31 340.075   9
  -3  -6  16 1027.31 294.921   1
   3   6 -15 10622.5 839.667  10
  -3  -6  15 11864.3 913.860   1
   3   6 -14 20061.5 1178.90  10
  -3  -6  14 21614.4 1265.90   1
   3   6 -13 7507.35 732.215  10
  -3  -6  13 7232.27 760.799   1
  -3  -6  12 6042.20 625.016  18
  -3  -6  12 7392.93 771.672   1
   3   6 -12 7668.22 717.101  10
  -3  -6  11 53255.3 1704.28  18
  -3  -6  11 55353.6 1956.23   1
  -3  -6  11 53543.3 1881.37  11
  -3  -6  10 37311.6 1362.72  18
  -3  -6   9 2506.65 393.060  13
  -3  -6   8 6970.04 592.271  13
  -3  -6   8 6416.62 518.801  26
  -3  -6   7 25820.0 1067.24  13
  -3  -6   7 27886.2 1029.72  26
  -3  -6   6 136473. 2312.93  13
  -3  -6   6 136316. 2220.11  26
  -3  -6   5 11817.5 655.679  13
  -3  -6   5 11661.1 652.291  26
  -3  -6   4 56631.2 1375.03  13
  -3  -6   4 57915.3 1448.62  26
  -3  -6   3-1.61069 159.920  26
  -3  -6   3 30.3280 99.2845  13
  -3  -6   2 123692. 2220.40  26
  -3  -6   1 54169.6 1533.84  26
  -3  -6   0 20059.7 988.202  26
  -3  -6  -1 7562.68 654.944  26
  -3  -6  -2 23774.2 1190.61  26
  -3  -6  -3 65030.9 2050.38  26
  -3  -6  -4 5527.39 655.397   9
  -3  -6  -4 5129.38 626.825   7
   3   6   4 4793.32 577.840  12
  -3  -6  -4 5288.28 630.408  26
  -3  -6  -5 2116.55 464.560   9
  -3  -6  -5 2348.88 441.695  26
  -3  -6  -6 2579.23 500.486   9
  -3  -6  -7 18976.0 1224.04   9
  -3  -6  -8 18044.9 1134.85   9
  -3  -6  -9 1425.27 326.154   9
  -3  -6 -10 3744.96 415.073   9
   3   7 -18 6015.65 467.601   9
   3   7 -17 4116.17 474.391   9
  -3  -7  17 3687.94 419.065   1
  -3  -7  16 89.8581 186.566   1
   3   7 -15 15378.7 999.424  10
  -3  -7  15 16424.0 1057.80   1
  -3  -7  14 4528.43 594.213   1
   3   7 -14 3899.83 550.538  10
  -3  -7  13 14666.3 1054.77   1
   3   7 -13 13198.7 953.734  10
   3   7 -12 5084.18 589.122  10
  -3  -7  12 5124.19 648.275   1
  -3  -7  12 4715.69 584.913  11
  -3  -7  11 1180.06 271.978  11
   3   7 -11 1960.76 358.160  10
  -3  -7  11 1816.76 388.456   1
  -3  -7  10 1154.53 325.176  13
  -3  -7   9 22501.4 1121.63  13
  -3  -7   8 107209. 2319.42  13
  -3  -7   8 105492. 2066.38  26
  -3  -7   7 2660.23 341.717  26
  -3  -7   7 2192.59 343.386  13
  -3  -7   6 260.285 172.238  13
  -3  -7   6 256.208 162.366  26
  -3  -7   5 977.006 232.596  13
  -3  -7   5 796.104 203.718  26
  -3  -7   4 16792.9 794.399  13
  -3  -7   4 18604.3 870.816  26
  -3  -7   3 3851.67 425.702  26
  -3  -7   3 4107.73 380.580  13
  -3  -7   2 2764.80 380.010  26
  -3  -7   1 10830.7 740.721  26
  -3  -7   0 7381.59 647.639  26
  -3  -7  -1 48268.8 1686.49  26
  -3  -7  -2 1596.38 371.814  26
  -3  -7  -3-665.271 278.801   9
  -3  -7  -3-160.462 200.214  26
   3   7   4 14293.4 1015.20  12
  -3  -7  -4 14975.2 1077.26  26
  -3  -7  -4 16174.4 1141.36   9
  -3  -7  -5 10502.1 933.727   9
  -3  -7  -6 36499.5 1682.62   9
  -3  -7  -7 2265.18 460.003   9
  -3  -7  -8 4626.95 549.814   9
  -3  -7  -9 36.3835 156.234   9
  -3  -7  -9 216.520 184.048  11
   3   8 -18-21.0876 145.772   9
  -3  -8  17 4717.12 465.716   1
   3   8 -16 844.796 284.269  10
  -3  -8  16 808.541 274.360   1
   3   8 -15 27855.5 1318.49  10
  -3  -8  15 28048.0 1366.01   1
  -3  -8  14 39.1138 205.754   1
   3   8 -14-60.6658 207.165  10
  -3  -8  13 6430.82 715.956   1
   3   8 -13 6176.90 658.518  10
   3   8 -12-112.677 177.480  10
  -3  -8  12 390.278 259.379   1
  -3  -8  11 1959.24 409.240   1
  -3  -8  11 3132.58 460.124  13
   3   8 -11 2587.74 426.921  10
  -3  -8  10 56037.4 1959.83   1
  -3  -8  10 57889.2 1891.05  13
  -3  -8   9 40.5744 192.777  13
  -3  -8   8 36436.7 1403.82  13
  -3  -8   7 8992.38 691.343  13
  -3  -8   6 78629.9 1923.59  13
  -3  -8   6 80383.3 1824.64  26
  -3  -8   5 8447.08 619.549  13
  -3  -8   5 8793.92 620.353  26
  -3  -8   4 3380.40 398.654  13
  -3  -8   4 2858.80 374.387  26
  -3  -8   3 20456.7 992.532  26
  -3  -8   2 57099.6 1697.23  26
  -3  -8   1 113089. 2492.74  26
  -3  -8   0 2435.06 413.026  26
  -3  -8  -1 1117.23 334.570   9
  -3  -8  -1 2186.22 375.671  17
  -3  -8  -1 1317.98 357.023  26
  -3  -8  -2 4893.40 608.554  26
  -3  -8  -2 4786.83 640.170   9
  -3  -8  -2 5100.23 595.647  17
  -3  -8  -3 18994.6 1134.82  17
  -3  -8  -3 20193.8 1271.74   9
  -3  -8  -3 20669.0 1247.91  26
  -3  -8  -4 2750.91 528.551   9
  -3  -8  -4 2519.54 432.648  17
  -3  -8  -5 4596.51 637.499   9
  -3  -8  -6 12005.4 931.711   9
  -3  -8  -7 0.51428 206.999   9
  -3  -8  -8 8293.83 616.401  11
  -3  -8  -8 8475.08 641.186   9
   3   9 -18 2219.11 290.874   9
  -3  -9  17 20407.8 910.391   1
   3   9 -16 3898.92 469.803  10
  -3  -9  16 4417.10 506.272   1
  -3  -9  15 3028.87 484.054   1
   3   9 -15 3375.12 479.294  10
  -3  -9  14 5690.84 659.022   1
   3   9 -14 6349.62 655.721  10
  -3  -9  13 34973.8 1620.28   1
   3   9 -13 35027.3 1528.27  10
  -3  -9  12 14360.1 1040.24   1
   3   9 -12 13835.4 964.478  10
  -3  -9  11 433.557 231.813   1
  -3  -9  11 427.869 181.962  13
   3   9 -11 806.460 251.837  10
   3   9 -10 13399.5 938.327   2
   3   9 -10 12950.6 879.529  10
  -3  -9  10 14824.2 985.665  13
  -3  -9  10 12476.5 961.235   1
  -3  -9   9 13556.1 927.977  13
  -3  -9   9 13394.5 967.189   1
  -3  -9   8 33657.6 1401.68  13
  -3  -9   7 321.400 220.101  13
  -3  -9   6 5960.10 571.928  13
  -3  -9   5 14292.3 848.215  13
  -3  -9   4 63815.1 1714.78  13
  -3  -9   4 62872.9 1748.31  26
  -3  -9   3 21411.6 1065.66  26
  -3  -9   2 11418.2 812.916  26
  -3  -9   1 43876.0 1698.22  17
  -3  -9   1 39743.3 1557.35  26
  -3  -9   1 42432.8 1739.20   9
  -3  -9   0 7296.05 735.613  17
  -3  -9   0 5553.20 621.421  11
  -3  -9   0 8317.96 752.864  26
  -3  -9   0 7075.87 748.815   9
  -3  -9  -1 13164.2 969.725  17
  -3  -9  -1 13306.8 1030.02   9
  -3  -9  -1 13583.5 991.905  26
  -3  -9  -1 12722.8 952.967  11
  -3  -9  -2 15008.9 1041.17  17
  -3  -9  -2 14692.8 1095.06   9
  -3  -9  -2 14462.1 1012.16  11
  -3  -9  -3 1718.44 418.615   9
  -3  -9  -3 1996.43 402.228  17
  -3  -9  -3 1558.76 387.019  11
  -3  -9  -4 1741.09 460.722   9
  -3  -9  -4 1436.16 338.779  17
  -3  -9  -4 1340.36 324.450  11
  -3  -9  -5 1203.16 392.759   9
  -3  -9  -5 1019.85 285.646  11
  -3  -9  -6 11241.1 786.352  11
  -3  -9  -6 12201.7 869.205   9
  -3  -9  -7 3070.36 405.137   9
  -3  -9  -7 3316.40 396.937  11
   3  10 -18 12.5042 104.236   9
  -3 -10  17 454.443 176.017   1
   3  10 -17 864.687 228.707  10
  -3 -10  16 312.172 247.732   1
   3  10 -16 52.1190 175.249  10
   3  10 -15 11336.5 820.751  10
  -3 -10  15 11268.9 846.523   1
  -3 -10  14 14993.4 1017.67   1
   3  10 -14 14220.6 953.557  10
  -3 -10  13 3347.86 529.020   1
   3  10 -13 3726.65 519.936  10
  -3 -10  12 436.277 246.814   1
   3  10 -12 90.0289 169.343  14
   3  10 -12 754.626 268.606  10
  -3 -10  11 220.875 230.727  13
  -3 -10  11 160.409 184.941   1
   3  10 -11 213.176 164.547  10
   3  10 -10 7868.27 728.655   2
  -3 -10  10 6982.17 710.777  13
  -3 -10  10 8893.39 823.136   1
   3  10 -10 7611.00 689.997  10
  -3 -10   9 2041.26 402.212  13
   3  10  -9 2126.95 407.030   2
  -3 -10   9 2004.94 424.749   1
   3  10  -8 21581.9 1195.39   2
  -3 -10   8 20518.4 1131.26  13
  -3 -10   7 1108.31 298.568  13
   3  10  -7 737.388 271.279   2
   3  10  -6 101773. 2575.12   2
  -3 -10   6 98740.4 2356.17  13
  -3 -10   5 1480.06 354.768  17
  -3 -10   5 1425.21 326.710  13
   3  10  -5 987.456 270.554   2
  -3 -10   4 11217.2 882.251  17
  -3 -10   3 27955.6 1398.69  17
  -3 -10   2 101.122 143.026  17
  -3 -10   2 528.128 264.484  26
  -3 -10   1 2639.06 485.235   9
  -3 -10   1 2668.23 484.917  17
  -3 -10   1 2133.59 408.638  26
  -3 -10   0 2488.62 514.079   9
  -3 -10   0 1925.76 391.297  17
  -3 -10   0 1892.82 394.945  26
  -3 -10  -1 1993.72 456.622   9
  -3 -10  -1 1825.50 400.318  17
  -3 -10  -2 1544.31 410.383   9
  -3 -10  -2 1129.67 316.974  17
  -3 -10  -2 1779.09 372.494  11
  -3 -10  -3 4316.19 607.328   9
  -3 -10  -3 4984.89 582.656  17
  -3 -10  -3 3403.88 477.018  11
  -3 -10  -4 16056.3 964.838  17
  -3 -10  -4 16309.4 1070.41   9
  -3 -10  -4 17789.3 1017.18  11
  -3 -10  -5 2423.09 411.793   9
  -3 -10  -5 3127.00 399.758  17
  -3 -10  -5 2382.00 361.493  11
  -3 -10  -6 3194.12 401.308   9
  -3 -10  -6 3355.61 363.325  11
   3  11 -17 5682.13 462.974  10
  -3 -11  16 707.345 214.700   1
   3  11 -16 685.699 233.676  10
  -3 -11  15 5.39308 181.736   1
   3  11 -15 168.236 201.690  10
   3  11 -14 359.463 228.073  10
  -3 -11  14 753.298 314.372   1
  -3 -11  13 10345.9 869.391   1
   3  11 -13 10771.6 950.594  14
   3  11 -13 10635.5 827.648  10
  -3 -11  12 8513.87 815.484   1
   3  11 -12 7516.81 847.460  14
   3  11 -12 7268.83 704.114  10
   3  11 -11 14097.5 970.401   2
  -3 -11  11 15164.2 1077.26   1
   3  11 -11 12764.6 912.925  10
   3  11 -10 27748.4 1377.15   2
  -3 -11  10 28202.9 1412.62  13
  -3 -11  10 28344.5 1472.68   1
   3  11 -10 28962.0 1344.70  10
   3  11  -9 8123.42 766.323   2
  -3 -11   9 8858.25 789.314  13
  -3 -11   9 9523.16 857.964   1
   3  11  -8 41539.0 1700.77   2
  -3 -11   8 39817.8 1620.54  13
  -3 -11   7 860.632 271.683  13
   3  11  -7 534.900 245.517   2
  -3 -11   6 981.491 277.354  13
   3  11  -6 1364.07 345.076   2
  -3 -11   5 2244.62 452.090  17
   3  11  -5 1802.01 389.996   2
  -3 -11   4 33011.1 1577.01  17
   3  11  -4 33398.1 1557.67   2
  -3 -11   3 30948.4 1534.18  17
  -3 -11   2 2031.88 431.071  17
  -3 -11   1 1144.05 374.917  17
  -3 -11   0 5456.80 663.373  17
  -3 -11  -1 4848.16 608.966  17
  -3 -11  -2 4101.22 595.949   9
  -3 -11  -2 3858.65 535.358  17
  -3 -11  -3 672.651 270.459  17
  -3 -11  -4 6767.96 564.174  17
   3  12 -17 510.458 156.467  10
  -3 -12  16 459.193 170.687   1
   3  12 -16 711.099 208.626  10
  -3 -12  15 7277.79 621.695   1
   3  12 -15 5696.79 546.519  10
   3  12 -14 539.485 251.069  14
  -3 -12  14 170.543 183.997   1
   3  12 -14 193.129 191.012  10
   3  12 -13 234.192 189.429  10
   3  12 -13-313.858 230.281  14
  -3 -12  13-169.372 207.686   1
   3  12 -12 27.0086 284.181  14
  -3 -12  12 314.456 249.176   1
   3  12 -12 337.962 209.766  10
   3  12 -11 1203.31 413.292  14
   3  12 -11 1439.65 351.320   2
  -3 -12  11 2360.19 475.429   1
   3  12 -11 1960.36 396.886  10
   3  12 -10 4133.78 551.936   2
   3  12 -10 4388.48 540.289  10
  -3 -12  10 4221.33 600.062   1
   3  12  -9 11537.6 908.025   2
  -3 -12   9 10455.0 910.696   1
   3  12  -8 965.786 291.209   2
   3  12  -7 17940.3 1151.89   2
  -3 -12   7 18188.3 1098.43  13
   3  12  -6 1326.27 341.455   2
  -3 -12   5 9883.25 893.465  17
   3  12  -5 10744.0 909.606   2
  -3 -12   4 323.234 272.342  17
   3  12  -4 58.6672 203.201   2
  -3 -12   3 911.230 335.089  17
  -3 -12   2 20191.2 1235.92  17
  -3 -12   1 25025.0 1356.72  17
  -3 -12   0 123.593 225.586  17
  -3 -12  -1 183.102 203.901  17
  -3 -12  -2 3970.16 494.585  17
  -3 -12  -3 1108.38 262.118  17
  -3 -12  -4-64.4133 109.576  17
   3  13 -16 55.2306 106.894  10
  -3 -13  15 2748.62 362.193   1
   3  13 -15 2905.00 378.869  10
  -3 -13  14 8772.92 700.857   1
   3  13 -14 8706.57 773.692  14
   3  13 -14 8693.37 660.993  10
  -3 -13  13 1591.79 368.480   1
   3  13 -13 1213.55 383.471  14
   3  13 -13 1338.35 326.128  10
   3  13 -12 2111.66 524.351  14
  -3 -13  12 2185.14 424.200   1
   3  13 -12 1788.57 333.464  10
   3  13 -11 2873.17 575.398  14
   3  13 -11 2024.16 385.190   2
  -3 -13  11 2365.86 435.926   1
   3  13 -11 2484.76 400.869  10
   3  13 -10 9242.83 776.749   2
  -3 -13  10 9192.25 848.364   1
   3  13 -10 8779.20 732.198  10
   3  13  -9 6500.41 671.743   2
  -3 -13   9 5982.81 716.348   1
   3  13  -8 13460.3 973.326   2
   3  13  -7 341.906 235.088   2
   3  13  -6 231.216 216.568   2
  -3 -13   5 7456.81 776.642  17
   3  13  -5 7633.74 760.156   2
  -3 -13   4 2963.70 520.698  17
   3  13  -4 2361.77 467.787   2
  -3 -13   3 14856.1 1061.47  17
   3  13  -3 14698.1 1035.57   2
  -3 -13   2 373.743 260.727  17
  -3 -13   1 15341.7 1019.97  17
  -3 -13   0 17319.0 1014.10  17
  -3 -13  -1 1393.06 305.081  17
  -3 -13  -2 3302.08 381.586  17
   3  13   2 3666.28 413.562   2
   3  13   3 260.996 142.202   2
  -3 -14  15 4665.07 420.512   1
   3  14 -15 5202.47 438.972  10
   3  14 -14 330.535 185.409  10
   3  14 -14-224.264 222.016  14
  -3 -14  14-189.647 159.116   1
   3  14 -13-231.977 247.552  14
   3  14 -13-22.4447 131.246  10
  -3 -14  13 181.275 171.184   1
  -3 -14  12 7089.96 674.303   1
   3  14 -12 7202.60 790.925  14
   3  14 -12 8015.13 642.491  10
   3  14 -11 277.228 279.414  14
  -3 -14  11-167.763 252.766   1
   3  14 -11-19.8428 148.387  10
   3  14 -10 24114.0 1165.25   2
   3  14 -10 25567.4 1532.51  14
  -3 -14  10 24870.6 1299.16   1
   3  14  -9 4532.47 693.573  14
   3  14  -9 3797.28 495.188   2
  -3 -14   9 5141.62 628.452   1
   3  14  -8 3998.39 526.928   2
   3  14  -7 13257.4 942.745   2
   3  14  -6-16.2150 205.370   2
   3  14  -5 2007.45 400.097   2
   3  14  -4 1049.26 293.282   2
  -3 -14   3 7255.42 708.496  17
   3  14  -3 6050.95 628.777   2
  -3 -14   2 4029.41 530.285  17
   3  14  -2 4716.26 558.391   2
  -3 -14   1 26210.3 1175.60  17
   3  14  -1 26812.2 1183.79   2
  -3 -14   0 638.986 211.427  17
   3  14   0 354.513 180.586   2
  -3 -14  -1 168.367 125.654  17
   3  14   1 41.6269 130.948   2
  -3 -15  14 18599.5 808.739   1
   3  15 -14 19578.1 787.288  10
   3  15 -13 653.098 268.708  14
   3  15 -13 503.437 173.441  10
  -3 -15  13-0.74453 159.130   1
  -3 -15  12 6734.43 594.458   1
   3  15 -12 6908.27 731.597  14
   3  15 -12 7126.19 550.768  10
   3  15 -11 2068.07 445.392  14
  -3 -15  11 1891.07 368.375   1
   3  15 -10 15872.5 1145.75  14
  -3 -15  10 17454.8 1010.81   1
   3  15  -9 14347.6 847.719   2
   3  15  -9 16521.4 1154.16  14
  -3 -15   9 14856.0 959.284   1
   3  15  -8 9731.06 722.185   2
   3  15  -8 10860.0 937.394  14
  -3 -15   8 10781.4 840.388   1
   3  15  -7 6504.06 609.368   2
   3  15  -7 7085.37 733.531  14
   3  15  -6 527.948 252.738  14
   3  15  -6 199.587 196.612   2
   3  15  -5 15039.3 900.553   2
   3  15  -4 838.717 251.827   2
   3  15  -3 9380.10 682.444   2
   3  15  -2 3096.14 386.181   2
   3  15  -1 5644.02 463.106   2
   3  16 -13 3183.85 417.878  14
  -3 -16  12 3475.84 372.724   1
   3  16 -12 4888.08 547.116  14
   3  16 -11 2985.95 456.113  14
  -3 -16  11 3052.69 381.435   1
   3  16 -10 10760.6 830.273  14
  -3 -16  10 11979.2 749.511   1
   3  16  -9 1904.25 380.765  14
  -3 -16   9 1451.29 307.346   1
  -3 -16   8 621.918 231.183   1
   3  16  -8 259.056 199.851  14
   3  16  -8 954.481 200.721   2
   3  16  -7 4014.71 410.924   2
   3  16  -7 4698.15 521.911  14
  -3 -16   7 4578.96 485.627   1
   3  16  -6 2459.07 332.447   2
   3  16  -5 495.981 170.563   2
   3  16  -4 172.539 127.043   2
   3  16  -3 7109.36 480.374   2
   3  17 -11 1152.44 250.683  14
   3  17 -10 3640.75 412.143  14
   3  17  -9 10230.6 650.923  14
  -3 -17   9 10627.2 599.373   1
  -3 -17   8 1978.49 278.308   1
  -3 -17   7 612.594 170.281   1
  -4  16  -3 1893.02 276.460  22
  -4  16  -4 876.011 213.794  22
  -4  16  -5 305.121 165.900  22
  -4  16  -6-125.572 132.838  22
  -4  16  -7 3619.30 388.712  22
  -4  16  -8 2968.85 345.517  22
  -4  16  -9 438.968 166.981  22
  -4  15   0 885.782 204.196  22
  -4  15  -1 8889.27 601.404  22
  -4  15  -2 106.800 160.863  22
  -4  15  -3 190.377 170.860  22
  -4  15  -4 2143.51 399.081  22
  -4  15  -5 2327.26 399.551  22
  -4  15  -6 2057.17 376.267  22
  -4  15  -7-20.0567 172.366  22
  -4  15  -8 1976.65 353.995  22
  -4  15  -9 1382.49 244.697   7
  -4  15  -9 1642.14 308.031  22
  -4  15 -10 4701.48 425.918   7
  -4  15 -10 5626.49 488.030  22
  -4  15 -11-189.444 115.335   7
  -4  15 -11 100.619 106.931  22
  -4  14   2 3148.44 327.072  22
  -4  14   1 4870.36 442.681   4
  -4  14   1 4529.39 449.462  22
  -4  14   0-192.630 168.508  22
  -4  14  -1 6208.88 600.819  22
  -4  14  -2 2668.07 441.411  22
  -4  14  -3 13264.4 925.236  22
  -4  14  -4-91.3975 251.033  22
  -4  14  -5 2431.85 458.439  22
  -4  14  -6 5926.79 648.841  22
  -4  14  -7 29496.7 1355.49  22
  -4  14  -8 9901.08 779.207  22
  -4  14  -9 2260.44 393.917  22
  -4  14 -10 154.876 149.545   7
  -4  14 -10 249.653 179.202  22
  -4  14 -11 417.711 204.297   7
  -4  14 -11 125.034 167.943  22
  -4  14 -12 660.494 183.910   7
  -4  14 -12 630.393 183.579  22
  -4  14 -13 1562.07 237.401   7
  -4  13   4 509.647 163.194   4
  -4  13   3 761.822 218.394   4
  -4  13   3 651.740 197.354  22
  -4  13   2 2905.56 396.491   4
  -4  13   2 3118.61 409.804  22
  -4  13   1 1013.29 278.236   4
  -4  13   1 461.951 249.638  22
  -4  13   0 10738.0 821.298  22
  -4  13  -1 37690.5 1564.63  22
  -4  13  -2 1009.85 339.900  22
  -4  13  -3-163.027 224.109  22
  -4  13  -4 6744.48 710.112  22
  -4  13  -5 11829.2 939.568  22
  -4  13  -6 6289.81 699.491  22
  -4  13  -7 480.644 306.421  22
  -4  13  -8 317.371 242.035  22
  -4  13  -9 2198.61 412.732  22
  -4  13 -10 7291.77 657.513   7
  -4  13 -10 8824.59 727.283  22
  -4  13 -11 662.278 243.265   7
  -4  13 -11 1100.74 271.979  22
  -4  13 -12 594.158 213.653   7
  -4  13 -12 494.090 205.976  22
  -4  13 -13 298.983 153.507   7
  -4  13 -13 94.9006 113.381  22
  -4  12   5-205.709 149.482   4
  -4  12   4-65.4469 165.836   4
  -4  12   3 1614.36 344.411   4
  -4  12   3 1850.82 335.147  22
  -4  12   2 12095.0 888.030   4
  -4  12   2 10529.5 788.677  22
  -4  12   1 11285.2 861.660   4
  -4  12   1 10007.0 801.486  22
  -4  12   0 187.331 187.991   4
  -4  12   0-580.959 277.053  22
  -4  12  -1 2251.06 435.157  22
  -4  12  -2 5183.16 639.517  22
  -4  12  -3 20011.9 1220.38  22
  -4  12  -4 8262.98 811.368  22
  -4  12  -5 9209.73 841.518  22
  -4  12  -6 1634.41 414.430  22
  -4  12  -7 1462.69 381.609  22
  -4  12  -8 8246.93 794.988  22
  -4  12  -9 2376.94 460.730  22
  -4  12 -10 2135.00 412.904   7
  -4  12 -10 1639.65 351.014  22
  -4  12 -11 289.025 196.942   7
  -4  12 -11-156.588 229.148  22
  -4  12 -12 9342.50 724.227   7
  -4  12 -12 9045.33 679.922  22
  -4  12 -13 8475.34 637.588   7
  -4  12 -13 8920.08 600.641  22
  -4  12 -14 140.212 129.023   7
  -4  11   7 516.199 174.996   4
  -4  11   6 37.1591 160.591   4
  -4  11   5-92.2553 232.241   4
  -4  11   4 5766.89 639.235   4
  -4  11   3 2550.71 459.659   4
  -4  11   3 2643.51 418.686  22
  -4  11   2 414.040 257.453   4
  -4  11   2 507.971 264.907  22
  -4  11   1 51.9640 210.842   4
  -4  11   1 1138.02 337.008  22
  -4  11   0 25.6958 205.556   4
  -4  11   0-156.684 225.776  22
  -4  11  -1 11552.2 935.368  22
  -4  11  -2 19151.1 1190.29  22
  -4  11  -3 638.909 264.157  24
  -4  11  -3 241.108 209.116  22
  -4  11  -4 1458.70 363.072  24
  -4  11  -4 1432.30 381.796  22
  -4  11  -5 3866.53 551.661  24
  -4  11  -5 3915.49 671.707   3
  -4  11  -5 3428.44 538.220  22
  -4  11  -6 28105.0 1673.80   3
  -4  11  -6 27561.5 1439.98  22
  -4  11  -7-142.943 267.164   3
  -4  11  -7-28.9578 229.856  22
  -4  11  -8 220.247 250.355  22
  -4  11  -8 510.755 355.112   3
  -4  11  -9 6583.90 705.071  22
  -4  11 -10 6538.46 684.580   7
  -4  11 -10 6238.71 670.936  22
  -4  11 -11 441.096 248.264   7
  -4  11 -11 495.106 255.495  22
  -4  11 -12 2535.27 419.548   7
  -4  11 -12 2045.77 376.203  22
  -4  11 -13 1679.29 323.388   5
  -4  11 -13 1650.83 326.027   7
  -4  11 -13 1407.36 290.190  22
  -4  11 -14 1759.61 306.448   5
  -4  11 -14 1539.31 283.477   7
  -4  10   8 31.9037 114.823   4
  -4  10   7 572.443 218.772   4
  -4  10   6 4214.79 551.715   4
  -4  10   5 2176.37 439.994   4
  -4  10   4-138.316 239.786   4
  -4  10   3 1197.34 359.802   4
  -4  10   3 1537.93 331.218  22
  -4  10   2 166.414 293.927   4
  -4  10   2 300.252 206.999  22
  -4  10   1 4575.26 603.395   4
  -4  10   1 4892.66 616.239  22
  -4  10   0 1785.72 407.471   4
  -4  10   0 2687.55 469.540  22
  -4  10  -1 6174.90 637.150  24
  -4  10  -1 7407.77 743.365  22
  -4  10  -2 3602.74 502.441  24
  -4  10  -2 2677.74 585.140   3
  -4  10  -2 3133.29 521.978  22
  -4  10  -3 7235.31 716.308  24
  -4  10  -3 5967.37 664.602  22
  -4  10  -4 10617.1 841.458  15
  -4  10  -4 10419.9 846.816  24
  -4  10  -4 8892.29 819.204  22
  -4  10  -5 5331.91 615.712  24
  -4  10  -5 5027.91 634.616  22
  -4  10  -5 6702.52 830.270   3
  -4  10  -6 6373.16 688.683  24
  -4  10  -6 8026.44 889.622   3
  -4  10  -6 6894.81 724.646  22
  -4  10  -6 6751.92 730.631  21
  -4  10  -7 3098.39 489.539  24
  -4  10  -7 3963.99 562.615  22
  -4  10  -7 4514.63 679.712   3
  -4  10  -7 2791.64 478.067  21
  -4  10  -8 21227.3 1267.02  22
  -4  10  -9 2195.03 451.147  22
  -4  10 -10 1073.91 346.637   5
  -4  10 -10 461.130 287.983   7
  -4  10 -10 1169.12 340.114  22
  -4  10 -11 5965.66 687.949   5
  -4  10 -11 5645.09 629.336  22
  -4  10 -11 5378.36 644.402   7
  -4  10 -12 2466.16 465.458   5
  -4  10 -12 2601.67 461.775   7
  -4  10 -12 2406.46 404.971  22
  -4  10 -13 5402.32 577.605   7
  -4  10 -13 5236.03 524.829  22
  -4  10 -13 5197.52 589.049   5
  -4  10 -14 226.789 165.513   5
  -4  10 -14 35.3886 154.930   7
  -4  10 -15 762.167 178.815   7
  -4   9   9 145.811 126.264   4
  -4   9   9-106.756 92.5558  12
  -4   9   8 6967.70 612.217   4
  -4   9   8 8028.14 600.886  12
  -4   9   7 799.366 232.471  12
  -4   9   7 658.792 270.901   4
  -4   9   6 1231.97 297.911  12
  -4   9   6 224.223 250.383   4
  -4   9   5 234.161 274.942   4
  -4   9   4 182.451 286.123   4
  -4   9   3 20080.4 1253.27   4
  -4   9   3 18438.0 1096.54  22
  -4   9   2 1046.02 293.048  23
  -4   9   2 1415.18 399.013   4
  -4   9   2 483.989 230.300  22
  -4   9   1 299.025 211.887   4
  -4   9   1 663.327 293.542  23
  -4   9   1 302.025 205.605  22
  -4   9   0 1626.48 362.709   4
  -4   9   0 3190.50 494.318  23
  -4   9   0 2752.27 529.286   3
  -4   9   0 2459.02 428.297  22
  -4   9  -1 14850.8 936.369  24
  -4   9  -1 13744.6 962.581  22
  -4   9  -2 6091.00 630.080  24
  -4   9  -2 6413.63 666.364  22
  -4   9  -2 6036.47 788.538   3
  -4   9  -3 159.184 197.146  24
  -4   9  -3 9.60512 188.329  22
  -4   9  -4 5905.86 606.402  24
  -4   9  -4 6283.75 645.348  22
  -4   9  -4 6002.60 673.285  21
  -4   9  -4 6961.30 816.078   3
  -4   9  -5 1091.68 343.980  24
  -4   9  -5 1096.88 294.177  15
  -4   9  -5 937.512 295.203  21
  -4   9  -5 741.096 344.019   3
  -4   9  -5 777.414 290.835  22
  -4   9  -6 46139.8 1794.27  21
  -4   9  -6 44548.4 1770.01  22
  -4   9  -6 47613.0 1767.16  24
  -4   9  -7 3859.78 562.450  21
  -4   9  -7 4202.03 558.952  24
  -4   9  -7 4385.99 685.002   3
  -4   9  -7 4016.69 551.696  22
  -4   9  -8 11871.6 941.259  22
  -4   9  -8 12285.7 933.800  21
  -4   9  -8 13732.1 1059.09   5
  -4   9  -9 15280.7 1044.72   7
  -4   9  -9 15201.3 1064.99  22
  -4   9  -9 17239.5 1214.06   5
  -4   9 -10 132.751 215.671   5
  -4   9 -10-232.032 226.408   7
  -4   9 -10 468.413 291.477  22
  -4   9 -11 3725.44 610.904   5
  -4   9 -11 4906.78 603.154   7
  -4   9 -11 3715.51 533.612  22
  -4   9 -12 2689.70 508.773   5
  -4   9 -12 2171.70 414.371   7
  -4   9 -12 2624.73 439.076  22
  -4   9 -13 649.918 280.303   5
  -4   9 -13 948.026 310.197   7
  -4   9 -14 397.596 199.200   5
  -4   9 -14 589.478 212.932   7
  -4   9 -15 3459.86 396.653   5
  -4   9 -15 3874.59 384.706   7
  -4   8  10 8840.51 544.632   4
  -4   8  10 9699.72 589.595  12
  -4   8   9 3550.63 453.231   4
  -4   8   9 2799.31 382.981  12
  -4   8   8-369.301 213.255  12
  -4   8   8 425.525 251.471   4
  -4   8   7 969.658 311.161  12
  -4   8   7 1431.76 380.209   4
  -4   8   6 8831.86 842.814   4
  -4   8   6 10232.0 836.985  12
  -4   8   5 13311.9 1039.46   4
  -4   8   4 374.931 238.890   4
  -4   8   4 49.6759 217.568  23
  -4   8   3 131.320 202.051   4
  -4   8   3 235.567 210.452  23
  -4   8   2 3.50733 178.437   4
  -4   8   2 127.385 219.316  23
  -4   8   1 38568.0 1562.51  23
  -4   8   0 9470.02 707.427  24
  -4   8   0 10557.6 801.850  23
  -4   8  -1 3916.23 472.940  24
  -4   8  -1 4385.71 526.357  23
  -4   8  -2 22339.6 1087.12  24
  -4   8  -2 24903.7 1168.47  23
  -4   8  -3 363.736 222.714  24
  -4   8  -3-31.5401 210.792  21
  -4   8  -4 18995.7 1032.23  24
  -4   8  -4 22481.9 1195.71  21
  -4   8  -5 41.1231 200.967  24
  -4   8  -5 225.737 236.931  21
  -4   8  -6 28815.0 1342.76  24
  -4   8  -6 28090.0 1358.47  22
  -4   8  -6 29896.5 1398.44  21
  -4   8  -7 481.640 285.082   3
  -4   8  -7 884.947 330.598   5
  -4   8  -7 405.871 212.338  15
  -4   8  -7 141.322 176.965  22
  -4   8  -7 265.371 192.489  21
  -4   8  -8 21948.3 1220.23   7
  -4   8  -8 21426.9 1231.64  22
  -4   8  -8 23888.5 1263.40  21
  -4   8  -8 22896.9 1390.80   5
  -4   8  -9 18368.0 1144.95   7
  -4   8  -9 16555.1 1106.23  22
  -4   8  -9 16940.0 1074.45  21
  -4   8  -9 17437.8 1249.59   5
  -4   8 -10 9449.23 842.628   7
  -4   8 -10 9317.02 822.436  22
  -4   8 -10 10559.0 982.344   5
  -4   8 -11 9135.08 827.291   7
  -4   8 -11 9258.67 816.619  22
  -4   8 -11 9385.58 938.075   5
  -4   8 -12 632.054 355.523   5
  -4   8 -12 196.200 244.196   7
  -4   8 -12 22.9728 193.825  22
  -4   8 -13 4607.08 618.343   5
  -4   8 -13 5064.83 570.887   7
  -4   8 -14 257.060 193.109   5
  -4   8 -14-450.972 220.409   7
  -4   8 -15 3463.28 408.369   5
  -4   8 -15 3206.50 359.983   7
  -4   7  11 868.189 190.810  12
  -4   7  10 2165.56 347.687   4
  -4   7  10 2450.11 364.743  12
  -4   7   9 9649.49 774.875   4
  -4   7   9 9978.83 788.807  12
  -4   7   8 28933.0 1414.89   4
  -4   7   8 30066.2 1420.94  12
  -4   7   7 790.445 302.803  12
  -4   7   7 792.074 304.213   4
  -4   7   6 1537.82 403.768   4
  -4   7   6 2434.34 447.302  12
  -4   7   5 4711.44 635.502   4
  -4   7   5 3893.49 539.145  23
  -4   7   4 508.488 272.761   4
  -4   7   4 384.871 236.609  23
  -4   7   3 6478.53 668.071   4
  -4   7   3 5730.83 632.677  23
  -4   7   2 6966.83 667.223  23
  -4   7   1 20701.9 1087.77  23
  -4   7   0 8485.06 630.681  24
  -4   7   0 8564.22 689.409  23
  -4   7  -1 10468.9 701.551  24
  -4   7  -1 12707.5 803.526  23
  -4   7  -2 15785.5 869.886  24
  -4   7  -2 16291.9 879.890  23
  -4   7  -2 15614.0 968.472  21
  -4   7  -3 17995.3 937.481  24
  -4   7  -3 20310.4 1093.74  21
  -4   7  -4 57122.8 1701.45  24
  -4   7  -4 56014.7 1799.71  21
  -4   7  -5 1765.02 367.197  24
  -4   7  -5 1122.76 312.316  21
  -4   7  -6 18850.6 1065.15  24
  -4   7  -6 19403.1 1094.27  21
  -4   7  -7 18308.0 1097.50  22
  -4   7  -7 20463.9 1143.53  21
  -4   7  -7 19510.6 1239.73   5
  -4   7  -8 2080.01 485.537   5
  -4   7  -8 1779.37 390.290   7
  -4   7  -8 2282.90 426.034  22
  -4   7  -8 2277.02 426.146  21
  -4   7  -9 2460.96 515.269   5
  -4   7  -9 3161.27 513.838   7
  -4   7  -9 1532.86 386.248  22
  -4   7  -9 2673.44 451.451  21
  -4   7 -10-165.140 332.076   5
  -4   7 -10 285.631 253.085   7
  -4   7 -10-15.1200 203.371  22
  -4   7 -11 4309.58 665.604   5
  -4   7 -11 3592.63 552.188   7
  -4   7 -11 3837.37 557.159  22
  -4   7 -12-112.754 275.773   5
  -4   7 -12 163.999 249.679   7
  -4   7 -13 944.667 353.622   5
  -4   7 -13 1133.79 355.935   7
  -4   7 -14 8448.84 676.911   7
  -4   7 -14 7940.02 736.679   5
  -4   7 -15 966.759 241.210   5
  -4   7 -15 769.198 212.410   7
  -4   6  12 1409.30 234.507  12
  -4   6  11 1070.93 260.603  12
  -4   6  10 18079.1 1009.71   4
  -4   6  10 17681.1 1050.53  12
  -4   6   9 2324.40 440.100  12
  -4   6   9 2168.80 413.708   4
  -4   6   8-81.3374 233.106  12
  -4   6   8 80.7003 194.434   4
  -4   6   7 8531.61 822.360   4
  -4   6   7 9043.82 830.618  12
  -4   6   6 979.391 334.048  12
  -4   6   6 1190.08 338.227   4
  -4   6   6 876.180 281.861  23
  -4   6   5 21124.2 1222.29   4
  -4   6   5 20512.3 1173.28  23
  -4   6   4 392.270 237.585  23
  -4   6   3 2905.47 444.995  23
  -4   6   2 9393.52 725.257  23
  -4   6   1 59060.3 1706.38  23
  -4   6   0 22618.8 938.786  24
  -4   6   0 22786.9 1024.06  23
  -4   6  -1 133.885 171.827  24
  -4   6  -1 3.28351 151.032  23
  -4   6  -1-134.450 247.493  21
  -4   6  -2 25088.3 1030.82  24
  -4   6  -2 28004.2 1057.15  23
  -4   6  -2 26090.6 1184.26  21
  -4   6  -3 1157.57 308.015  21
  -4   6  -3 1047.01 253.224  24
  -4   6  -4 119046. 2370.05  24
  -4   6  -4 120183. 2518.24  21
  -4   6  -5 5721.51 571.596  24
  -4   6  -5 7156.82 651.299  21
  -4   6  -6 1838.59 362.330  21
  -4   6  -7 5276.24 593.350  21
  -4   6  -8 11782.5 884.013   7
  -4   6  -8 14468.5 988.380  22
  -4   6  -8 11825.6 883.862  21
  -4   6  -8 12060.2 1027.13   5
  -4   6  -9 31193.2 1444.49  21
  -4   6  -9 30896.8 1471.73   7
  -4   6  -9 29852.4 1448.15  22
  -4   6  -9 32075.2 1691.12   5
  -4   6 -10 2086.46 487.791   5
  -4   6 -10 2041.09 432.444   7
  -4   6 -10 2389.41 455.260  22
  -4   6 -11 2277.14 498.174   5
  -4   6 -11 2163.42 432.903   7
  -4   6 -11 2886.44 483.495  22
  -4   6 -12 268.579 331.864   5
  -4   6 -12 239.194 228.114   7
  -4   6 -13 4270.85 635.468   5
  -4   6 -13 4853.50 587.054   7
  -4   6 -14 125.789 231.361   5
  -4   6 -14 135.020 206.039   7
  -4   6 -15 1003.37 254.919   5
  -4   6 -15 934.808 223.714   7
  -4   5  12 12254.5 768.581  12
  -4   5  11 1791.46 381.741  12
  -4   5  10 352.413 233.172  12
  -4   5  10 753.165 279.311   4
  -4   5   9 8965.87 809.814   4
  -4   5   9 9861.50 877.936  12
  -4   5   8 22521.0 1305.54   4
  -4   5   8 23492.4 1346.53  12
  -4   5   7 4873.11 620.330   4
  -4   5   7 5753.79 668.590  12
  -4   5   7 4800.65 593.668  23
  -4   5   6 251.785 243.207  12
  -4   5   6 583.892 267.488   4
  -4   5   6 472.002 248.053  23
  -4   5   5 21290.9 1127.38  23
  -4   5   4 3736.41 477.156  23
  -4   5   3 34924.6 1334.77  23
  -4   5   2 86303.4 2006.25  23
   4  -5  -1 8884.74 591.301  16
  -4   5   1 8112.30 598.690  23
  -4   5   0 6471.73 474.764  24
  -4   5   0 6577.38 517.555  23
  -4   5   0 7119.16 606.929  21
  -4   5  -1 14037.8 711.010  24
  -4   5  -1 14357.5 733.230  23
  -4   5  -1 14901.5 843.210  21
  -4   5  -2 46860.2 1336.07  24
  -4   5  -2 45550.5 1230.86  23
  -4   5  -2 45618.1 1461.96  21
  -4   5  -3 4594.92 498.145  21
  -4   5  -3 4845.59 462.913  24
  -4   5  -4 24639.2 1047.60  24
  -4   5  -4 24674.2 1101.20  21
  -4   5  -5 1729.07 355.135  21
  -4   5  -6 37715.4 1453.21  21
  -4   5  -7 11648.3 853.781  21
  -4   5  -8 1835.78 418.778   5
  -4   5  -8 1469.62 330.763   7
  -4   5  -8 1648.25 354.715  22
  -4   5  -8 2445.32 427.551  21
  -4   5  -9 29386.2 1427.61  22
  -4   5  -9 31064.9 1478.61   7
  -4   5  -9 29027.6 1613.55   5
  -4   5  -9 28510.4 1405.36  21
  -4   5 -10 28639.2 1445.37   7
  -4   5 -10 27963.7 1621.69   5
  -4   5 -10 24968.3 1337.98  22
  -4   5 -11 1366.70 465.676   5
  -4   5 -11 820.829 303.167   7
  -4   5 -12 10614.9 882.964   7
  -4   5 -12 11036.7 999.135   5
  -4   5 -13 6229.62 719.064   5
  -4   5 -13 5933.59 619.499   7
  -4   5 -14 8641.82 664.993   7
  -4   5 -14 8470.66 721.346   5
  -4   5 -15 2228.95 330.349   5
  -4   5 -15 3161.04 345.207   7
  -4   4  13 208.440 161.178  12
  -4   4  12 2405.46 405.485  12
  -4   4  11 317.670 250.031  12
  -4   4  10 22895.5 1240.01   4
  -4   4  10 23443.1 1345.24  12
  -4   4   9 478.853 277.680  12
  -4   4   9 926.836 311.701   4
  -4   4   8 6462.72 708.247   4
  -4   4   8 6230.05 704.352  12
  -4   4   8 7130.39 701.978  23
  -4   4   7 26815.5 1369.55   4
  -4   4   7 27270.3 1394.97  12
  -4   4   7 28278.0 1325.01  23
  -4   4   6-25.4473 189.637  23
  -4   4   5 5904.77 586.580  23
   4  -4  -4 2653.50 392.004  16
  -4   4   4 3204.14 427.224  23
   4  -4  -3 5629.11 523.320  16
  -4   4   3 5759.14 534.039  23
   4  -4  -2 6641.50 519.260  16
  -4   4   2 6612.76 545.012  23
   4  -4  -1 7959.79 535.204  16
  -4   4   1 8677.84 578.252  23
  -4   4   1 9287.26 645.267  21
   4  -4   0 33636.6 1012.44  16
  -4   4   0 32970.0 977.082  24
  -4   4   0 31038.0 1029.69  23
  -4   4   0 33341.9 1187.88  21
  -4   4  -1 2153.74 273.042  24
  -4   4  -1 2073.93 266.005  23
  -4   4  -1 1679.98 296.612  21
  -4   4  -2 80030.3 1658.71  24
  -4   4  -2 81859.9 1852.10  21
  -4   4  -3 14653.6 754.824  24
  -4   4  -3 14175.0 797.660  21
  -4   4  -4 170886. 2847.74  21
  -4   4  -5 48.1076 220.887  21
  -4   4  -6 172.183 185.051  21
  -4   4  -7 103065. 2513.37  21
  -4   4  -8 10025.5 812.271   7
  -4   4  -8 9292.54 788.444  22
  -4   4  -8 11071.8 875.088  21
  -4   4  -8 10044.1 922.616   5
  -4   4  -9 23681.1 1458.17   5
  -4   4  -9 22206.3 1258.82   7
  -4   4  -9 25083.5 1329.62  22
  -4   4  -9 24945.1 1344.39  21
  -4   4 -10 35718.8 1623.39   7
  -4   4 -10 32232.0 1717.12   5
  -4   4 -11 10635.1 899.245   7
  -4   4 -11 9626.99 952.787   5
  -4   4 -12 5690.73 709.113   5
  -4   4 -12 6488.69 695.849   7
  -4   4 -13 7937.18 704.061   7
  -4   4 -13 7433.27 748.014   5
  -4   4 -14 1235.32 299.308   5
  -4   4 -14 751.792 222.401   7
  -4   3  14 451.830 173.106  12
  -4   3  13 1867.54 362.022  12
  -4   3  12 27430.8 1370.62  12
  -4   3  11 647.274 332.487  12
  -4   3  10 3680.58 571.454  12
  -4   3  10 3907.90 533.913   4
  -4   3   9 50954.5 1877.55   4
  -4   3   9 48127.9 1941.33  12
  -4   3   9 48990.5 1774.40  23
  -4   3   8 4316.47 572.278  12
  -4   3   8 4415.38 576.826   4
  -4   3   8 4743.84 567.049  23
  -4   3   7 12658.7 861.456  23
  -4   3   6 1868.57 366.169  23
   4  -3  -5 45950.1 1584.03  16
  -4   3   5 48034.3 1534.45  23
   4  -3  -4 24280.4 1078.55  16
  -4   3   4 25050.7 1059.46  23
   4  -3  -3 328357. 3674.67  16
  -4   3   3 326846. 3581.17  23
   4  -3  -2 7432.16 522.729  16
  -4   3   2 6691.82 502.658  23
  -4   3   2 6016.29 510.114  21
   4  -3  -1 1036.80 215.998  16
  -4   3   1 786.020 184.369  23
  -4   3   1 867.189 176.607  26
  -4   3   1 872.138 236.400  21
   4  -3   0 61260.1 1319.03  16
  -4   3   0 61691.3 1337.49  23
  -4   3   0 60197.0 1486.80  21
  -4   3  -1 256.815 161.468  21
  -4   3  -1 418.256 139.728  24
  -4   3  -1 737.980 159.733  23
  -4   3  -2 15717.9 794.961  21
  -4   3  -3 51158.9 1478.73  21
  -4   3  -4 20606.6 996.275  21
  -4   3  -5 31986.4 1301.63  21
  -4   3  -6 36299.8 1459.14  21
  -4   3  -7 31468.9 1418.85  21
  -4   3  -8 1475.39 393.516   5
  -4   3  -8 3027.33 456.292   7
  -4   3  -8 2851.94 454.777  22
  -4   3  -8 2593.27 454.584  21
  -4   3  -9 108926. 3085.84   5
  -4   3  -9 116619. 2854.09   7
  -4   3  -9 114794. 2889.41  21
  -4   3 -10-8.29077 251.449   5
  -4   3 -10 67.9669 236.489   7
  -4   3 -11 18596.8 1169.70   7
  -4   3 -11 15796.2 1179.27   5
  -4   3 -12 1072.43 372.657   5
  -4   3 -12 956.739 340.457   7
  -4   3 -13 3038.59 466.688   5
  -4   3 -13 3829.20 489.361   7
  -4   3 -14 13157.5 742.308   7
  -4   3 -14 11839.7 726.473   5
  -4   2  14 1864.72 341.499  12
  -4   2  13 2880.10 482.253  12
  -4   2  12 10698.8 926.535  12
  -4   2  11 9839.30 892.705  12
  -4   2  10 16869.4 1062.95   4
  -4   2  10 18886.4 1246.25  12
  -4   2   9 1214.68 356.737   1
  -4   2   9 1074.87 311.739   4
  -4   2   9 1426.26 344.571  23
  -4   2   8 1885.94 376.358   1
  -4   2   8 1862.07 364.466  23
   4  -2  -7 59232.9 1938.59  16
   4  -2  -6 16483.0 977.452  16
   4  -2  -5 42603.7 1457.01  16
   4  -2  -4 712.182 254.257  16
   4  -2  -3 167348. 2510.56  16
   4  -2  -2 11959.3 649.706  16
  -4   2   2 11436.9 598.369  26
  -4   2   2 12071.6 649.205  21
  -4   2   1 1474.31 235.165  21
  -4   2   1 1491.44 222.924  26
  -4   2   0 1744.56 234.918  26
  -4   2   0 1922.92 228.810  23
  -4   2   0 2170.93 285.372  21
  -4   2  -1 4822.06 363.232  26
  -4   2  -1 4802.67 424.113  21
  -4   2  -2 89143.7 1858.02  21
  -4   2  -3 38881.8 1297.36  21
  -4   2  -4 27397.3 1156.05  21
  -4   2  -5 221.948 185.815  21
  -4   2  -6 45.8151 209.431  21
  -4   2  -7 86556.5 2383.18  21
  -4   2  -8 37341.1 1736.32   5
  -4   2  -8 36075.6 1558.89   7
  -4   2  -8 36039.1 1622.82  21
  -4   2  -9 1112.74 365.779   5
  -4   2  -9 1448.08 402.207   7
  -4   2  -9 1705.49 409.777  21
  -4   2 -10 6496.17 781.976   5
  -4   2 -10 6153.27 703.894   7
  -4   2 -11 12617.1 962.255   7
  -4   2 -11 10437.3 937.306   5
  -4   2 -12 7518.90 717.154   7
  -4   2 -12 6846.31 708.578   5
  -4   2 -13 4866.29 526.081   5
  -4   2 -13 4233.39 496.667   7
  -4   2 -14 68.3006 125.446   7
  -4   1  15 3262.76 371.325  12
  -4   1  14 944.156 287.780  12
  -4   1  13 15213.4 1052.64  12
  -4   1  12 25271.2 1402.95  12
  -4   1  11 86.7343 257.671   1
  -4   1  11-65.0939 324.108  12
  -4   1  10 6588.55 730.597   1
  -4   1  10 6128.66 631.444  23
  -4   1   9 35072.8 1482.29   4
  -4   1   9 35847.7 1575.82   1
   4  -1  -8 2924.58 473.985  16
   4  -1  -7 18313.5 1045.57  16
   4  -1  -6 12154.5 814.317  16
   4  -1  -5 58910.9 1646.94  16
   4  -1  -4 133311. 2315.73  16
  -4   1   4 133371. 2209.48  26
  -4   1   3 4870.21 415.616  26
  -4   1   3 4648.61 396.128  21
  -4   1   2 393.029 153.358  26
  -4   1   2 267.830 117.717  21
  -4   1   1 10415.6 556.850  26
  -4   1   1 9526.79 539.095  21
  -4   1   0 36010.0 1020.98  26
  -4   1   0 37979.9 1085.77  21
  -4   1  -1 2617.57 288.793  26
  -4   1  -1 2266.64 297.333  21
  -4   1  -2 56033.3 1295.46  26
  -4   1  -2 50787.3 1410.99  21
  -4   1  -3 91.8868 129.875  26
  -4   1  -3 84.6832 183.809  21
  -4   1  -4 20602.8 1020.65  21
  -4   1  -5 33752.8 1371.81  21
  -4   1  -6 259.430 250.309  21
  -4   1  -7 4830.52 616.411  21
  -4   1  -8 2494.83 483.369   5
  -4   1  -8 1705.50 406.666   7
  -4   1  -8 2933.04 513.541  21
  -4   1  -9 37752.5 1663.06   7
  -4   1  -9 37907.1 1730.93  21
  -4   1  -9 40926.9 1829.58   5
  -4   1 -10 9645.13 864.555   7
  -4   1 -10 10257.2 918.762   5
  -4   1 -11 2224.33 431.989   5
  -4   1 -11 3328.49 539.127   7
  -4   1 -12 789.181 292.421   5
  -4   1 -12 1148.50 334.504   7
  -4   1 -13 2499.56 370.399   7
  -4   0  15 611.847 225.197  12
  -4   0  14 9862.15 816.674  12
  -4   0  13 8352.65 824.978  12
  -4   0  12 8610.28 847.748   1
  -4   0  11 49457.4 1939.61   1
  -4   0  10 18513.8 1167.05   1
   4   0  -9 15540.5 1031.08  16
   4   0  -8 3132.12 467.952  16
   4   0  -7 27867.6 1239.19  16
   4   0  -6 14749.2 864.682  16
   4   0  -5 354.300 229.378  16
  -4   0   5 247.251 191.082  26
  -4   0   4 11506.4 653.368  26
  -4   0   3 54894.3 1193.91  21
  -4   0   3 53698.3 1331.13  26
  -4   0   2 52609.6 1282.79  26
  -4   0   2 50871.4 1155.47  21
  -4   0   1 11209.4 591.999  26
  -4   0   1 10567.9 549.674  21
  -4   0   0 12022.1 613.342  26
  -4   0   0 12803.9 636.545  21
  -4   0  -1 40.7194 133.526  26
  -4   0  -1-19.6104 132.448  21
  -4   0  -2 83480.9 1699.07  26
  -4   0  -2 83523.1 1824.85  21
  -4   0  -3 10371.5 628.918  26
  -4   0  -3 10032.6 694.259  21
  -4   0  -4 24.7861 123.901  26
  -4   0  -4-54.5372 171.732  21
  -4   0  -5 422.995 189.816  26
  -4   0  -5 108.571 193.995  21
  -4   0  -6 1289.28 340.251  21
  -4   0  -7 259.416 237.717   7
  -4   0  -7 308.626 250.702  21
  -4   0  -8 407.647 241.191   7
  -4   0  -8 886.267 314.358  21
  -4   0  -9 240.174 226.703   7
  -4   0 -10 1119.27 370.068   7
  -4   0 -11 13216.6 945.413   7
  -4   0 -12 10228.0 758.838   7
  -4   0 -13 527.247 192.487   7
  -4  -1  16 718.299 205.045  12
  -4  -1  15 3520.60 466.990  12
  -4  -1  14 2455.20 438.626  12
  -4  -1  13 42124.8 1774.20   1
  -4  -1  12 4605.45 645.064   1
  -4  -1  11 12565.6 1002.72   1
  -4  -1  10 18419.6 1156.89   1
   4   1  -9 8951.35 776.892  16
   4   1  -8 24584.2 1192.68  16
   4   1  -7 28459.0 1213.43  16
   4   1  -6 730.464 249.255  16
  -4  -1   6 1175.57 288.133  26
  -4  -1   5 43035.0 1305.51  26
  -4  -1   4 46883.6 1299.70  26
  -4  -1   3 223.436 156.504  26
  -4  -1   2 19004.9 797.727  26
  -4  -1   2 17553.2 645.274  21
  -4  -1   1 22708.5 865.027  26
  -4  -1   1 20418.7 759.470  21
  -4  -1   0 20852.1 819.684  21
  -4  -1   0 20477.0 831.565  26
  -4  -1  -1 36064.7 1132.49  26
  -4  -1  -1 34490.1 1124.06  21
  -4  -1  -2 4543.08 458.522  21
  -4  -1  -2 5137.53 456.026  26
  -4  -1  -3 14.5905 124.307  26
  -4  -1  -3 16.1760 158.075  21
  -4  -1  -4 3639.07 439.063  26
  -4  -1  -4 3760.72 491.526  21
  -4  -1  -5 62992.9 1823.39  26
  -4  -1  -5 64143.3 2001.43  21
  -4  -1  -6 4439.43 521.061  26
  -4  -1  -6 5108.60 622.648  21
  -4  -1  -7 7811.76 749.236   7
  -4  -1  -7 7729.29 792.614  21
  -4  -1  -8 5919.57 691.129   7
  -4  -1  -8 5948.23 711.156  21
  -4  -1  -9 34159.5 1583.20   7
  -4  -1 -10 8386.92 775.558   7
  -4  -1 -11 2192.13 401.452   7
  -4  -1 -12 1067.04 279.870   7
  -4  -2  16 14873.1 800.133  12
   4   2 -15 7902.73 627.020   9
  -4  -2  15 8680.58 729.889  12
   4   2 -14 501.268 255.550   9
  -4  -2  14 110.812 226.288  12
  -4  -2  14 671.506 365.827   1
   4   2 -13 1057.66 295.266   9
  -4  -2  13 1275.19 381.422   1
  -4  -2  12 20015.3 1253.34   1
  -4  -2  11 1585.76 378.310   1
   4   2 -10 273.043 241.156  16
  -4  -2  10 9.75021 176.285  11
   4   2  -9 19745.4 1102.52  16
   4   2  -8-23.8816 189.221  16
   4   2  -7 10628.2 733.518  16
  -4  -2   6 2897.38 391.516  26
  -4  -2   5 4615.66 455.769  26
  -4  -2   4 14225.0 733.894  26
  -4  -2   3 2059.56 296.403  26
  -4  -2   2 238357. 2886.10  26
  -4  -2   1 53510.7 1387.25  26
  -4  -2   1 50775.8 1204.85  21
  -4  -2   0 5035.59 454.527  26
  -4  -2   0 4930.63 420.098  21
  -4  -2  -1 23685.9 986.921  26
  -4  -2  -1 24441.5 982.357  21
  -4  -2  -2 56537.3 1602.70  21
  -4  -2  -2 52410.4 1519.30  26
  -4  -2  -3 23357.1 1069.15  26
  -4  -2  -3 21932.3 1073.34  21
  -4  -2  -4 24007.3 1209.12  21
  -4  -2  -4 25934.5 1175.06  26
  -4  -2  -5 1262.03 323.269  26
  -4  -2  -5 2151.99 437.792  21
  -4  -2  -6 2691.80 432.244  26
  -4  -2  -6 2200.81 409.091   7
  -4  -2  -6 3592.81 556.974  21
  -4  -2  -7 17875.2 1207.32  21
  -4  -2  -7 19383.8 1188.51   7
  -4  -2  -7 16115.3 1049.83  26
  -4  -2  -8 857.330 342.609   7
  -4  -2  -9 5833.93 689.687   7
  -4  -2 -10 11257.0 869.688   7
  -4  -2 -11 1879.13 369.228   7
  -4  -2 -12 12005.1 671.005  11
   4   3 -16-355.580 178.230   9
  -4  -3  16 178.122 178.514  12
   4   3 -15 1372.03 315.556   9
  -4  -3  15 953.274 312.749  12
  -4  -3  15 1774.31 395.690   1
   4   3 -14 11733.7 868.346   9
  -4  -3  14 11405.7 939.210   1
  -4  -3  13 2287.86 481.195   1
  -4  -3  12 10392.8 914.109   1
  -4  -3  11-285.598 233.348   1
   4   3 -11 162.488 168.205  16
  -4  -3  11 68.1786 186.624  11
  -4  -3  10 11691.3 905.367   1
   4   3 -10 10951.0 836.006  16
  -4  -3  10 9014.83 805.687  11
   4   3  -9 19195.8 1066.23  16
   4   3  -8 27996.8 1217.60  16
  -4  -3   7 11782.3 749.168  26
  -4  -3   6 4862.02 481.637  26
  -4  -3   5 14464.5 769.618  26
  -4  -3   4 192710. 2730.02  26
  -4  -3   3 584.897 215.437  26
  -4  -3   2 4553.90 438.866  26
  -4  -3   1 29765.8 1095.96  26
  -4  -3   1 27301.8 911.127  21
  -4  -3   0 172153. 2687.74  26
  -4  -3   0 170888. 2467.53  21
  -4  -3  -1 53403.7 1554.19  26
  -4  -3  -1 52745.0 1494.29  21
  -4  -3  -2 1848.19 351.843  26
  -4  -3  -2 1751.40 323.046  21
  -4  -3  -3 4020.07 499.991  26
  -4  -3  -4 1495.40 344.034  26
  -4  -3  -5 32113.3 1441.28   7
  -4  -3  -5 31590.5 1505.34  21
  -4  -3  -5 31744.0 1434.42  26
  -4  -3  -6 24785.2 1314.07   7
  -4  -3  -6 25446.1 1336.75  26
  -4  -3  -6 24942.2 1394.72  21
  -4  -3  -7 14412.6 1039.91   7
  -4  -3  -7 16238.9 1076.25   9
  -4  -3  -8 12362.6 958.402   7
  -4  -3  -8 12983.6 956.944   9
  -4  -3  -9 6357.61 689.365   7
  -4  -3  -9 7006.75 669.322   9
  -4  -3 -10 15048.4 942.170   7
  -4  -3 -10 14178.4 861.361   9
  -4  -3 -11-75.2577 99.9652   9
   4   4 -16 12479.3 771.501   9
  -4  -4  16 10888.6 745.478  12
   4   4 -15 17413.1 1021.70   9
  -4  -4  15 17624.8 1090.55   1
  -4  -4  14 7228.19 764.367   1
  -4  -4  13 1507.71 407.550   1
  -4  -4  12 321.664 257.324   1
  -4  -4  11 31080.8 1517.94   1
  -4  -4  11 29145.8 1483.87  11
   4   4 -10 539.804 221.515  16
  -4  -4  10 724.793 265.172   1
  -4  -4  10 635.274 262.136  11
   4   4  -9 30678.3 1318.73  16
  -4  -4   8 10826.6 742.033  26
  -4  -4   7 34827.3 1265.58  26
  -4  -4   6 86500.5 1940.74  26
  -4  -4   5 11519.9 710.054  26
  -4  -4   4 28.8484 125.833  13
  -4  -4   4 37.3033 159.002  26
  -4  -4   3 3115.64 311.871  13
  -4  -4   3 3285.46 391.884  26
  -4  -4   2 39279.9 1285.09  26
  -4  -4   1 40475.5 1351.10  26
  -4  -4   0 91.4753 187.527  26
  -4  -4   0 282.277 145.793  21
  -4  -4  -1 25582.6 1144.85  26
  -4  -4  -2 16039.5 961.347  26
  -4  -4  -3 102295. 2488.80  26
  -4  -4  -4 251.353 178.955   7
  -4  -4  -4 259.828 188.874  26
  -4  -4  -5-328.086 221.660   7
  -4  -4  -5-144.982 204.390  26
  -4  -4  -6 688.105 335.726   9
  -4  -4  -6 53.1653 235.454   7
  -4  -4  -6 904.499 307.711  26
  -4  -4  -6 553.783 273.937  21
  -4  -4  -7 7119.77 763.031   7
  -4  -4  -7 8063.07 775.905   9
  -4  -4  -8 14184.8 1013.13   7
  -4  -4  -8 15904.4 1053.50   9
  -4  -4  -9 1226.65 297.070   9
  -4  -4 -10 3546.67 418.158   9
  -4  -4 -11-24.1525 120.191  11
   4   5 -17 1754.96 271.404   9
  -4  -5  17 1820.16 277.783  12
   4   5 -16 42.3893 149.911   9
  -4  -5  16-78.4093 224.222   1
  -4  -5  16 310.782 199.520  12
  -4  -5  15 2555.81 476.940   1
  -4  -5  14 851.800 336.013   1
   4   5 -13 13907.0 934.473  10
  -4  -5  13 14819.3 1087.97   1
  -4  -5  12 13632.4 1032.17   1
  -4  -5  12 14685.5 1077.22  11
  -4  -5  11 3150.21 522.039   1
  -4  -5  11 3254.48 522.160  11
  -4  -5  10 10051.4 846.405   1
   4   5 -10 8809.08 719.520  16
  -4  -5  10 9880.34 832.244  11
   4   5  -9 26069.6 1194.60  16
  -4  -5   8 56401.0 1668.01  26
  -4  -5   7 210.058 172.812  26
  -4  -5   6 40326.2 1317.10  13
  -4  -5   6 41496.5 1367.68  26
  -4  -5   5 17547.3 827.170  13
  -4  -5   5 17612.3 894.063  26
  -4  -5   4 76067.9 1626.72  13
  -4  -5   4 75509.9 1819.39  26
  -4  -5   3 970.295 257.246  26
  -4  -5   2 19452.5 961.365  26
  -4  -5   1 23375.1 1083.50  26
  -4  -5   0 30377.9 1273.23  26
  -4  -5  -1 62129.8 1884.07  26
  -4  -5  -2 607.840 260.365  26
  -4  -5  -3 20709.3 1152.01   7
  -4  -5  -3 21350.2 1214.09  26
  -4  -5  -4 3170.74 521.062   9
  -4  -5  -4 3241.68 522.689   7
  -4  -5  -4 3062.34 482.949  26
  -4  -5  -5 523.924 310.477   9
  -4  -5  -5 255.911 219.046   7
  -4  -5  -5-219.325 197.367  26
  -4  -5  -6 29365.6 1468.22   7
  -4  -5  -6 32642.9 1559.28   9
  -4  -5  -7 4459.45 602.344   9
  -4  -5  -8 10681.4 831.277   9
  -4  -5  -9 159.712 138.793   9
  -4  -5 -10 4017.45 425.846  11
  -4  -5 -10 4468.48 404.508   9
   4   6 -17 3097.99 370.362   9
  -4  -6  17 1982.94 275.117  12
  -4  -6  17 3013.65 387.237   1
  -4  -6  16 10386.8 774.108   1
  -4  -6  15 39787.1 1637.58   1
  -4  -6  14 442.894 279.858   1
   4   6 -14 214.711 189.090  10
   4   6 -13 10200.6 815.251  10
  -4  -6  13 8840.32 839.951   1
  -4  -6  12 20798.0 1275.08   1
  -4  -6  12 20688.9 1262.88  11
  -4  -6  11 26395.7 1411.79   1
  -4  -6  11 26757.8 1406.38  11
  -4  -6  10 2312.94 424.695  11
  -4  -6  10 3043.48 489.764   1
  -4  -6   8 47759.8 1604.97  13
  -4  -6   8 47016.8 1536.78  26
  -4  -6   7 354.027 201.015  26
  -4  -6   7 41.2783 164.677  13
  -4  -6   6 117982. 2301.13  13
  -4  -6   6 121940. 2388.05  26
  -4  -6   5 5381.53 487.777  13
  -4  -6   5 5538.27 529.028  26
  -4  -6   4 585.772 174.892  13
  -4  -6   4 624.957 226.472  26
  -4  -6   3 5935.70 554.502  26
  -4  -6   2 31481.0 1283.03  26
  -4  -6   1 57860.7 1790.87  26
  -4  -6   0 2214.25 401.472  26
  -4  -6  -1 39865.3 1592.14  26
  -4  -6  -2 730.252 306.748   9
  -4  -6  -2 1325.16 359.258  26
  -4  -6  -3 63439.7 2165.91   9
  -4  -6  -3 62725.1 2135.76  26
  -4  -6  -4 8232.83 809.817  26
  -4  -6  -4 8741.94 848.690   9
  -4  -6  -5 1966.98 459.685   9
  -4  -6  -6 10553.0 890.168   9
  -4  -6  -7 1205.10 335.442   9
  -4  -6  -8 5143.33 581.786  11
  -4  -6  -8 5590.36 566.909   9
  -4  -6  -9-56.8219 112.227   9
  -4  -6  -9 21.6898 142.067  11
   4   7 -17 1449.97 275.879   9
  -4  -7  17 1361.62 275.773   1
  -4  -7  16 944.866 289.441   1
  -4  -7  15 14280.4 986.279   1
  -4  -7  14 6320.83 704.153   1
   4   7 -14 6939.68 652.448  10
  -4  -7  13 39218.3 1734.44   1
  -4  -7  12 827.568 329.656   1
  -4  -7  12 398.174 272.516  11
  -4  -7  11 12338.7 982.431   1
  -4  -7  11 11954.1 947.167  11
  -4  -7  10 10398.0 873.464   1
  -4  -7  10 10257.6 848.994  11
  -4  -7   9 11170.7 840.980  13
  -4  -7   9 11006.9 776.499  26
  -4  -7   8 67270.0 1860.99  26
  -4  -7   8 67904.2 1946.82  13
  -4  -7   7 576.451 212.049  26
  -4  -7   7 547.190 222.724  13
  -4  -7   6 5606.17 537.034  13
  -4  -7   6 4119.90 476.290  26
  -4  -7   5 5532.07 507.680  13
  -4  -7   5 4371.74 480.049  26
  -4  -7   4 34562.3 1331.49  26
  -4  -7   3 20566.2 1049.45  26
  -4  -7   2 16154.4 968.772  26
  -4  -7   1 53029.7 1784.90  26
  -4  -7   0 9685.81 809.430  26
  -4  -7  -1 20065.3 1204.42   9
  -4  -7  -1 21383.8 1215.66  26
  -4  -7  -1 18521.3 1172.96  11
  -4  -7  -2 18.4961 254.232   9
  -4  -7  -2 330.675 170.562  26
  -4  -7  -2 65.3043 259.865  11
  -4  -7  -3 3532.36 555.875   9
  -4  -7  -3 3582.22 544.322  26
  -4  -7  -4 3470.17 546.291   9
  -4  -7  -5 11715.0 946.915   9
  -4  -7  -6 28093.2 1404.39  11
  -4  -7  -6 27952.0 1361.13   9
  -4  -7  -7 737.953 277.394   9
  -4  -7  -7 571.044 261.045  11
  -4  -7  -8 6397.84 560.238  11
  -4  -7  -8 6585.44 541.744   9
  -4  -8  17 5043.32 476.086   1
  -4  -8  16 581.479 245.962   1
   4   8 -15 17261.6 945.841  10
  -4  -8  15 17852.1 1095.38   1
  -4  -8  14 5454.00 663.897   1
   4   8 -14 4985.54 553.289  10
  -4  -8  13 12090.6 971.160   1
  -4  -8  12 3274.04 509.372  11
  -4  -8  12 2864.48 495.875   1
  -4  -8  11 4808.50 642.342   1
  -4  -8  11 3988.28 546.878  11
   4   8 -10 18036.4 1140.22   2
  -4  -8  10 17408.3 1152.08   1
  -4  -8  10 16791.7 1076.61  11
  -4  -8   9 589.891 247.392   1
   4   8  -9 180.992 183.678   2
  -4  -8   9 585.821 277.704  13
  -4  -8   9 793.219 256.511  11
   4   8  -8 7823.03 728.912   2
  -4  -8   8 7544.09 688.558  13
  -4  -8   8 8472.16 773.959   1
  -4  -8   8 7375.27 632.727  26
  -4  -8   7 97.9945 178.519  13
  -4  -8   7 54.9260 142.861  26
  -4  -8   6 46990.6 1552.75  13
  -4  -8   6 46311.5 1575.17  26
  -4  -8   5 2032.21 327.067  13
  -4  -8   5 1974.77 336.543  26
  -4  -8   4 3355.51 445.973  26
  -4  -8   3 9109.73 729.572  26
  -4  -8   2 17655.1 1056.36  26
  -4  -8   1 85388.2 2419.66  11
  -4  -8   1 90090.7 2527.62   9
  -4  -8   0 3674.07 556.066   9
  -4  -8   0 3603.58 526.016  26
  -4  -8   0 2979.47 495.873  11
  -4  -8  -1 66363.4 2236.61  11
  -4  -8  -1 69269.0 2259.89  26
  -4  -8  -1 69015.9 2288.84   9
  -4  -8  -2 6000.61 728.266   9
  -4  -8  -2 5843.63 701.517  11
  -4  -8  -3 33460.6 1592.63  11
  -4  -8  -3 35607.5 1643.83   9
  -4  -8  -4 32935.4 1555.70  11
  -4  -8  -4 31337.9 1520.55   9
  -4  -8  -5 2304.63 447.682   9
  -4  -8  -5 1708.68 397.606  11
  -4  -8  -6 4472.94 530.332   9
  -4  -8  -6 4554.07 546.945  11
  -4  -8  -7 765.072 228.164   9
  -4  -8  -7 445.854 185.246  11
  -4  -9  17 952.672 233.924   1
  -4  -9  16 690.314 234.466   1
  -4  -9  15 196.450 242.866   1
   4   9 -15 283.532 191.288  10
  -4  -9  14 5780.36 667.206   1
  -4  -9  13 28120.4 1459.00   1
  -4  -9  12 2052.66 392.725  11
  -4  -9  12 883.173 323.630   1
  -4  -9  11 9525.57 881.706   1
  -4  -9  11 7804.08 736.951  11
   4   9 -10 5486.63 644.535   2
  -4  -9  10 4756.31 592.864  13
  -4  -9  10 5189.39 609.566  11
  -4  -9  10 4364.28 618.342   1
  -4  -9   9 80.8663 172.433  13
   4   9  -9 495.407 244.693   2
  -4  -9   9 326.002 241.806   1
  -4  -9   9 70.1733 156.593  11
   4   9  -8 61083.1 2054.88   2
  -4  -9   8 62139.2 1963.60  13
  -4  -9   8 63133.7 2136.29   1
   4   9  -7 9972.34 845.734   2
  -4  -9   7 10797.6 811.252  13
  -4  -9   6 4725.71 519.422  26
  -4  -9   6 3463.44 449.833  13
   4   9  -6 3575.62 510.978   2
   4   9  -5 30976.2 1458.42   2
  -4  -9   5 31664.6 1352.28  26
  -4  -9   4 30807.3 1445.85  17
   4   9  -4 31289.5 1470.25   2
  -4  -9   4 33591.3 1466.44  11
  -4  -9   4 32961.6 1397.87  26
  -4  -9   3 41035.1 1663.71  17
   4   9  -3 42650.9 1719.23   2
  -4  -9   3 42253.3 1628.47  26
  -4  -9   3 43197.0 1688.53  11
  -4  -9   2 1785.74 368.063  26
  -4  -9   2 2041.21 405.667  17
  -4  -9   2 1089.69 310.532  11
  -4  -9   1 6177.56 664.439  17
  -4  -9   1 6217.55 676.613  11
  -4  -9   1 6186.64 684.709  26
  -4  -9   0 29842.7 1427.06  17
  -4  -9   0 31198.0 1518.26  11
  -4  -9   0 33137.4 1555.72  26
  -4  -9   0 29633.8 1531.50   9
  -4  -9  -1 7831.35 733.636  17
  -4  -9  -1 6912.27 743.137  11
  -4  -9  -1 6896.48 765.889   9
  -4  -9  -2-59.0283 240.189   9
  -4  -9  -2 184.977 207.223  11
  -4  -9  -3 2268.85 475.044   9
  -4  -9  -3 2545.36 454.118  11
  -4  -9  -4 1086.35 343.640   9
  -4  -9  -4 1456.88 356.746  11
  -4  -9  -5 4425.48 526.409   9
  -4  -9  -5 4232.02 503.442  11
  -4  -9  -6 1074.63 257.633  11
  -4 -10  17 5814.52 469.726   1
  -4 -10  16 281.684 197.447   1
  -4 -10  15 15667.8 973.766   1
  -4 -10  14-36.4144 271.124   1
  -4 -10  13 12751.1 982.891   1
  -4 -10  12-101.251 247.139   1
  -4 -10  11 179.351 248.804   1
   4  10 -10 12973.3 978.558   2
  -4 -10  10 12690.7 1012.27   1
  -4 -10   9 34.2158 193.782  13
   4  10  -9-317.806 234.016   2
  -4 -10   9 82.2423 222.664   1
  -4 -10   8 104.353 175.886  13
   4  10  -8 294.907 244.536   2
  -4 -10   8 626.107 286.307   1
   4  10  -7 6685.06 715.761   2
  -4 -10   7 6046.35 618.716  13
   4  10  -6 23.6077 152.420   2
   4  10  -5 20307.3 1231.89   2
  -4 -10   4-277.404 232.624  17
  -4 -10   4-185.930 173.917  26
   4  10  -4-289.554 225.167   2
  -4 -10   3 8432.60 796.874  17
   4  10  -3 8259.38 799.364   2
  -4 -10   3 8331.52 745.657  26
  -4 -10   3 7512.87 716.407  11
  -4 -10   2 6774.22 722.090  17
  -4 -10   2 5058.37 608.841  26
  -4 -10   2 6007.03 657.060  11
  -4 -10   1 48555.7 1858.97  17
  -4 -10   1 47705.3 1823.58  11
  -4 -10   0-352.842 217.472  17
  -4 -10   0 396.258 278.350  11
  -4 -10  -1 42741.7 1651.72  17
  -4 -10  -1 43810.0 1728.66  11
  -4 -10  -2 13705.3 945.977  11
  -4 -10  -3 6319.51 626.367  11
  -4 -10  -4 303.394 205.650  11
  -4 -10  -5 1211.01 241.864  11
  -4 -11  16 5851.36 519.133   1
  -4 -11  15 7255.68 650.303   1
  -4 -11  14 3743.98 545.882   1
  -4 -11  13 9989.66 858.688   1
  -4 -11  12 345.035 256.533   1
   4  11 -12 25.3313 193.709  14
  -4 -11  11 170.688 231.095   1
  -4 -11  10 2595.22 495.213   1
   4  11 -10 3311.26 522.208   2
  -4 -11   9 249.147 258.241   1
   4  11  -9-635.487 279.908   2
   4  11  -8 11826.6 947.070   2
  -4 -11   8 11697.5 974.001   1
   4  11  -7 2042.91 432.026   2
   4  11  -6 14914.6 1066.14   2
   4  11  -5 40147.8 1750.20   2
  -4 -11   4 7512.86 764.446  17
   4  11  -4 7323.37 772.266   2
  -4 -11   3-293.800 222.969  17
   4  11  -3-264.478 243.316   2
  -4 -11   2 52.3857 226.329  17
   4  11  -2-144.213 210.302   2
  -4 -11   1 40782.8 1690.85  17
  -4 -11   0 9972.87 813.835  17
  -4 -11  -1 21159.9 1107.92  17
  -4 -11  -1 20386.8 1070.40  11
  -4 -11  -2-349.126 186.975  17
  -4 -11  -2-297.674 197.080  11
   4  11   3 874.094 228.782   2
  -4 -11  -3 943.371 248.376  11
   4  11   4 7237.09 485.251   2
  -4 -12  16 924.908 220.611   1
  -4 -12  15 11454.1 762.102   1
  -4 -12  14-219.183 238.295   1
   4  12 -13 984.017 321.736  14
  -4 -12  13 533.805 279.422   1
  -4 -12  12 5332.18 643.400   1
   4  12 -12 5045.18 691.296  14
   4  12 -11 2148.63 437.705   2
  -4 -12  11 1717.83 407.977   1
  -4 -12  10 2098.07 451.634   1
   4  12 -10 1359.75 365.498   2
  -4 -12   9 2097.02 460.427   1
   4  12  -9 1603.26 384.880   2
   4  12  -8 62279.0 2118.70   2
  -4 -12   8 58211.6 2117.60   1
   4  12  -7 3233.98 536.230   2
   4  12  -6 1742.54 426.255   2
   4  12  -5 81.7286 210.234   2
   4  12  -4 3205.42 531.238   2
  -4 -12   3 22926.8 1284.95  17
   4  12  -3 23490.4 1310.75   2
  -4 -12   2 166.942 179.813  17
   4  12  -2-131.846 228.512   2
  -4 -12   1 6424.62 657.035  17
   4  12  -1 6440.67 686.642   2
  -4 -12   0 432.342 233.302  17
   4  12   0 287.232 223.318   2
  -4 -12  -1 473.383 210.607  17
   4  12   1 209.222 199.885   2
   4  12   2 15332.2 814.219   2
  -4 -13  15 6505.78 537.013   1
  -4 -13  14 9871.45 721.731   1
   4  13 -14 10742.7 772.540  14
   4  13 -13 616.786 273.157  14
  -4 -13  13 614.588 283.826   1
  -4 -13  12-250.134 273.929   1
   4  13 -12-551.451 296.409  14
  -4 -13  11 1396.49 377.678   1
   4  13 -11 1558.80 470.131  14
   4  13 -10 20984.0 1162.20   2
  -4 -13  10 21190.2 1241.20   1
   4  13  -9 15949.5 1036.68   2
  -4 -13   9 16744.4 1124.66   1
   4  13  -8 11214.5 890.629   2
  -4 -13   8 11949.1 965.288   1
   4  13  -7 763.686 325.472   2
   4  13  -6 4077.47 582.997   2
   4  13  -5 18050.9 1144.53   2
   4  13  -4-268.048 247.764   2
   4  13  -3 10751.6 865.926   2
   4  13  -2 3987.11 537.518   2
   4  13  -1 14605.7 903.005   2
   4  13   0 8523.92 650.313   2
   4  13   1 1847.94 294.947   2
  -4 -14  15 8726.76 546.950   1
   4  14 -14 2176.95 347.150  14
  -4 -14  14 1582.65 289.790   1
   4  14 -13 217.835 273.436  14
  -4 -14  13 54.0305 177.002   1
  -4 -14  12 9770.09 760.709   1
   4  14 -12 11385.7 908.890  14
   4  14 -11 252.471 306.127  14
  -4 -14  11 781.079 303.301   1
  -4 -14  10 1960.32 414.429   1
   4  14 -10 2576.32 506.555  14
   4  14 -10 2417.75 382.463   2
   4  14  -9 1271.44 292.878   2
  -4 -14   9 997.669 327.327   1
   4  14  -8 14362.2 939.612   2
  -4 -14   8 14320.5 996.423   1
   4  14  -7 5892.61 622.338   2
  -4 -14   7 6486.12 679.658   1
   4  14  -6 36.6334 193.513   2
   4  14  -5 1214.03 338.196   2
   4  14  -4-37.9494 195.161   2
   4  14  -3 8334.82 676.398   2
   4  14  -2 3137.58 405.765   2
   4  14  -1 4506.32 438.944   2
   4  14   0 197.001 112.540   2
   4  15 -13 1317.32 292.033  14
  -4 -15  13 1173.50 243.558   1
  -4 -15  12 309.067 183.842   1
   4  15 -12 301.629 196.132  14
   4  15 -11 1293.78 377.785  14
  -4 -15  11 816.456 260.924   1
   4  15 -10 6981.11 561.659   2
   4  15 -10 6904.54 707.187  14
  -4 -15  10 7317.27 636.009   1
   4  15  -9 5706.15 524.347   2
   4  15  -9 6250.90 680.002  14
  -4 -15   9 5766.34 581.429   1
  -4 -15   8 3302.73 462.796   1
   4  15  -8 3493.25 511.189  14
   4  15  -8 3772.61 446.793   2
   4  15  -7 4142.39 523.487  14
   4  15  -7 3057.32 409.843   2
  -4 -15   7 2954.25 431.599   1
   4  15  -6 386.616 204.917  14
   4  15  -6 109.923 147.828   2
  -4 -15   6 57.8595 160.016   1
   4  15  -5 8574.45 637.689   2
   4  15  -4 325.945 160.108   2
   4  15  -3 9438.23 605.608   2
   4  15  -2 1349.96 216.056   2
   4  16 -12 14085.0 781.489  14
  -4 -16  11 2876.34 337.146   1
   4  16 -11 2722.09 382.747  14
   4  16 -10 1780.72 311.707  14
  -4 -16  10 2105.44 308.346   1
   4  16  -9 1112.32 298.126  14
   4  16  -9 835.809 176.444   2
  -4 -16   9 650.538 200.934   1
   4  16  -8 647.692 214.498  14
  -4 -16   8 513.839 201.960   1
   4  16  -8 285.497 126.365   2
   4  16  -7 15693.1 731.062   2
   4  16  -7 13810.3 750.213  14
  -4 -16   6 3002.55 345.489   1
   4  16  -6 2611.02 304.979   2
  -4 -16   5 3634.47 351.194   1
  -5  15  -2 263.331 138.852  22
  -5  15  -3 483.878 178.548  22
  -5  15  -4 1500.55 286.545  22
  -5  15  -5 86.1396 165.386  22
  -5  15  -6 5470.60 486.402  22
  -5  15  -7 5702.18 487.682  22
  -5  15  -8 9275.76 596.081  22
  -5  15  -9 296.454 146.838  22
  -5  14   0 611.061 175.308  22
  -5  14  -1-155.473 166.511  22
  -5  14  -2-154.371 182.090  22
  -5  14  -3 10493.6 737.390  22
  -5  14  -4 5685.15 566.407  22
  -5  14  -5 3142.47 445.370  22
  -5  14  -6 2840.15 435.384  22
  -5  14  -7 4416.59 510.646  22
  -5  14  -8 17216.4 915.674  22
  -5  14  -9 715.608 227.441  22
  -5  14 -10 312.448 150.351  22
  -5  14 -11 910.607 199.506  22
  -5  13   3 3336.01 336.645  15
  -5  13   2 1821.36 277.752  15
  -5  13   2 1605.10 251.732   4
  -5  13   1 2409.42 348.436  15
  -5  13   1 2221.98 319.832  22
  -5  13   0-170.448 163.631  15
  -5  13   0 299.886 192.737  22
  -5  13  -1 7710.39 629.754  15
  -5  13  -1 8333.68 687.834  22
  -5  13  -2 48.5477 147.660  15
  -5  13  -2-59.1031 220.945  22
  -5  13  -3-11.3864 122.068  15
  -5  13  -3-260.645 232.947  22
  -5  13  -4 89.2696 222.720  22
  -5  13  -5 519.614 286.429  22
  -5  13  -6 20156.1 1128.02  22
  -5  13  -7 203.914 280.059  22
  -5  13  -8 707.570 304.760  22
  -5  13  -9-39.9875 236.138  22
  -5  13 -10 1033.15 272.885  22
  -5  13 -11 213.123 110.054   7
  -5  13 -11 563.854 200.762  22
  -5  13 -12 3401.79 333.534  22
  -5  12   4 1425.89 258.982   4
  -5  12   3 9056.83 667.443   4
  -5  12   2 996.089 271.786   4
  -5  12   1 12299.9 809.631   4
  -5  12   1 13334.3 829.409  22
  -5  12   0 1851.25 367.845  22
  -5  12  -1 1120.41 310.585  15
  -5  12  -1 1408.47 360.381  22
  -5  12  -2-471.077 226.645  15
  -5  12  -2-81.4262 206.258  22
  -5  12  -3 3997.64 507.703  15
  -5  12  -3 3859.24 565.220  22
  -5  12  -4 1904.55 363.471  15
  -5  12  -4 2321.59 456.379  22
  -5  12  -5 1342.52 385.421  22
  -5  12  -6 8613.55 804.706  22
  -5  12  -7 1629.55 417.858  22
  -5  12  -8 10934.7 865.098  22
  -5  12  -9 44.4001 234.184  22
  -5  12 -10 291.347 157.113   7
  -5  12 -10 65.7491 204.594  22
  -5  12 -11 15626.9 811.243   7
  -5  12 -11 19424.4 954.187  22
  -5  12 -12 1434.70 246.425   7
  -5  12 -12 1477.35 261.414  22
  -5  11   6 1120.31 232.416   4
  -5  11   5 1565.13 298.040   4
  -5  11   4 8207.86 682.616   4
  -5  11   3 7818.33 703.067   4
  -5  11   2 146.075 198.625   4
  -5  11   1 8281.15 732.222   4
  -5  11   1 7137.17 673.589  22
  -5  11   0 3927.41 523.323  22
  -5  11  -1 11679.8 898.132  22
  -5  11  -2-525.021 260.598  15
  -5  11  -2-58.6581 243.748  22
  -5  11  -3 1259.55 344.734  15
  -5  11  -3 1088.38 337.607  22
  -5  11  -4 4815.10 581.168  15
  -5  11  -4 4502.48 681.169   3
  -5  11  -4 5482.22 656.341  22
  -5  11  -5 150.871 160.179  15
  -5  11  -5 72.1643 252.812   3
  -5  11  -5 32.6148 201.199  22
  -5  11  -6 643.498 238.449  15
  -5  11  -6 595.883 327.460   3
  -5  11  -6 878.095 277.495  22
  -5  11  -7 1645.06 414.242  22
  -5  11  -7 1575.22 417.389   3
  -5  11  -8 3259.38 546.139   3
  -5  11  -8 2764.90 501.410  22
  -5  11  -9 1033.34 275.787   7
  -5  11  -9 1313.31 372.210  22
  -5  11 -10 1290.37 297.864   7
  -5  11 -10 1372.22 333.650  22
  -5  11 -11 14815.5 857.783   7
  -5  11 -11 16558.0 935.884  22
  -5  11 -11 16746.3 956.667   5
  -5  11 -12 21.0626 128.704   5
  -5  11 -12 271.797 166.519   7
  -5  11 -12-36.7844 169.488  22
  -5  11 -13 2814.32 314.432   7
  -5  10   7 3952.12 428.630   4
  -5  10   6 6940.21 617.927   4
  -5  10   5 809.526 292.102   4
  -5  10   4 809.287 296.295   4
  -5  10   3 9208.00 813.703   4
  -5  10   2-384.810 259.052   4
  -5  10   1 4290.45 564.764   4
  -5  10   1 4501.14 547.092  22
  -5  10   0 2535.27 439.924  22
  -5  10  -1 5406.38 768.875   3
  -5  10  -1 7002.54 716.051  22
  -5  10  -2 2134.77 415.052  15
  -5  10  -2 1637.73 508.042   3
  -5  10  -2 2559.90 442.380  22
  -5  10  -3 3332.63 526.161  15
  -5  10  -3 3923.48 548.505  22
  -5  10  -3 4540.02 710.712   3
  -5  10  -4 5277.02 634.065  15
  -5  10  -4 6347.91 699.340  22
  -5  10  -4 4723.59 746.670   3
  -5  10  -5 617.011 247.921  15
  -5  10  -5 826.172 314.926  22
  -5  10  -5 934.303 394.611   3
  -5  10  -6 6726.07 676.243  15
  -5  10  -6 7894.97 780.045  22
  -5  10  -6 7152.09 854.716   3
  -5  10  -7 3219.13 466.059  15
  -5  10  -7 3857.98 570.362  22
  -5  10  -7 3849.62 613.548   3
  -5  10  -8 5890.64 693.868   5
  -5  10  -8 6072.54 688.365  22
  -5  10  -8 5480.62 693.798   3
  -5  10  -9 4599.31 636.512   5
  -5  10  -9 4623.00 548.197   7
  -5  10  -9 4722.83 611.243  22
  -5  10 -10 79.2119 189.282   5
  -5  10 -10 339.160 163.787   7
  -5  10 -10 381.424 252.049  22
  -5  10 -11 22874.0 1108.37   7
  -5  10 -11 25490.4 1204.29  22
  -5  10 -11 23906.1 1263.76   5
  -5  10 -12 1331.31 319.414   5
  -5  10 -12 1385.05 274.692   7
  -5  10 -12 1741.69 317.114  22
  -5  10 -13-335.364 174.635   5
  -5  10 -13-71.2136 105.867   7
  -5   9   8 4251.25 444.929   4
  -5   9   7 850.555 278.591   4
  -5   9   6 2926.57 498.703   4
  -5   9   5 12763.3 957.223   4
  -5   9   4 1405.52 368.288   4
  -5   9   3 7905.77 769.679   4
  -5   9   2 899.339 335.939   4
  -5   9   1 24148.2 1285.63   4
  -5   9   0 1005.39 295.583  23
  -5   9   0 460.304 357.658   3
  -5   9   0 950.482 281.923  22
  -5   9  -1 10005.5 1057.36   3
  -5   9  -1 13900.4 990.406  22
  -5   9  -2 11735.8 931.321  15
  -5   9  -2 9861.75 1038.69   3
  -5   9  -2 10693.7 882.832  22
  -5   9  -3 2303.50 435.727  15
  -5   9  -3 1663.20 353.894  24
  -5   9  -3 2563.31 450.590  22
  -5   9  -3 1988.64 550.928   3
  -5   9  -4 1778.16 384.212  15
  -5   9  -4 1687.39 335.746  24
  -5   9  -4 1769.95 416.503  22
  -5   9  -4 1985.27 457.709  21
  -5   9  -4 2464.79 554.839   3
  -5   9  -5-62.6238 355.762   3
  -5   9  -5 212.352 200.634   5
  -5   9  -5 194.261 204.288  15
  -5   9  -5 835.861 264.866  24
  -5   9  -5 369.146 225.714  22
  -5   9  -5 204.221 254.293  21
  -5   9  -6 9739.98 816.976  15
  -5   9  -6 10061.6 866.716  22
  -5   9  -6 10832.7 1030.03   3
  -5   9  -6 9676.70 912.207   5
  -5   9  -7 3221.90 566.734   5
  -5   9  -7 3040.42 486.920  15
  -5   9  -7 2579.78 476.356  22
  -5   9  -7 3633.81 607.042   3
  -5   9  -8 5234.41 712.657   5
  -5   9  -8 5239.21 656.815  22
  -5   9  -8 5725.81 721.991   3
  -5   9  -9 9913.26 818.478   7
  -5   9  -9 10295.6 870.662  22
  -5   9  -9 10767.2 973.618   5
  -5   9 -10 1846.00 431.879   5
  -5   9 -10 1607.45 363.723   7
  -5   9 -10 2508.08 451.570  22
  -5   9 -11 4923.93 627.475   5
  -5   9 -11 5536.36 584.917   7
  -5   9 -11 5116.10 587.814  22
  -5   9 -12 1770.62 388.227   5
  -5   9 -12 2244.81 358.050   7
  -5   9 -12 2283.49 374.375  22
  -5   9 -13 11540.9 694.318   7
  -5   9 -13 12365.9 810.687   5
  -5   9 -14-270.433 146.052   5
  -5   8   9 585.841 194.095   4
  -5   8   8 1456.18 342.848   4
  -5   8   7 6196.95 675.477   4
  -5   8   6 7345.77 749.358   4
  -5   8   5 7570.76 779.889   4
  -5   8   4 1103.33 361.942   4
  -5   8   3 2045.67 445.957   4
  -5   8   2 210.896 243.160   4
  -5   8   2 37.8066 192.172  23
  -5   8   1 2760.85 453.330   4
  -5   8   1 3371.33 524.153  23
  -5   8   1 3961.40 653.219   3
  -5   8   0 1975.03 393.619  23
  -5   8   0 2225.18 410.293  22
  -5   8   0 2156.02 519.992   3
  -5   8  -1 205.954 202.175  23
  -5   8  -1 141.805 228.855  22
  -5   8  -1 26.0950 217.787   3
  -5   8  -2 6040.56 660.332  15
  -5   8  -2 7321.82 700.939  22
  -5   8  -2 8492.90 912.125   3
  -5   8  -3 4906.78 660.445   5
  -5   8  -3 5456.27 749.422   3
  -5   8  -3 4881.14 597.414  15
  -5   8  -3 4982.11 556.714  24
  -5   8  -3 3680.31 507.717  22
  -5   8  -3 5281.19 680.252  21
  -5   8  -4 15349.2 1033.66  15
  -5   8  -4 17431.1 1041.46  24
  -5   8  -4 14720.1 1011.60  22
  -5   8  -4 16293.0 1252.62   3
  -5   8  -4 18067.9 1173.92  21
  -5   8  -4 16490.1 1151.59   5
  -5   8  -5 1932.64 514.230   3
  -5   8  -5 1500.89 424.812   5
  -5   8  -5 2129.55 403.840  15
  -5   8  -5 2063.16 418.927  22
  -5   8  -5 1257.01 359.493  21
  -5   8  -6 7265.70 811.765   5
  -5   8  -6 7531.24 756.408  15
  -5   8  -6 9095.42 838.245  22
  -5   8  -6 9700.27 959.260   3
  -5   8  -6 8927.47 833.006  21
  -5   8  -7 6777.75 787.775   3
  -5   8  -7 7138.95 820.579   5
  -5   8  -7 7159.15 730.556  15
  -5   8  -7 8016.61 778.046  22
  -5   8  -7 7052.37 751.139  21
  -5   8  -8 11521.8 875.190   7
  -5   8  -8 11938.7 945.771  22
  -5   8  -8 12711.8 1082.40   5
  -5   8  -9 5696.13 725.122   5
  -5   8  -9 4614.23 581.057   7
  -5   8  -9 5789.78 667.031  22
  -5   8 -10 396.593 285.254   5
  -5   8 -10 769.056 262.360   7
  -5   8 -10 904.260 350.954  22
  -5   8 -11 3975.20 610.603   5
  -5   8 -11 3516.60 486.402   7
  -5   8 -11 4091.09 536.509  22
  -5   8 -12 2023.35 423.057   5
  -5   8 -12 1469.92 317.814   7
  -5   8 -13 1629.78 359.488   5
  -5   8 -13 1249.48 258.521   7
  -5   8 -14 762.752 198.739   5
  -5   8 -14 735.677 172.897   7
  -5   7  10 2540.12 337.722   4
  -5   7  10 2916.57 341.767  12
  -5   7   9 691.481 210.499  12
  -5   7   9 947.951 282.952   4
  -5   7   8 2749.00 413.193  12
  -5   7   8 2629.93 467.069   4
  -5   7   7 9233.52 843.524   4
  -5   7   6 9304.18 865.775   4
  -5   7   5 2299.69 473.674   4
  -5   7   4 3068.66 539.882   4
  -5   7   4 2517.02 441.715  23
  -5   7   3 16792.2 1110.89   4
  -5   7   3 18021.6 1130.84  23
  -5   7   2 5493.64 639.575   4
  -5   7   2 5745.82 636.642  23
  -5   7   2 6963.81 786.067   3
  -5   7   1 1176.66 348.111   4
  -5   7   1 1139.28 462.116   3
  -5   7   0 17834.0 1039.64  23
  -5   7   0 23360.9 1414.43   3
  -5   7  -1 4243.44 663.958   3
  -5   7  -1 4687.76 531.405  23
  -5   7  -2 20792.0 1173.05  15
  -5   7  -2 24091.2 1302.97  21
  -5   7  -3 7695.98 725.079  15
  -5   7  -3 6744.74 622.840  24
  -5   7  -3 7174.83 670.949  22
  -5   7  -3 7934.42 770.770  21
  -5   7  -3 7756.00 800.528   5
  -5   7  -4 14450.5 987.074  15
  -5   7  -4 15110.0 947.778  24
  -5   7  -4 13812.2 955.111  22
  -5   7  -4 16249.9 1078.02  21
  -5   7  -4 16321.0 1136.56   5
  -5   7  -5 174.372 210.989   5
  -5   7  -5 105.638 204.647  15
  -5   7  -5-88.2496 184.856  22
  -5   7  -5 316.755 226.210  21
  -5   7  -6 13037.9 956.470  15
  -5   7  -6 13752.5 994.487  22
  -5   7  -6 12733.2 981.761  21
  -5   7  -6 12253.1 1049.74   5
  -5   7  -7 1051.08 391.009   5
  -5   7  -7 1468.65 376.679  15
  -5   7  -7 995.144 315.166  22
  -5   7  -7 1494.26 379.851  21
  -5   7  -8 15875.4 1032.20   7
  -5   7  -8 15169.2 1060.43  22
  -5   7  -8 15242.7 1186.30   5
  -5   7  -9 16078.1 1050.95   7
  -5   7  -9 16909.8 1122.23  22
  -5   7  -9 15808.6 1210.07   5
  -5   7 -10-175.783 363.621   5
  -5   7 -10 429.044 246.413   7
  -5   7 -10 270.970 304.837  22
  -5   7 -11 1278.92 400.998   5
  -5   7 -11 1253.78 311.273   7
  -5   7 -11 1024.74 356.994  22
  -5   7 -12 65.8614 257.436   5
  -5   7 -12 118.202 162.570   7
  -5   7 -13 16645.1 867.320   7
  -5   7 -13 17147.1 997.948   5
  -5   7 -14-135.373 144.648   5
  -5   7 -14-157.970 117.973   7
  -5   6  11 629.254 172.884   4
  -5   6  11-131.058 121.122  12
  -5   6  10 8618.27 669.441   4
  -5   6  10 8754.18 666.025  12
  -5   6   9 4020.27 509.389  12
  -5   6   9 4036.19 530.678   4
  -5   6   8 8576.77 802.422   4
  -5   6   8 7933.01 730.003  12
  -5   6   7 10410.5 895.846   4
  -5   6   6 1150.99 379.104   4
  -5   6   5 6252.59 720.110   4
  -5   6   5 7560.92 757.337  23
  -5   6   4 1049.36 349.514   4
  -5   6   4 746.367 287.122  23
  -5   6   3 15798.9 1037.37   4
  -5   6   3 15497.7 1004.86  23
  -5   6   2 3035.61 462.822  23
  -5   6   1 7917.42 681.206  23
  -5   6   0 125.544 148.881  23
  -5   6   0 324.951 264.738  21
  -5   6  -1 3164.07 489.673  21
  -5   6  -2 26055.0 1306.12  21
  -5   6  -3 428.522 193.580  24
  -5   6  -3 641.030 284.762  21
  -5   6  -4 1005.87 327.610  21
  -5   6  -5 577.036 209.138   5
  -5   6  -5 1149.41 329.140  15
  -5   6  -5 1012.40 294.145  22
  -5   6  -5 732.324 294.886  21
  -5   6  -6 11185.2 885.286  15
  -5   6  -6 11436.6 891.350  22
  -5   6  -6 11319.1 908.479  21
  -5   6  -6 12129.8 1028.79   5
  -5   6  -7 3883.92 647.231   5
  -5   6  -7 5109.43 608.720  22
  -5   6  -7 4900.83 630.958  21
  -5   6  -8 26448.6 1331.47   7
  -5   6  -8 26587.5 1393.36  22
  -5   6  -8 25983.5 1378.14  21
  -5   6  -8 24042.6 1495.12   5
  -5   6  -9 2446.73 537.407   5
  -5   6  -9 2294.81 439.382   7
  -5   6  -9 2558.33 470.129  22
  -5   6 -10 86.8771 278.494   5
  -5   6 -10-427.630 249.955   7
  -5   6 -10-62.4394 235.844  22
  -5   6 -11 15234.3 988.102   7
  -5   6 -11 14829.4 1146.83   5
  -5   6 -12-63.0098 322.655   5
  -5   6 -12-65.1239 169.092   7
  -5   6 -13 1188.90 336.031   5
  -5   6 -13 1317.25 278.101   7
  -5   6 -14 3651.11 352.507   7
  -5   6 -14 4190.02 421.806   5
  -5   5  12 922.778 200.558  12
  -5   5  11 68.5044 170.931  12
  -5   5  11 242.904 145.186   4
  -5   5  10 4446.25 527.919  12
  -5   5  10 4089.84 531.055   4
  -5   5   9 6972.83 716.178   4
  -5   5   9 7586.53 735.255  12
  -5   5   8 5716.83 662.011  12
  -5   5   8 6048.19 691.452   4
  -5   5   7 1420.59 363.403  12
  -5   5   7 578.734 279.103   4
  -5   5   6 1495.70 394.495   4
  -5   5   6 1547.97 374.624  23
  -5   5   5 44705.7 1787.95   4
  -5   5   5 40822.6 1740.66   6
  -5   5   5 45229.2 1734.21  23
  -5   5   4 7506.05 725.070   4
  -5   5   4 6179.45 676.096   6
  -5   5   4 6786.94 684.331  23
  -5   5   3 85387.2 2225.51  23
  -5   5   2 5587.36 556.121  23
  -5   5   1 11070.6 758.145  23
  -5   5   0 28965.7 1157.55  23
  -5   5   0 27301.2 1278.29  21
  -5   5  -1 1308.17 329.828  21
  -5   5  -2 954.846 300.978  21
  -5   5  -3 356.380 226.856  21
  -5   5  -4 59617.8 1921.82  21
  -5   5  -5 1301.04 340.074  21
  -5   5  -6 1896.33 453.917   5
  -5   5  -6 2491.90 449.457  15
  -5   5  -6 2221.21 403.157  22
  -5   5  -6 2019.93 427.007  21
  -5   5  -7 259.407 297.864   5
  -5   5  -7 135.019 172.224   7
  -5   5  -7 763.128 314.534  22
  -5   5  -7 398.765 249.977  21
  -5   5  -8 4800.60 727.279   5
  -5   5  -8 5511.42 618.567   7
  -5   5  -8 5979.28 668.220  22
  -5   5  -8 5925.78 670.248  21
  -5   5  -9 19537.4 1169.19   7
  -5   5  -9 21923.9 1256.78  22
  -5   5  -9 20208.6 1371.79   5
  -5   5 -10 24683.6 1297.41   7
  -5   5 -10 23648.0 1461.11   5
  -5   5 -11 16347.7 1028.76   7
  -5   5 -11 18135.1 1241.68   5
  -5   5 -12 5568.66 659.048   5
  -5   5 -12 4495.47 519.130   7
  -5   5 -13 235.454 223.067   5
  -5   5 -13-144.531 175.396   7
  -5   4  13 697.648 183.292  12
  -5   4  12 6393.41 568.515  12
  -5   4  11 4475.92 537.485  12
  -5   4  11 4581.15 517.126   4
  -5   4  10 19835.6 1136.02   4
  -5   4  10 19263.6 1149.65  12
  -5   4   9 1194.63 358.606  12
  -5   4   9 1692.43 400.268   4
  -5   4   8 3577.18 528.468  12
  -5   4   8 3413.45 529.183   4
  -5   4   7 49525.2 1914.19   4
  -5   4   7 46100.7 1791.22  12
  -5   4   6 3666.93 553.124   6
  -5   4   6 3029.45 497.857   4
  -5   4   6 3795.71 526.919  23
  -5   4   5 11748.9 904.034   4
  -5   4   5 10007.8 866.673   6
  -5   4   5 11266.9 851.791  23
   5  -4  -4 488.239 240.891  16
  -5   4   4 594.036 272.989  23
   5  -4  -3 30256.2 1279.34  16
  -5   4   3 29669.1 1258.86  23
   5  -4  -2 62956.4 1742.86  16
  -5   4   2 60929.5 1719.80  23
  -5   4   1 7410.23 585.846  23
  -5   4   1 6598.79 616.937  21
  -5   4   0 818.301 204.781  23
  -5   4   0 643.162 217.783  21
  -5   4  -1 5484.29 567.100  21
  -5   4  -2 41629.8 1516.24  21
  -5   4  -3 8.15025 191.586  21
  -5   4  -4 7644.80 689.458  21
  -5   4  -5 94.6275 229.112  21
  -5   4  -6 10327.0 849.051   6
  -5   4  -6 11239.2 871.944  22
  -5   4  -6 9936.86 842.922  21
  -5   4  -6 9178.61 896.306   5
  -5   4  -7 52256.5 1819.79   7
  -5   4  -7 54288.2 1926.68  22
  -5   4  -7 49824.0 1897.66  21
  -5   4  -7 50226.8 2111.78   5
  -5   4  -8 1654.67 427.504   5
  -5   4  -8 1142.03 327.656   7
  -5   4  -8 1381.74 313.995  22
  -5   4  -8 1449.94 360.398  21
  -5   4  -9 47214.5 1800.01   7
  -5   4  -9 48718.4 1871.49  22
  -5   4 -10 2218.09 496.668   5
  -5   4 -10 2892.27 500.149   7
  -5   4 -11 5182.35 684.200   5
  -5   4 -11 6319.51 639.893   7
  -5   4 -12 8429.63 685.542   7
  -5   4 -12 7846.90 652.154   6
  -5   4 -12 8198.84 753.513   5
  -5   4 -13 649.155 244.022   5
  -5   4 -13 463.343 183.071   7
  -5   4 -13 17.4829 104.406   6
  -5   3  13 166.635 160.845  12
  -5   3  12 4305.18 520.118  12
  -5   3  11 2244.26 426.419  12
  -5   3  11 2159.16 377.983   4
  -5   3  10 529.062 259.588  12
  -5   3  10 77.0851 206.236   4
  -5   3   9 12995.8 980.525   4
  -5   3   9 14262.6 1053.25  12
  -5   3   8 4030.59 575.843  12
  -5   3   8 3577.88 557.665   4
  -5   3   8 4655.71 572.232  23
  -5   3   7 190.125 237.943   6
  -5   3   7-106.689 166.378   4
  -5   3   7-342.392 234.878  23
   5  -3  -6 7200.80 727.197  16
  -5   3   6 7967.16 760.518   4
  -5   3   6 7096.50 745.205   6
  -5   3   6 6517.41 651.778  23
   5  -3  -5 52307.7 1803.83  16
  -5   3   5 50723.5 1707.97  23
   5  -3  -4 54431.6 1748.84  16
  -5   3   4 53762.7 1674.04  23
   5  -3  -3 37759.2 1376.13  16
  -5   3   3 38342.1 1356.33  23
   5  -3  -2 12624.3 765.766  16
  -5   3   2 11972.8 734.515  23
  -5   3   2 12632.9 798.274  21
   5  -3  -1 8284.13 595.202  16
  -5   3   1 8067.75 576.415  23
  -5   3   1 8689.27 650.662  21
  -5   3   0 57257.4 1661.57  21
  -5   3  -1 6075.03 569.620  21
  -5   3  -2 18481.8 978.007  21
  -5   3  -3 11283.6 797.625  21
  -5   3  -4 14462.6 940.752  21
  -5   3  -5 21936.2 1200.15  21
  -5   3  -6 5178.00 677.123   5
  -5   3  -6 6479.97 656.552  22
  -5   3  -6 6619.06 703.254  21
  -5   3  -7 2077.37 485.905   5
  -5   3  -7 2908.97 467.093   7
  -5   3  -7 2127.36 413.943  22
  -5   3  -7 2080.41 420.921  21
  -5   3  -8 3968.20 616.070   5
  -5   3  -8 5316.18 628.094   7
  -5   3  -8 5291.60 642.524  22
  -5   3  -9 243.050 267.692   5
  -5   3  -9-6.53517 216.649   7
  -5   3 -10 3392.95 583.843   5
  -5   3 -10 3573.81 515.196   7
  -5   3 -11 813.408 324.100   5
  -5   3 -11 1404.84 358.063   7
  -5   3 -12 690.963 259.723   5
  -5   3 -12 716.286 245.125   7
  -5   3 -12 379.033 200.409   6
  -5   3 -13 5824.45 468.535   6
  -5   3 -13 6413.51 505.951   7
  -5   3 -13 5533.68 477.771   5
  -5   2  14-109.513 120.933  12
  -5   2  13 3023.16 437.924  12
  -5   2  12 10373.3 842.579  12
  -5   2  11 26545.0 1280.41   4
  -5   2  11 28414.6 1454.61  12
  -5   2  10 901.112 314.251  12
  -5   2  10 441.679 242.757   4
  -5   2   9 95.1340 207.202   1
  -5   2   9 753.921 300.170   4
  -5   2   8 314.103 288.049   6
  -5   2   8 50.2617 194.282   4
  -5   2   8 797.157 291.065  23
   5  -2  -7 82587.2 2401.56  16
  -5   2   7 80183.1 2325.96   4
  -5   2   7 80565.5 2505.83   6
   5  -2  -6 7907.28 734.379  16
   5  -2  -5 34443.2 1420.14  16
   5  -2  -4 114.378 200.411  16
   5  -2  -3 20075.3 990.738  16
  -5   2   3 19118.4 937.102  21
   5  -2  -2 32135.4 1189.42  16
  -5   2   2 32029.4 1134.61  26
  -5   2   2 32091.8 1197.47  21
  -5   2   1 505.264 158.137  23
  -5   2   1 507.172 188.460  21
  -5   2   1 381.298 136.445  26
  -5   2   0 6183.72 545.788  21
  -5   2  -1 9941.59 687.373  21
  -5   2  -2 8476.49 665.585  21
  -5   2  -3 9978.58 759.717  21
  -5   2  -4 3901.83 499.936  21
  -5   2  -5 4729.10 583.702  21
  -5   2  -6 6510.53 643.302   7
  -5   2  -6 6438.17 659.465  22
  -5   2  -6 7950.76 759.856  21
  -5   2  -6 7516.93 782.700   5
  -5   2  -7 63916.9 2048.14   7
  -5   2  -7 65543.0 2222.41  21
  -5   2  -7 61052.1 2283.33   5
  -5   2  -8 2382.63 502.613   5
  -5   2  -8 1974.49 418.246   7
  -5   2  -9 38015.7 1630.08   7
  -5   2  -9 39171.4 1812.08   5
  -5   2 -10-324.669 240.237   5
  -5   2 -10-212.728 238.357   7
  -5   2 -11 15779.7 976.680   7
  -5   2 -11 16536.6 1035.49   5
  -5   2 -12 8145.24 630.628   7
  -5   2 -12 6665.86 600.493   6
  -5   2 -12 8911.59 660.061   5
  -5   2 -13 91.4205 110.166   7
  -5   2 -13 0.89049 110.769   6
  -5   1  14 12966.9 794.065  12
  -5   1  13 6150.28 641.422  12
  -5   1  12 62.8531 205.057  12
  -5   1  11 450.546 288.617  12
  -5   1  11 439.132 220.198   4
  -5   1  10 228.345 230.078   1
  -5   1  10 55.7616 202.530   4
  -5   1   9 21343.8 1225.93   4
  -5   1   9 21778.0 1237.48   1
   5  -1  -8 16929.9 1122.01  16
  -5   1   8 16165.9 1043.02  11
  -5   1   8 15990.8 1147.65   6
  -5   1   8 16662.5 1040.87   1
   5  -1  -7 23670.4 1268.64  16
   5  -1  -6 11087.5 836.175  16
   5  -1  -5 36322.8 1423.14  16
   5  -1  -4 103052. 2288.81  16
  -5   1   4 102660. 2170.21  26
  -5   1   3 45349.8 1390.29  26
  -5   1   2 2292.38 328.765  26
  -5   1   2 2518.06 335.191  21
  -5   1   1 270.853 168.775  26
  -5   1   1 404.493 169.505  21
  -5   1   0 70480.5 1649.99  26
  -5   1   0 70730.2 1712.94  21
  -5   1  -1 20868.0 904.115  26
  -5   1  -1 22213.4 1010.36  21
  -5   1  -2 166.126 197.681  21
  -5   1  -3 50581.4 1680.16  21
  -5   1  -4 14844.0 968.266  21
  -5   1  -5 18027.3 1111.02  21
  -5   1  -6-103.824 214.917   5
  -5   1  -6-302.041 233.028   7
  -5   1  -6-93.3191 210.364  21
  -5   1  -7 1686.32 408.224   5
  -5   1  -7 1953.10 406.492   7
  -5   1  -7 1912.80 421.244  21
  -5   1  -8-175.481 223.719   5
  -5   1  -8 283.599 220.308   7
  -5   1  -9 30072.0 1442.42   7
  -5   1  -9 29600.7 1514.26   5
  -5   1 -10 1492.42 334.230   5
  -5   1 -10 598.687 268.444   7
  -5   1 -11 28.9535 174.481   7
  -5   1 -12 3319.20 396.769   7
  -5   1 -12 2943.32 396.963   6
  -5   0  15 702.110 222.193  12
  -5   0  14 3639.44 481.460  12
  -5   0  13 3343.51 532.179  12
  -5   0  12 6067.55 689.075   1
  -5   0  11 10373.1 893.033   1
  -5   0  10 828.513 294.100   1
  -5   0  10 940.844 290.511   4
   5   0  -9 2174.48 453.314  16
  -5   0   9 2230.08 436.855  11
  -5   0   9 1126.95 374.487   6
  -5   0   9 1620.46 369.959   1
   5   0  -8 12200.4 939.830  16
  -5   0   8 12900.9 936.484  11
  -5   0   8 11810.8 971.344   6
   5   0  -7 60712.2 1974.46  16
   5   0  -6 17382.6 1021.10  16
  -5   0   5 264.586 195.884  26
   5   0  -5 280.157 244.830  16
  -5   0   4 3792.68 447.980  26
  -5   0   3 6365.18 542.148  26
  -5   0   2 76046.1 1782.50  26
  -5   0   1-26.8935 148.538  26
  -5   0   1 211.312 122.589  21
  -5   0   0 16461.3 836.055  26
  -5   0   0 16759.4 840.543  21
  -5   0  -1 1628.26 297.168  26
  -5   0  -1 1612.66 297.270  21
  -5   0  -2 103122. 2153.19  26
  -5   0  -2 102061. 2282.66  21
  -5   0  -3 8556.18 645.592  26
  -5   0  -3 8619.33 719.165  21
  -5   0  -4 77.8349 244.301  21
  -5   0  -5 69776.4 2214.43  21
  -5   0  -6 2230.73 412.424   7
  -5   0  -6 1701.45 396.948  21
  -5   0  -7 49837.0 1857.93   7
  -5   0  -8 2353.01 460.962   7
  -5   0  -9 1550.80 378.835   7
  -5   0 -10 5989.31 626.306   7
  -5   0 -11 13876.4 843.476   7
  -5   0 -12 3025.82 349.145   7
  -5   0 -12 2392.98 332.888   6
  -5  -1  15 1717.81 329.746  12
  -5  -1  14 21438.2 1153.85  12
  -5  -1  13 2673.15 456.340   1
  -5  -1  12 239.409 270.970   1
  -5  -1  11 3735.69 550.295   1
   5   1 -10 39124.6 1732.80  16
  -5  -1  10 40204.3 1627.51   4
  -5  -1  10 39844.5 1733.89  11
  -5  -1  10 40364.4 1711.81   1
   5   1  -9 34851.5 1600.58  16
  -5  -1   9 32877.8 1617.73   6
  -5  -1   9 33814.5 1564.04  11
  -5  -1   9 32306.1 1478.34   1
   5   1  -8-472.751 251.979  16
   5   1  -7 2375.48 430.876  16
   5   1  -6 1246.89 304.545  16
  -5  -1   6 793.893 262.791  26
  -5  -1   5 54261.1 1640.89  26
  -5  -1   4 59760.1 1666.43  26
  -5  -1   3 22362.6 1009.71  26
  -5  -1   2 998.454 267.280  26
  -5  -1   1 144.232 156.555  26
  -5  -1   1 178.334 119.475  21
  -5  -1   0 71734.1 1787.65  26
  -5  -1   0 69491.7 1707.72  21
  -5  -1  -1 50305.2 1526.92  26
  -5  -1  -1 50725.7 1549.90  21
  -5  -1  -2 4536.73 492.862  26
  -5  -1  -2 5169.91 549.405  21
  -5  -1  -3 34199.6 1358.74  26
  -5  -1  -3 35157.2 1454.02  21
  -5  -1  -4 25413.0 1203.94  26
  -5  -1  -4 28413.9 1374.79  21
  -5  -1  -5 5094.51 578.845   7
  -5  -1  -5 4211.64 573.418  21
  -5  -1  -6 1673.71 393.284   7
  -5  -1  -6 1468.58 390.691  21
  -5  -1  -7 1308.93 376.284   7
  -5  -1  -8 3479.16 533.810   7
  -5  -1  -9 13900.2 960.081   7
  -5  -1  -9 13059.0 920.203  11
  -5  -1 -10 10696.1 781.837   7
  -5  -1 -10 10525.1 753.856  11
  -5  -1 -11 145.862 138.737   7
  -5  -1 -11 200.601 97.4899  11
  -5  -2  16 2300.51 311.110  12
  -5  -2  15 3570.58 468.646  12
  -5  -2  14 336.005 229.190  12
  -5  -2  14 534.270 259.071   1
  -5  -2  13 18005.6 1146.07   1
  -5  -2  12 2636.07 501.864   1
  -5  -2  11 36162.5 1647.00   1
   5   2 -10 11644.1 940.293  16
  -5  -2  10 11951.3 979.917  11
  -5  -2  10 11041.3 900.691   1
   5   2  -9 8690.07 784.290  16
  -5  -2   9 7305.44 759.854   6
  -5  -2   9 9571.43 843.237  11
  -5  -2   9 8380.67 761.119   1
   5   2  -8 180.264 197.594  16
   5   2  -7 102930. 2478.09  16
  -5  -2   6 8991.69 699.964  26
  -5  -2   5 405.444 230.618  26
  -5  -2   4 3182.81 435.516  26
  -5  -2   3 4151.00 470.742  26
  -5  -2   2 6765.55 591.212  26
  -5  -2   1 41566.5 1408.20  26
  -5  -2   0 10737.7 739.897  26
  -5  -2   0 12222.9 725.997  21
  -5  -2  -1 19374.3 1010.00  26
  -5  -2  -1 19365.9 982.515  21
  -5  -2  -2 48936.6 1636.47  26
  -5  -2  -2 48102.2 1639.04  21
  -5  -2  -3 12697.9 882.900  26
  -5  -2  -3 12759.8 906.763  21
  -5  -2  -4 639.724 253.801  26
  -5  -2  -4 921.340 309.278  21
  -5  -2  -5 8820.45 775.119   7
  -5  -2  -5 10203.5 822.212  26
  -5  -2  -5 10418.3 902.835  21
  -5  -2  -6 23988.2 1294.01   7
  -5  -2  -7 17953.5 1122.11   7
  -5  -2  -8 5700.54 662.355   7
  -5  -2  -9-159.597 258.990   7
  -5  -2  -9 5.21202 145.076  11
  -5  -2 -10 3375.37 435.938   7
  -5  -2 -10 2469.30 355.537  11
  -5  -2 -11 551.797 179.800   6
  -5  -3  16 348.719 165.087  12
  -5  -3  15 11046.5 805.875  12
  -5  -3  15 9804.89 745.990   1
  -5  -3  14 15311.3 1012.55   1
  -5  -3  13 32152.5 1532.81   1
  -5  -3  12 316.835 272.282   1
  -5  -3  11 2755.77 489.962   1
   5   3 -11 2813.25 488.347  16
  -5  -3  11 2209.87 460.271  11
   5   3 -10 45.9319 169.580  16
  -5  -3  10-390.780 214.981   1
  -5  -3  10-548.534 224.367  11
  -5  -3   9 9620.03 820.244   1
   5   3  -9 10104.3 840.094  16
  -5  -3   9 8794.30 808.182   6
  -5  -3   9 8655.26 806.222  11
   5   3  -8 3485.63 495.633  16
  -5  -3   7-94.7277 197.021  26
  -5  -3   6 26637.8 1204.75  26
  -5  -3   5 1390.49 333.507  26
  -5  -3   4 27424.1 1184.44  26
  -5  -3   3 579.178 249.244  26
  -5  -3   2 18836.8 978.272  26
  -5  -3   1 17579.0 960.563  26
  -5  -3   0 32164.1 1319.36  26
  -5  -3  -1 16726.0 981.352  26
  -5  -3  -1 15504.8 899.670  21
  -5  -3  -2 1233.59 306.514  26
  -5  -3  -2 1335.45 321.539  21
  -5  -3  -3 23618.4 1238.98  26
  -5  -3  -3 23936.5 1314.18  11
  -5  -3  -3 23365.9 1238.54  21
  -5  -3  -4 25729.2 1280.16   7
  -5  -3  -4 25567.6 1397.58  11
  -5  -3  -4 24811.2 1315.42  26
  -5  -3  -4 24572.7 1333.51  21
  -5  -3  -5 31941.4 1481.21   7
  -5  -3  -5 28570.8 1423.49  26
  -5  -3  -5 30351.8 1535.93  21
  -5  -3  -6 230.211 213.634   7
  -5  -3  -7 1471.55 368.465   7
  -5  -3  -8 6133.14 639.350   7
  -5  -3  -8 6448.11 674.282  11
  -5  -3  -9 320.838 169.783  11
  -5  -3 -10 45.3200 112.770  11
  -5  -3 -10-61.7062 136.767   6
  -5  -4  16 8209.87 609.352  12
  -5  -4  15 1210.14 291.921   1
  -5  -4  14 958.453 308.273   1
  -5  -4  13 22399.7 1300.66   1
  -5  -4  12 749.021 313.737   1
  -5  -4  12 435.601 279.246  11
   5   4 -11 8162.80 773.339  16
  -5  -4  11 8482.25 845.199  11
  -5  -4  11 8564.01 824.871   1
   5   4 -10 149.278 219.488  16
  -5  -4  10 474.648 267.469   1
  -5  -4  10 46.5861 247.651  11
  -5  -4  10-16.2282 164.242   6
   5   4  -9 3071.32 488.970  16
  -5  -4   9 2662.27 470.115  11
  -5  -4   9 2626.96 436.293   1
  -5  -4   8 3796.08 493.753  26
  -5  -4   7 26295.7 1232.18  26
  -5  -4   6 15161.7 919.597  26
  -5  -4   5-292.113 218.519  26
  -5  -4   4 13764.0 867.621  26
  -5  -4   3 3043.33 442.432  26
  -5  -4   2 33700.9 1353.34  26
  -5  -4   1 31832.3 1346.69  26
  -5  -4   0 807.574 275.085  26
  -5  -4  -1 47843.2 1727.83  26
  -5  -4  -2 47.8872 198.735  26
  -5  -4  -2-235.936 228.839  11
  -5  -4  -2 288.548 211.800  21
  -5  -4  -3 7618.63 711.448   7
  -5  -4  -3 9331.99 815.849  26
  -5  -4  -3 9023.58 857.358  11
  -5  -4  -3 8477.92 771.720  21
  -5  -4  -4 2092.34 418.630   7
  -5  -4  -4 2075.65 441.640  26
  -5  -4  -4 1978.87 445.136  11
  -5  -4  -4 967.363 358.614  21
  -5  -4  -5 510.964 284.581   7
  -5  -4  -5 726.509 379.403  11
  -5  -4  -6 15034.4 1029.52   7
  -5  -4  -6 14840.7 1088.60  11
  -5  -4  -7 6026.23 687.138  11
  -5  -4  -8 8272.18 715.969  11
  -5  -4  -9 798.209 238.176  11
  -5  -4  -9 678.248 215.005   6
  -5  -5  16 375.624 204.660  12
  -5  -5  16 63.5556 145.206   1
  -5  -5  15 12864.0 887.319   1
  -5  -5  14 1627.18 410.503   1
  -5  -5  13 41796.7 1765.68   1
  -5  -5  12 19933.7 1259.19  11
  -5  -5  12 19265.3 1224.89   1
  -5  -5  11 8077.68 798.945   1
  -5  -5  11 8609.42 838.572  11
  -5  -5  10 20324.2 1224.83   1
   5   5 -10 21145.7 1200.98  16
  -5  -5  10 22570.7 1311.10  11
  -5  -5   9 12213.3 928.303   1
   5   5  -9 12520.9 920.735  16
  -5  -5   9 12494.2 960.607  11
  -5  -5   8 16106.8 1000.33  26
  -5  -5   8 14782.3 1017.51  11
  -5  -5   7 5159.92 573.417  26
  -5  -5   6 9118.48 724.679  26
  -5  -5   5 15837.0 954.413  26
  -5  -5   4 68765.2 1964.10  26
  -5  -5   3 3218.44 453.417  26
  -5  -5   2 1142.25 313.834  26
  -5  -5   1 23039.5 1200.73  26
  -5  -5   0 5429.47 612.582  26
  -5  -5  -1 62955.3 2058.37  26
  -5  -5  -1 62628.7 2149.56  11
  -5  -5  -2 6092.58 682.621  26
  -5  -5  -2 6433.71 730.100  11
  -5  -5  -2 4760.94 584.066   6
  -5  -5  -3 62377.5 2160.99  26
  -5  -5  -3 62096.9 2233.43  11
  -5  -5  -3 61148.8 2069.24  21
  -5  -5  -4 6187.15 743.508  11
  -5  -5  -5 67182.3 2294.12  11
  -5  -5  -6 9628.14 870.612  11
  -5  -5  -7 46.6052 209.168  11
  -5  -5  -8 17033.5 948.709  11
  -5  -5  -8 14946.5 838.242   6
  -5  -5  -9 13.2495 118.455  11
   5   6 -16 4933.98 453.387   9
  -5  -6  16 5566.65 543.042   1
  -5  -6  15 14322.5 940.184   1
  -5  -6  14 6097.93 684.628   1
  -5  -6  13-35.5122 260.206   1
  -5  -6  12 5817.78 715.016   1
  -5  -6  12 6233.74 721.170  11
  -5  -6  11 29803.0 1510.74   1
  -5  -6  11 28988.2 1495.76  11
  -5  -6  10 16634.4 1118.68   1
   5   6 -10 14754.0 992.509  16
  -5  -6  10 15333.2 1088.12  11
  -5  -6   9 10836.3 888.449   1
  -5  -6   9 11561.0 938.923  11
  -5  -6   9 11473.8 857.114  26
   5   6  -8 34996.4 1534.63   2
  -5  -6   8 32976.5 1486.97   1
  -5  -6   8 36901.0 1612.32  11
  -5  -6   8 33246.6 1424.85  26
  -5  -6   7 7010.40 651.769  26
  -5  -6   6 35245.4 1450.98  26
  -5  -6   5 235.854 214.814  26
  -5  -6   4 10624.3 805.097  26
  -5  -6   3 14031.4 939.455  26
  -5  -6   2 76638.3 2195.48  26
  -5  -6   1 17289.7 1076.28  26
  -5  -6   1 16808.2 1099.67  11
  -5  -6   0 134.406 217.991  26
  -5  -6   0 111.677 210.444  11
  -5  -6  -1 27817.4 1428.92  26
  -5  -6  -1 29369.4 1518.17  11
  -5  -6  -2 2089.48 405.600   9
  -5  -6  -2 2652.61 482.830  26
  -5  -6  -2 2237.25 475.805  11
  -5  -6  -3 8499.25 848.261  11
  -5  -6  -3 9262.74 807.941   9
  -5  -6  -4 1513.21 367.613   9
  -5  -6  -4 751.878 316.872  11
  -5  -6  -5-519.944 248.128   9
  -5  -6  -5 200.040 270.910  11
  -5  -6  -6 8087.37 751.261  11
  -5  -6  -6 6690.25 622.780   9
  -5  -6  -7 993.568 229.208   9
  -5  -6  -7 1256.28 286.664  11
  -5  -6  -8 5581.99 491.307  11
  -5  -7  17 2441.91 316.878   1
  -5  -7  16 662.032 251.480   1
  -5  -7  15 1347.50 349.301   1
  -5  -7  14 918.129 367.494   1
  -5  -7  13 10287.9 907.929   1
  -5  -7  13 9531.58 839.838  11
  -5  -7  12 1761.41 411.969   1
  -5  -7  12 1676.40 407.165  11
  -5  -7  11 10117.3 905.455   1
  -5  -7  11 9622.04 874.594  11
  -5  -7  10 18350.1 1187.02   1
  -5  -7  10 17615.2 1162.01  11
   5   7  -9 6062.19 680.706   2
  -5  -7   9 4997.71 628.419   1
  -5  -7   9 6517.89 703.166  11
  -5  -7   9 4690.75 566.917  26
  -5  -7   8 21712.7 1172.00  26
   5   7  -8 21341.1 1232.64   2
  -5  -7   8 22301.1 1258.34   1
  -5  -7   8 20818.7 1239.80  11
  -5  -7   7 1177.75 334.444  26
   5   7  -7 1673.80 382.969   2
  -5  -7   7 1134.75 351.202   1
  -5  -7   7 1890.18 396.445  11
   5   7  -6 12470.1 920.102   2
  -5  -7   6 13123.5 936.673   1
  -5  -7   6 12630.2 892.520  26
  -5  -7   6 11209.7 888.033  11
   5   7  -5 14766.6 993.810   2
  -5  -7   5 14752.1 1020.38  11
  -5  -7   5 12801.6 905.465  26
   5   7  -4 77648.2 2235.18   2
  -5  -7   4 77157.2 2218.30  26
  -5  -7   4 78676.2 2333.37  11
   5   7  -3 20437.6 1145.59   2
  -5  -7   3 18691.5 1118.90  26
  -5  -7   3 18886.1 1167.81  11
   5   7  -2 11102.5 853.168   2
  -5  -7   2 11515.2 948.035  11
  -5  -7   2 10519.0 859.121  26
   5   7  -1 269.398 169.816   2
  -5  -7   1 396.549 278.255  26
  -5  -7   1 120.447 189.592  11
  -5  -7   0-15.7911 158.401  26
   5   7   0-267.584 184.579   2
  -5  -7   0-47.8815 204.931  11
  -5  -7  -1 38250.2 1746.48  11
  -5  -7  -1 41528.6 1725.76   9
  -5  -7  -2 1777.95 408.809   9
  -5  -7  -2 1171.42 379.233  11
  -5  -7  -3 32873.7 1608.01  11
  -5  -7  -3 36430.4 1600.43   9
  -5  -7  -4 27993.6 1448.47  11
  -5  -7  -4 30717.5 1418.07   9
  -5  -7  -5 1987.45 372.109   9
  -5  -7  -5 2884.33 499.707  11
  -5  -7  -6 5031.44 554.416  11
  -5  -7  -6 5722.30 521.923   9
  -5  -7  -7 31.5293 144.178  11
  -5  -8  17 8563.67 547.262   1
  -5  -8  16 573.456 234.091   1
  -5  -8  15 28207.5 1294.01   1
  -5  -8  14 295.184 249.158   1
  -5  -8  13 3954.58 615.360   1
  -5  -8  13 4078.59 565.844  11
  -5  -8  12 41509.4 1775.75   1
  -5  -8  12 42466.1 1744.32  11
  -5  -8  11 26566.0 1447.79   1
  -5  -8  11 24655.3 1339.23  11
  -5  -8  10 4144.84 606.704   1
  -5  -8  10 3295.76 526.579  11
   5   8  -9 1179.15 360.086   2
  -5  -8   9 1014.81 339.182   1
  -5  -8   9 1059.45 304.618  26
  -5  -8   9 1077.75 338.799  11
  -5  -8   8 43503.4 1650.47  26
   5   8  -8 44425.5 1816.97   2
  -5  -8   8 42401.0 1764.65   1
  -5  -8   8 45717.0 1822.84  11
   5   8  -7 14673.7 1037.02   2
  -5  -8   7 14958.3 1044.16   1
  -5  -8   7 15014.7 1048.11  11
  -5  -8   7 15381.6 1000.36  26
   5   8  -6 22124.1 1264.75   2
  -5  -8   6 22685.2 1281.99  11
  -5  -8   6 19357.6 1157.38   1
  -5  -8   6 19637.5 1123.18  26
  -5  -8   5 4126.05 547.932  26
   5   8  -5 3900.43 560.701   2
  -5  -8   5 4594.94 595.607  11
   5   8  -4 491.919 253.346   2
  -5  -8   4 108.696 197.548  26
   5   8  -3 22536.7 1254.41   2
  -5  -8   3 22507.0 1294.20  11
  -5  -8   3 20983.1 1209.61  26
   5   8  -2 4467.66 570.468   2
  -5  -8   2 4573.20 596.498  26
  -5  -8   2 3741.10 559.284  11
  -5  -8   1 6630.65 713.141  26
   5   8  -1 5911.61 653.724   2
  -5  -8   1 5964.01 706.250  11
   5   8   0 209.402 143.698   2
  -5  -8   0 662.757 284.297  11
   5   8   1 5822.28 620.505   2
  -5  -8  -1 6707.32 739.446  11
  -5  -8  -2 457.791 306.913  11
  -5  -8  -3 21955.3 1257.66  11
  -5  -8  -4 411.059 270.372  11
  -5  -8  -5 3806.91 478.879  11
  -5  -8  -6 15989.7 822.899  11
  -5  -9  16 529.241 220.922   1
  -5  -9  15 15604.8 945.735   1
  -5  -9  14 7198.78 709.779   1
  -5  -9  13 8323.73 811.330   1
  -5  -9  13 8079.62 735.311  11
  -5  -9  12 2543.31 450.623  11
  -5  -9  12 2533.65 527.084   1
  -5  -9  11 6351.41 721.374   1
  -5  -9  11 5070.49 617.287  11
  -5  -9  10 8382.55 825.872   1
  -5  -9  10 6750.65 716.384  11
   5   9  -9 19007.6 1206.29   2
  -5  -9   9 17502.0 1169.29   1
  -5  -9   9 17833.8 1144.55  11
   5   9  -8 6856.18 743.103   2
  -5  -9   8 6873.40 761.810   1
  -5  -9   8 6727.96 714.026  11
  -5  -9   7 1097.41 342.753   1
   5   9  -7 1839.05 427.314   2
  -5  -9   7 1285.23 326.107  26
  -5  -9   7 1322.06 353.781  11
   5   9  -6 6094.43 693.804   2
  -5  -9   6 6636.14 724.037   1
  -5  -9   6 7287.99 738.940  11
  -5  -9   6 6509.67 657.103  26
   5   9  -5 7278.30 760.675   2
  -5  -9   5 8032.13 772.042  11
  -5  -9   5 7309.78 717.659  26
   5   9  -4 9785.33 861.818   2
  -5  -9   4 7714.00 745.033  26
  -5  -9   4 7809.87 773.371  11
   5   9  -3 10937.6 902.911   2
  -5  -9   3 10398.5 899.009  11
  -5  -9   3 9888.57 850.539  26
   5   9  -2 823.023 264.397   2
  -5  -9   2-28.9279 171.585  11
   5   9  -1-283.104 207.494   2
  -5  -9   1 203.791 243.072  11
   5   9   0 1539.87 351.428   2
  -5  -9   0 2468.16 453.497  11
   5   9   1 1040.12 278.536   2
  -5  -9  -1 958.000 322.001  11
   5   9   2 598.505 206.335   2
  -5  -9  -2 638.293 302.208  11
  -5  -9  -3 16050.1 994.366  11
  -5  -9  -4 15236.8 885.632  11
  -5  -9  -5 1330.15 261.030  11
  -5 -10  16-63.4278 159.062   1
  -5 -10  15 6239.09 596.926   1
  -5 -10  14 1589.18 363.413   1
  -5 -10  13 6280.26 691.447   1
  -5 -10  13 6217.96 604.641  11
  -5 -10  12 32723.7 1560.67   1
  -5 -10  12 29653.9 1357.21  11
  -5 -10  11 1389.34 383.868   1
  -5 -10  11 731.552 260.333  11
   5  10 -10-386.087 282.292   2
  -5 -10  10-126.183 243.094   1
  -5 -10  10-73.8245 177.906  11
  -5 -10   9 370.154 285.539   1
   5  10  -9 370.618 256.993   2
  -5 -10   9 645.505 261.827  11
   5  10  -8 54019.0 2007.43   2
  -5 -10   8 53481.2 2022.76   1
  -5 -10   8 55194.7 1954.27  11
   5  10  -7 3395.32 552.881   2
  -5 -10   7 2864.21 511.450   1
  -5 -10   7 3211.35 487.152  11
   5  10  -6 9524.39 855.996   2
  -5 -10   6 8517.91 783.052  11
   5  10  -5 5586.21 675.529   2
  -5 -10   5 5247.54 629.893  11
   5  10  -4 5096.61 664.320   2
  -5 -10   4 3811.75 541.934  11
   5  10  -3 5940.89 677.487   2
  -5 -10   3 8098.35 768.693  11
   5  10  -2 3448.22 519.483   2
  -5 -10   2 2647.93 456.377  11
   5  10  -1 1842.53 388.865   2
  -5 -10   1 1188.15 340.174  11
   5  10   0 134.041 183.984   2
  -5 -10   0 483.208 264.201  11
   5  10   1 19675.0 1063.47   2
  -5 -10  -1 19247.7 1087.27  11
   5  10   2 20211.2 976.172   2
  -5 -10  -2 20515.8 1065.98  11
  -5 -10  -3 6676.38 567.901  11
  -5 -10  -4 467.713 159.571  11
  -5 -11  16-109.907 133.775   1
  -5 -11  15 15364.7 856.997   1
  -5 -11  14 1441.04 346.276   1
  -5 -11  13 8280.52 737.835   1
   5  11 -12 2626.15 469.038  14
  -5 -11  12 2004.17 404.676   1
  -5 -11  11 10746.7 914.807   1
   5  11 -10 22583.7 1280.12   2
  -5 -11  10 23172.7 1315.78   1
  -5 -11   9 2936.37 483.811   1
   5  11  -9 2303.25 458.771   2
   5  11  -8 8495.25 812.389   2
  -5 -11   8 7323.82 760.871   1
   5  11  -7 1168.67 338.553   2
  -5 -11   7 1095.28 348.045   1
   5  11  -6 9832.71 876.555   2
  -5 -11   6 9078.32 783.670  11
   5  11  -5 35277.9 1611.81   2
  -5 -11   5 35619.6 1516.13  11
   5  11  -4 2644.15 460.726   2
  -5 -11   4 2619.29 444.326  11
   5  11  -3 542.544 251.798   2
  -5 -11   3 84.9773 144.241  11
   5  11  -2 246.715 225.837   2
  -5 -11   2 111.554 179.602  11
   5  11  -1 22163.8 1171.05   2
  -5 -11   1 21679.6 1135.40  11
   5  11   0 7645.30 659.667   2
  -5 -11   0 8832.28 696.125  11
   5  11   1 1010.81 248.653   2
  -5 -11  -1 1283.24 281.585  11
   5  11   2 2945.27 333.638   2
  -5 -11  -2 3207.45 359.496  11
  -5 -12  15 5312.63 484.033   1
  -5 -12  14 662.259 245.919   1
   5  12 -13 1733.42 333.519  14
  -5 -12  13 1314.35 343.318   1
   5  12 -12 6478.84 696.021  14
  -5 -12  12 4902.08 576.949   1
  -5 -12  11 570.403 308.621   1
   5  12 -10 592.993 282.709   2
  -5 -12  10 1045.29 329.905   1
  -5 -12   9 4084.66 583.579   1
   5  12  -9 4557.62 594.087   2
   5  12  -8 3632.56 569.009   2
  -5 -12   8 2839.38 500.778   1
   5  12  -7 14536.3 1035.92   2
  -5 -12   7 12911.6 964.501   1
   5  12  -6 749.212 342.798   2
  -5 -12   6 783.624 323.900   1
   5  12  -5 113.372 281.231   2
   5  12  -4 720.831 287.707   2
   5  12  -3 48807.8 1740.98   2
   5  12  -2-16.6258 199.557   2
   5  12  -1 1981.17 363.566   2
   5  12   0 2215.44 328.745   2
   5  12   1 19860.8 808.094   2
  -5 -13  15 1715.21 260.672   1
  -5 -13  14 4109.16 441.642   1
   5  13 -13 1609.47 330.119  14
  -5 -13  13 1853.42 339.678   1
  -5 -13  12 10045.3 752.203   1
   5  13 -12 11260.7 864.326  14
  -5 -13  11 4434.90 555.452   1
   5  13 -10 21078.5 1114.12   2
  -5 -13  10 21061.8 1144.87   1
  -5 -13   9 962.433 329.826   1
   5  13  -9 790.425 260.081   2
   5  13  -8 2920.02 455.207   2
  -5 -13   8 3559.67 515.453   1
   5  13  -7 7287.63 698.106   2
  -5 -13   7 6526.49 663.989   1
   5  13  -6 5915.43 629.019   2
  -5 -13   6 6712.97 657.419   1
   5  13  -5 35597.4 1464.09   2
   5  13  -4 479.755 246.206   2
   5  13  -3 455.263 197.239   2
   5  13  -2 335.125 197.845   2
   5  13  -1 2349.97 316.839   2
  -5 -14  14 4345.04 390.597   1
   5  14 -13 550.698 197.272  14
  -5 -14  13 980.699 247.795   1
  -5 -14  12 10431.0 692.191   1
   5  14 -12 11910.2 812.554  14
  -5 -14  11 293.718 188.782   1
   5  14 -11 334.979 212.336  14
   5  14 -10 3512.07 513.933  14
  -5 -14  10 3857.51 473.983   1
   5  14  -9 2637.57 385.007   2
  -5 -14   9 3391.10 448.569   1
   5  14  -8 4742.77 510.062   2
  -5 -14   8 5157.05 548.875   1
   5  14  -7 14358.0 859.062   2
  -5 -14   7 14124.3 865.345   1
  -5 -14   6 670.013 201.553   1
   5  14  -6 457.772 222.561   2
   5  14  -5 706.068 240.851   2
  -5 -14   5 647.126 208.096   1
   5  14  -4 761.691 227.206   2
  -5 -14   4 819.465 220.006   1
   5  14  -3 9363.06 597.378   2
  -5 -14   3 8916.33 547.882   1
   5  15 -12 76.4799 138.563  14
  -5 -15  12 39.6915 105.611   1
  -5 -15  11 335.774 138.892   1
   5  15 -11 261.249 186.434  14
  -5 -15  10 5893.77 494.383   1
   5  15 -10 6071.08 568.420  14
   5  15  -9 3712.68 384.086   2
   5  15  -9 4870.54 526.557  14
  -5 -15   9 4435.56 438.248   1
   5  15  -8 178.963 124.854   2
  -5 -15   8 103.776 129.713   1
  -5 -15   7 1907.79 297.090   1
   5  15  -7 2362.84 358.358  14
   5  15  -7 2049.92 288.845   2
   5  15  -6 216.210 140.048   2
  -5 -15   6 238.154 126.380   1
   5  15  -5 9737.63 566.532   2
  -6  14  -3 444.867 149.472  22
  -6  14  -4 103.288 114.014  22
  -6  14  -5 1198.71 238.398  22
  -6  14  -6 225.341 133.247  22
  -6  14  -7 256.580 147.820  22
  -6  14  -8 84.2234 105.986  22
  -6  13   1 1225.24 216.603  15
  -6  13   0 526.600 197.560  15
  -6  13  -1 6578.38 514.083  15
  -6  13  -1 5501.82 447.175  22
  -6  13  -2-1.38837 138.460  15
  -6  13  -2 731.864 197.064  22
  -6  13  -3 255.921 161.172  15
  -6  13  -3-13.8198 142.648  22
  -6  13  -4 2879.13 355.179  15
  -6  13  -4 2943.95 393.301  22
  -6  13  -5 776.999 249.634  22
  -6  13  -6 1471.05 293.199  22
  -6  13  -7 924.681 244.339  22
  -6  13  -8 10666.6 667.648  22
  -6  13  -9-41.7871 133.087  22
  -6  13 -10 4120.02 363.404  22
  -6  12   3 7744.13 525.225  15
  -6  12   2-64.5764 169.744  15
  -6  12   1 2912.10 393.966  15
  -6  12   0 45.0007 161.583  15
  -6  12  -1 5660.12 569.091  15
  -6  12  -1 4827.74 486.406  22
  -6  12  -2 904.997 277.745  15
  -6  12  -2 1082.95 279.734  22
  -6  12  -3 8132.41 673.526  15
  -6  12  -3 7284.53 641.498  22
  -6  12  -4 3276.08 430.135  15
  -6  12  -4 3737.23 499.874  22
  -6  12  -5 280.200 173.984  15
  -6  12  -5 144.128 190.609  22
  -6  12  -6 10316.9 696.109  15
  -6  12  -6 9569.65 735.004  22
  -6  12  -7-50.7202 194.542  22
  -6  12  -8 2700.03 403.813  22
  -6  12  -9-154.098 190.650  22
  -6  12 -10 293.208 176.980  22
  -6  12 -11 5493.74 420.486  22
  -6  11   5 3882.81 364.375  15
  -6  11   4 153.420 169.374  15
  -6  11   4 105.017 117.429   4
  -6  11   3 2671.04 393.045  15
  -6  11   3 2604.11 360.063   4
  -6  11   2 508.182 251.544  15
  -6  11   2 251.955 158.614   4
  -6  11   1 7507.51 679.038  15
  -6  11   0 1119.99 301.263  15
  -6  11  -1 17439.5 1062.76  15
  -6  11  -1 16672.3 958.999  22
  -6  11  -2 1189.47 340.421  15
  -6  11  -2 1174.28 304.489  22
  -6  11  -3 191.828 259.917  15
  -6  11  -3 329.611 214.620  22
  -6  11  -4 17364.2 1038.93  15
  -6  11  -4 15667.8 1171.36   3
  -6  11  -4 16615.5 1024.73  22
  -6  11  -5 2346.64 394.937  15
  -6  11  -5 2141.01 478.622   3
  -6  11  -5 2353.15 448.613  22
  -6  11  -6 3505.98 461.812  15
  -6  11  -6 2762.23 432.392  22
  -6  11  -6 3360.01 550.095   3
  -6  11  -7 255.785 238.123   3
  -6  11  -7 437.387 254.502  22
  -6  11  -8 4293.61 515.176  22
  -6  11  -9 945.232 288.833  22
  -6  11 -10 3261.57 404.892   5
  -6  11 -10 3536.16 429.449  22
  -6  11 -11 996.368 231.256  22
  -6  10   6 126.125 118.873   4
  -6  10   5 2472.81 365.370   4
  -6  10   4 291.005 224.119   4
  -6  10   3 13339.9 870.244   4
  -6  10   2-501.128 213.116   4
  -6  10   1 9674.68 822.714  15
  -6  10   0 2158.02 433.962  15
  -6  10  -1 1662.31 406.536  15
  -6  10  -1 2215.33 528.729   3
  -6  10  -1 1655.50 344.643  22
  -6  10  -2 6969.16 738.111  15
  -6  10  -2 6344.08 649.952  22
  -6  10  -2 5100.34 723.778   3
  -6  10  -3 13205.3 970.405  15
  -6  10  -3 12042.9 1077.12   3
  -6  10  -3 12887.8 922.861  22
  -6  10  -4 1744.96 397.784  15
  -6  10  -4 606.842 272.027  22
  -6  10  -4 1530.40 475.737   3
  -6  10  -5 2391.59 438.211  15
  -6  10  -5 1979.83 407.523  22
  -6  10  -5 3041.89 582.353   3
  -6  10  -6 9712.33 790.312  15
  -6  10  -6 8964.89 894.668   3
  -6  10  -6 9156.58 795.101  22
  -6  10  -7 186.989 176.250   5
  -6  10  -7 2.17031 211.129  22
  -6  10  -7 25.2500 206.983   3
  -6  10  -8 4607.45 571.854   5
  -6  10  -8 4630.97 562.470  22
  -6  10  -8 3583.17 517.253   3
  -6  10  -9 947.307 289.208   5
  -6  10  -9 1098.46 326.175  22
  -6  10 -10 6132.18 579.257  22
  -6  10 -10 5886.61 589.940   5
  -6  10 -11 10928.6 681.096  22
  -6  10 -11 10936.1 727.159   5
  -6   9   7 4009.19 422.172   4
  -6   9   6 1570.83 331.055   4
  -6   9   5 8390.25 710.653   4
  -6   9   4 89.8568 177.948   4
  -6   9   3 983.393 313.580   4
  -6   9   2 1346.22 341.965   4
  -6   9   0 5993.33 706.442  15
  -6   9   0 6876.33 821.612   3
  -6   9  -1 4463.17 617.717  15
  -6   9  -1 3226.71 621.430   3
  -6   9  -2 2675.61 494.250  15
  -6   9  -2 2692.46 440.362  22
  -6   9  -2 1970.69 546.277   3
  -6   9  -3 289.688 257.080  15
  -6   9  -3 40.6635 177.534  22
  -6   9  -3 2.45105 325.999   3
  -6   9  -4 13482.4 996.221  15
  -6   9  -4 11257.9 1058.51   3
  -6   9  -4 12580.1 930.649  22
  -6   9  -5 151.282 261.831   5
  -6   9  -5-100.994 206.498  15
  -6   9  -5 42.7739 199.661  22
  -6   9  -5-57.3521 266.051   3
  -6   9  -6 2848.40 532.665   5
  -6   9  -6 2388.10 444.817  15
  -6   9  -6 3108.37 488.240  22
  -6   9  -6 3094.00 592.058   3
  -6   9  -7 170.142 236.024   5
  -6   9  -7 11.9557 187.496  22
  -6   9  -7 448.948 271.486   3
  -6   9  -8 1543.73 391.772   5
  -6   9  -8 1869.41 400.555  22
  -6   9  -8 1644.72 395.873   3
  -6   9  -9 367.404 241.967   5
  -6   9  -9 794.617 318.926  22
  -6   9 -10 1251.12 346.940   5
  -6   9 -10 1110.46 285.713  22
  -6   9 -11 1350.45 318.541   5
  -6   9 -12-619.289 191.931   5
  -6   8   8 4928.79 480.635   4
  -6   8   7 4773.81 526.850   4
  -6   8   6 100.845 215.727   4
  -6   8   5 377.873 244.043   4
  -6   8   4 899.893 331.527   4
  -6   8   3 29123.7 1424.17   4
  -6   8   2 3995.70 551.096   4
  -6   8   2 1575.52 419.238   3
  -6   8   1 2084.33 505.468   3
  -6   8   0 35.4756 201.156  15
  -6   8   0-145.219 282.892   3
  -6   8  -1 2870.73 519.127  15
  -6   8  -1 2478.75 508.858   3
  -6   8  -2 6935.49 835.970   3
  -6   8  -2 7124.60 763.879  15
  -6   8  -2 5981.59 638.077  22
  -6   8  -3 2886.67 621.263   3
  -6   8  -3 4490.10 617.029  15
  -6   8  -3 3872.45 522.535  22
  -6   8  -4 3171.70 583.392   5
  -6   8  -4 3282.63 632.330   3
  -6   8  -4 3318.46 522.706  15
  -6   8  -4 3156.37 486.927  22
  -6   8  -5 6284.49 785.225   5
  -6   8  -5 6561.03 716.374  15
  -6   8  -5 7707.05 739.166  22
  -6   8  -5 8191.28 914.731   3
  -6   8  -6 3314.79 597.088   3
  -6   8  -6 3315.52 593.232   5
  -6   8  -6 2942.79 499.039  15
  -6   8  -6 3334.29 518.181  22
  -6   8  -7 400.597 252.391   3
  -6   8  -7 493.201 336.565   5
  -6   8  -7-17.5462 228.861  22
  -6   8  -8-125.985 221.688   3
  -6   8  -8-60.0204 301.436   5
  -6   8  -8 120.318 222.278  22
  -6   8  -9 5321.15 680.881   5
  -6   8  -9 4943.19 586.579  22
  -6   8 -10 262.432 249.447   5
  -6   8 -10 218.721 210.713  22
  -6   8 -11 17482.6 826.422   7
  -6   8 -11 20182.0 1113.59   5
  -6   8 -12 808.435 229.144   5
  -6   8 -12 982.968 179.480   7
  -6   7   9 39.4235 158.306   4
  -6   7   8 1810.33 352.981   4
  -6   7   7 1753.24 393.012   4
  -6   7   6 15532.8 1063.04   4
  -6   7   5 19910.5 1215.95   4
  -6   7   4 2320.31 463.703   4
  -6   7   3 3064.82 501.412   4
  -6   7   2 2500.33 473.195   4
  -6   7   2 2527.02 518.303   3
  -6   7   1 4384.26 653.057   3
  -6   7   0 18064.5 1177.61  15
  -6   7   0 19462.9 1349.04   3
  -6   7  -1 120.780 320.528   3
  -6   7  -1 82.1326 212.502  15
  -6   7  -2 32.4179 320.085   3
  -6   7  -2-38.0964 189.846  15
  -6   7  -2-498.768 269.898  21
  -6   7  -3 522.031 295.096   5
  -6   7  -3 85.5908 192.468  15
  -6   7  -3 366.167 234.382  22
  -6   7  -3 464.278 253.884  21
  -6   7  -4 6303.30 777.341   5
  -6   7  -4 7127.30 759.735  15
  -6   7  -4 6359.05 670.378  22
  -6   7  -5-72.6457 232.765  15
  -6   7  -5-342.842 222.050  22
  -6   7  -6 3504.59 610.947   5
  -6   7  -6 3006.66 507.384  15
  -6   7  -6 3035.26 493.225  22
  -6   7  -7-56.8214 260.468   3
  -6   7  -7 230.673 282.715   5
  -6   7  -7 199.105 229.359  22
  -6   7  -8 12357.6 928.237  22
  -6   7  -8 13833.9 1129.89   5
  -6   7  -9 8416.44 757.710  22
  -6   7  -9 6894.52 800.957   5
  -6   7 -10 1977.99 454.546   5
  -6   7 -10 1943.70 327.589   7
  -6   7 -10 2845.25 454.949  22
  -6   7 -11 3418.89 501.699   5
  -6   7 -11 4342.29 433.686   7
  -6   7 -12 631.508 235.294   5
  -6   7 -12 516.683 167.105   7
  -6   6  10 1442.79 269.487   4
  -6   6   9 106.923 172.139   4
  -6   6   8 1200.34 366.581   4
  -6   6   7 8742.79 815.706   4
  -6   6   6 2707.58 502.372   4
  -6   6   5 2331.01 463.990   4
  -6   6   4 2764.67 478.054   6
  -6   6   4 2656.63 487.851   4
  -6   6   3 20057.9 1206.94   4
  -6   6   3 18195.2 1123.24  23
  -6   6   2 13185.6 956.376   4
  -6   6   2 15179.6 1007.26  23
  -6   6   2 12488.8 1062.03   3
  -6   6   1 2229.15 518.540   3
  -6   6   0 242.980 178.723  15
  -6   6  -1 1662.20 400.821  15
  -6   6  -1 1179.04 335.003  21
  -6   6  -2 53581.9 1985.30  15
  -6   6  -2 57288.2 2086.94  21
  -6   6  -2 54912.1 2201.42   5
  -6   6  -3 2344.56 526.892   5
  -6   6  -3 1944.86 405.390  15
  -6   6  -3 2041.75 394.360  22
  -6   6  -3 1899.80 418.390  21
  -6   6  -4 729.512 327.765   5
  -6   6  -4 1841.86 400.934  15
  -6   6  -4 1802.78 385.126  22
  -6   6  -4 1968.93 431.093  21
  -6   6  -5 2373.54 560.073   5
  -6   6  -5 3534.97 544.420  15
  -6   6  -5 2535.15 453.454  22
  -6   6  -6 19457.9 1208.92  15
  -6   6  -6 18830.0 1148.62  22
  -6   6  -6 17194.8 1281.13   5
  -6   6  -7 14334.5 1003.23  22
  -6   6  -7 13743.1 1140.08   5
  -6   6  -8 17723.1 1109.00  22
  -6   6  -8 17200.6 1257.74   5
  -6   6  -9 7172.61 833.096   5
  -6   6  -9 8223.65 753.823  22
  -6   6 -10 4065.04 598.411   5
  -6   6 -10 4571.19 488.815   7
  -6   6 -11 6028.32 520.143   7
  -6   6 -11 5852.12 645.142   5
  -6   6 -12 4096.95 481.313   5
  -6   6 -12 4146.60 382.058   7
  -6   5  11 89.5437 80.5880  12
  -6   5  11 41.4066 113.243   4
  -6   5  10 9735.41 706.485   4
  -6   5  10 9752.89 655.389  12
  -6   5   9 3445.62 511.914   4
  -6   5   8 45.8644 234.486   4
  -6   5   7 325.366 284.981   4
  -6   5   6 260.937 244.486   4
  -6   5   5 16189.0 1114.90   4
  -6   5   5 15618.2 1115.81   6
  -6   5   4 2221.39 439.719   6
  -6   5   4 2098.76 402.019   4
  -6   5   4 1608.51 364.826  23
  -6   5   3 10873.4 891.468   4
  -6   5   3 8488.59 808.290   6
  -6   5   3 9122.76 785.490  23
  -6   5   2 122.436 230.730   3
  -6   5   2 933.747 334.942   6
  -6   5   2 758.241 268.324   4
  -6   5   2 776.424 271.608  23
  -6   5   1 1354.19 355.896  15
  -6   5   1 1298.48 384.838   6
  -6   5   0 60890.7 2064.43  15
  -6   5   0 59665.4 2018.52   6
  -6   5   0 60031.4 2054.01  21
  -6   5  -1-2.19867 239.176   5
  -6   5  -1-4.78052 158.794  15
  -6   5  -1 26.3901 237.048   6
  -6   5  -1 125.047 244.124  21
  -6   5  -2 2215.42 473.918   5
  -6   5  -2 2364.89 460.618  15
  -6   5  -2 1752.59 413.668   6
  -6   5  -2 2252.43 439.137  21
  -6   5  -3 2568.66 530.199   5
  -6   5  -3 2282.42 450.362  15
  -6   5  -3 2431.31 434.513   6
  -6   5  -3 2748.12 474.214  21
  -6   5  -4 7709.44 780.552  15
  -6   5  -4 7052.18 725.711   6
  -6   5  -4 6932.58 683.268  22
  -6   5  -4 6394.94 714.686  21
  -6   5  -4 8091.87 888.259   5
  -6   5  -5 7438.14 761.965  15
  -6   5  -5 10190.5 857.871   6
  -6   5  -5 9311.13 806.002  22
  -6   5  -5 9038.99 847.698  21
  -6   5  -5 8747.49 926.862   5
  -6   5  -6 9369.52 816.792  22
  -6   5  -6 10467.4 1001.88   5
  -6   5  -7 604.035 374.494   5
  -6   5  -7 398.555 239.442  22
  -6   5  -7 337.189 269.463   6
  -6   5  -8 14371.9 986.337   6
  -6   5  -8 14727.8 1018.09  22
  -6   5  -8 12765.3 1092.09   5
  -6   5  -9 6520.78 775.298   5
  -6   5  -9 6642.56 625.431   7
  -6   5  -9 6075.51 624.631   6
  -6   5 -10-77.5837 298.153   5
  -6   5 -10 130.376 150.241   7
  -6   5 -11-124.108 264.098   5
  -6   5 -11 33.0668 126.119   7
  -6   5 -12-6.26322 165.011   5
  -6   5 -12 282.552 117.341   7
  -6   4  12 11526.9 614.362  12
  -6   4  11 2775.92 361.765  12
  -6   4  11 2437.97 347.051   4
  -6   4  10 192.009 158.527  12
  -6   4  10 69.7291 181.816   4
  -6   4   9 247.869 161.380  12
  -6   4   9 60.8286 235.310   4
  -6   4   8-233.895 256.298   4
  -6   4   7 15193.9 1082.27   4
  -6   4   6-2.75975 265.826   6
  -6   4   6-12.1906 212.775   4
  -6   4   5 20864.9 1253.59   4
  -6   4   5 18060.2 1202.95   6
  -6   4   5 20573.0 1188.74  23
   6  -4  -4 712.687 266.876  16
  -6   4   4 895.788 287.367   6
  -6   4   4 1381.26 370.162   4
  -6   4   4 1173.55 324.530  23
  -6   4   3 5990.46 687.797   6
  -6   4   3 5948.75 624.841  23
  -6   4   2 86003.2 2497.42   6
  -6   4   2 83247.8 2151.30  23
  -6   4   1 7671.96 719.769  15
  -6   4   1 7856.26 763.405   6
  -6   4   1 6635.46 679.860  21
  -6   4   0 680.144 251.526  15
  -6   4   0 1155.78 352.639   6
  -6   4   0 1435.09 370.164  21
  -6   4  -1 6091.37 743.935   5
  -6   4  -1 6362.76 661.940  15
  -6   4  -1 5741.50 651.374   6
  -6   4  -1 7119.56 710.171  21
  -6   4  -2 63406.0 2061.87  15
  -6   4  -2 63798.3 2098.63   6
  -6   4  -2 62061.7 2045.68  21
  -6   4  -2 62608.9 2302.50   5
  -6   4  -3 6223.36 767.829   5
  -6   4  -3 7122.22 728.844  15
  -6   4  -3 8261.76 776.002   6
  -6   4  -3 6332.10 685.695  21
  -6   4  -4 352.716 218.788   5
  -6   4  -4 164.681 218.531  15
  -6   4  -4 597.091 235.038  22
  -6   4  -4 368.923 231.498   6
  -6   4  -4 450.542 282.325  21
  -6   4  -5 5698.87 750.319   5
  -6   4  -5 6656.66 677.499  22
  -6   4  -5 6827.31 722.843   6
  -6   4  -5 6755.98 721.175  21
  -6   4  -6 3782.15 650.109   5
  -6   4  -6 4260.59 567.449  22
  -6   4  -6 4968.63 628.988   6
  -6   4  -7 29115.2 1471.32   6
  -6   4  -7 29532.9 1424.98  22
  -6   4  -8 12436.0 961.737   6
  -6   4  -8 11554.5 1028.50   5
  -6   4  -9 4444.80 644.873   5
  -6   4  -9 3124.53 447.102   7
  -6   4  -9 3863.93 534.742   6
  -6   4 -10 314.909 237.557   5
  -6   4 -10 800.104 232.958   7
  -6   4 -10 454.440 219.750   6
  -6   4 -11 8052.44 597.111   7
  -6   4 -11 7461.67 587.380   6
  -6   4 -11 7112.23 657.722   5
  -6   4 -12 539.253 180.425   5
  -6   4 -12 764.739 180.262   7
  -6   3  12 1818.66 299.880  12
  -6   3  12 1760.63 272.732   4
  -6   3  11 3005.87 409.577  12
  -6   3  11 3070.46 429.525   4
  -6   3  10 1109.93 290.631  12
  -6   3  10 1021.19 319.064   4
  -6   3   9 22832.4 1267.75   4
  -6   3   9 24486.5 1268.50  12
  -6   3   8 196.669 245.899   4
  -6   3   7-361.418 285.150   6
  -6   3   7 49.3499 232.144   4
   6  -3  -6 827.354 290.225  16
  -6   3   6 627.981 303.670   6
  -6   3   6 1319.95 371.880   4
  -6   3   6 1012.88 310.595  23
   6  -3  -5 36031.4 1590.99  16
  -6   3   5 38835.3 1755.47   6
  -6   3   5 40098.2 1611.85  23
   6  -3  -4 19358.0 1126.29  16
  -6   3   4 22311.9 1309.29   6
  -6   3   4 21530.6 1155.88  23
   6  -3  -3 433.706 202.514  16
  -6   3   3 668.080 290.231   6
  -6   3   3 842.580 273.579  23
  -6   3   2 15675.1 976.933  21
  -6   3   1 552.221 256.839  21
  -6   3   0 85514.1 2287.65  21
  -6   3  -1-256.743 196.534   5
  -6   3  -1 603.324 275.941  21
  -6   3  -2 377.104 257.750   5
  -6   3  -2 849.053 274.747  15
  -6   3  -2 482.926 240.716   6
  -6   3  -2 418.730 243.337  21
  -6   3  -3 2808.52 507.577   5
  -6   3  -3 2820.23 474.947  15
  -6   3  -3 2760.79 483.597   6
  -6   3  -3 2966.00 486.262  21
  -6   3  -4 20055.5 1223.97  15
  -6   3  -4 20526.4 1247.66   6
  -6   3  -4 20071.0 1101.57  22
  -6   3  -4 19203.2 1158.98  21
  -6   3  -4 20197.1 1335.96   5
  -6   3  -5 21286.1 1285.51   6
  -6   3  -5 23673.9 1243.49  22
  -6   3  -5 21308.7 1254.99  21
  -6   3  -5 20972.7 1394.19   5
  -6   3  -6 6883.88 811.617   5
  -6   3  -6 7176.70 727.757  22
  -6   3  -6 5812.17 714.602   6
  -6   3  -7 24686.8 1390.32   6
  -6   3  -7 22412.2 1416.91   5
  -6   3  -8 5821.58 711.944   5
  -6   3  -8 5875.43 613.489   7
  -6   3  -8 5597.23 685.483   6
  -6   3  -9 10598.3 779.404   7
  -6   3  -9 10301.0 855.229   6
  -6   3  -9 10375.9 904.413   5
  -6   3 -10 1148.92 333.082   5
  -6   3 -10 1339.27 288.240   7
  -6   3 -10 985.612 278.310   6
  -6   3 -11 141.118 177.206   5
  -6   3 -11 253.349 129.880   7
  -6   3 -11 208.983 162.207   6
  -6   2  13-331.089 152.493  12
  -6   2  12 6600.13 542.797   4
  -6   2  12 5702.33 560.396  12
  -6   2  11 4433.13 542.287  12
  -6   2  11 4158.41 504.333   4
  -6   2  10 838.600 308.991  12
  -6   2  10 1244.68 334.523   4
  -6   2   9-86.0537 263.262  12
  -6   2   9 462.331 261.090   4
  -6   2   8 1968.20 503.221   6
  -6   2   8 1610.96 415.342   4
   6  -2  -7 27361.8 1446.05  16
  -6   2   7 26997.2 1436.25   4
  -6   2   7 28335.5 1549.93   6
  -6   2   7 29791.9 1427.95  23
   6  -2  -6 35803.3 1612.79  16
  -6   2   6 37888.3 1758.18   6
  -6   2   6 37178.5 1559.91  23
   6  -2  -5 34708.6 1551.29  16
  -6   2   5 38873.5 1743.88   6
  -6   2   5 35279.6 1472.25  23
   6  -2  -4 195.469 204.663  16
  -6   2   4-2.56292 213.484   6
  -6   2   4 153.480 201.996  23
   6  -2  -3 23397.5 1178.11  16
  -6   2   3 25949.0 1163.50  23
   6  -2  -2 51761.0 1675.92  16
  -6   2   1-43.6127 156.631  21
  -6   2   0 6682.76 632.911  21
  -6   2  -1 2056.73 379.489  21
  -6   2  -2 32126.8 1427.43  15
  -6   2  -2 31782.3 1515.70   6
  -6   2  -2 29902.7 1563.44   5
  -6   2  -2 29601.5 1351.59  21
  -6   2  -3 17637.4 1108.47  15
  -6   2  -3 17423.7 1139.17   6
  -6   2  -3 16746.9 1062.09  21
  -6   2  -3 16610.5 1179.89   5
  -6   2  -4-358.022 261.426   5
  -6   2  -4-270.617 190.482  22
  -6   2  -4-92.4851 217.473   6
  -6   2  -4-14.4332 141.211  21
  -6   2  -5 15021.4 1111.88   6
  -6   2  -5 16232.6 1031.84  22
  -6   2  -5 16233.5 1106.86  21
  -6   2  -5 16195.3 1192.19   5
  -6   2  -6 6406.70 769.363   5
  -6   2  -6 7525.24 809.945   6
  -6   2  -7 10968.3 957.313   6
  -6   2  -7 9614.09 929.020   5
  -6   2  -8 276.455 191.762   5
  -6   2  -8 361.015 236.233   7
  -6   2  -8 459.480 308.702   6
  -6   2  -9 1028.08 331.530   5
  -6   2  -9 1196.65 289.253   7
  -6   2  -9 1438.28 352.947   6
  -6   2 -10 3128.60 439.836   5
  -6   2 -10 2603.07 361.954   7
  -6   2 -10 1934.13 373.359   6
  -6   2 -11 7010.47 526.103   7
  -6   2 -11 6031.79 527.953   6
  -6   1  14 9410.30 572.847  12
  -6   1  13 2680.74 381.141  12
  -6   1  12 922.428 296.475  12
  -6   1  12 764.290 222.236   4
  -6   1  11 4624.93 580.329  12
  -6   1  11 4032.43 519.392   4
  -6   1  10 541.106 266.551   4
  -6   1   9 17543.1 1145.70   4
  -6   1   8 9469.14 937.147   6
   6  -1  -7 12960.3 991.385  16
  -6   1   7 10702.9 953.738   6
   6  -1  -6 1700.27 411.084  16
  -6   1   6 2129.30 460.437   6
   6  -1  -5 126904. 2894.46  16
  -6   1   5 124439. 3066.62   6
   6  -1  -4 18234.1 1066.30  16
   6  -1  -3 5604.22 595.173  16
  -6   1   3 6042.60 594.132  26
  -6   1   2 3447.83 444.580  26
  -6   1   1 101.359 151.866  26
  -6   1   0 62190.7 1831.83  21
  -6   1  -1 6838.19 635.229  21
  -6   1  -2 3914.01 571.111   5
  -6   1  -2 3912.06 527.565  15
  -6   1  -2 4152.17 568.330   6
  -6   1  -2 4015.54 524.208  21
  -6   1  -3 11820.6 958.800   6
  -6   1  -3 11728.8 983.411   5
  -6   1  -3 11667.0 890.395  21
  -6   1  -4 1807.49 441.437   5
  -6   1  -4 2054.32 438.732   6
  -6   1  -4 1344.05 354.567  21
  -6   1  -5 10385.1 935.120   6
  -6   1  -5 10042.4 880.343  21
  -6   1  -5 10572.2 947.205   5
  -6   1  -6 97.8878 228.775   5
  -6   1  -6 231.836 268.419   6
  -6   1  -7 12438.0 1026.22   6
  -6   1  -7 13114.4 1027.45   5
  -6   1  -8 5821.15 663.269   5
  -6   1  -8 4753.88 551.132   7
  -6   1  -8 5501.60 674.846   6
  -6   1  -9 20219.4 1043.23   7
  -6   1  -9 18311.0 1118.66   6
  -6   1 -10 1419.55 287.535   7
  -6   1 -10 1650.84 344.662   6
  -6   1 -11 1796.82 262.783   7
  -6   1 -11 1963.10 290.415   6
  -6   0  14 1028.81 254.028  12
  -6   0  13 2054.32 378.306  12
  -6   0  12 8556.36 681.256   4
  -6   0  12 8884.27 779.360  12
  -6   0  11 12660.8 911.067   4
  -6   0  11 14554.1 966.530   1
  -6   0  10 6027.63 646.263   1
  -6   0  10 5440.36 646.688   4
  -6   0   9 7227.89 830.862   6
  -6   0   9 6749.67 720.879  11
   6   0  -8 7274.65 772.531  16
  -6   0   8 6587.93 691.066  11
  -6   0   8 5847.03 746.173   6
   6   0  -7 52252.3 1954.24  16
  -6   0   7 53449.6 1889.40  11
   6   0  -6 6269.57 663.562  16
  -6   0   6 7254.07 757.905   6
  -6   0   6 6088.41 658.340  11
   6   0  -5 1214.89 338.214  16
  -6   0   5 1215.33 357.870   6
  -6   0   4 38629.6 1480.97  26
  -6   0   3 16961.0 979.298  26
  -6   0   2 17507.7 973.706  26
  -6   0   1 689.371 222.252  26
  -6   0   0 756.963 244.061  26
  -6   0   0 601.991 196.233  21
  -6   0  -1-309.526 181.985  21
  -6   0  -2 3263.31 502.066   5
  -6   0  -2 3661.90 492.904  21
  -6   0  -3 10858.7 937.592   6
  -6   0  -3 11335.6 955.868   5
  -6   0  -3 10303.2 850.656  21
  -6   0  -4 3195.81 538.740   5
  -6   0  -4 2980.93 495.187   6
  -6   0  -4 2617.71 443.872  21
  -6   0  -5 1305.77 390.135   6
  -6   0  -6 192.947 286.242   6
  -6   0  -7 52291.9 1778.52   7
  -6   0  -7 48778.9 1957.35   6
  -6   0  -8 234.216 189.443   7
  -6   0  -8 338.944 262.770   6
  -6   0  -9 186.381 159.963   7
  -6   0  -9 6.84409 236.860   6
  -6   0 -10 10704.9 666.490   7
  -6   0 -10 10888.3 746.653   6
  -6   0 -11 20.4926 102.781   6
  -6  -1  15 1608.83 252.184  12
  -6  -1  14 3660.00 446.300  12
  -6  -1  13 335.417 213.841  12
  -6  -1  12 189.662 186.921   1
  -6  -1  11 6321.81 649.363   4
  -6  -1  11 6897.46 691.261   1
  -6  -1  10 26124.8 1347.94   4
  -6  -1  10 24333.5 1345.82  11
  -6  -1  10 26010.5 1323.04   1
  -6  -1   9 13829.4 1111.26   6
  -6  -1   9 14813.7 1055.83  11
   6   1  -8 1142.09 335.708  16
  -6  -1   8 656.642 269.110  11
  -6  -1   8 1138.76 350.556   6
   6   1  -7 1559.19 383.135  16
  -6  -1   7 2383.90 434.890  11
  -6  -1   7 1817.55 401.721   6
   6   1  -6 2293.85 432.293  16
  -6  -1   6 2177.94 416.392  11
  -6  -1   6 1811.73 416.147   6
  -6  -1   5 71760.6 2066.07  26
  -6  -1   4 23120.4 1173.30  26
  -6  -1   3 249.876 197.179  26
  -6  -1   2 529.819 217.485  26
  -6  -1   1 334.585 201.217  26
  -6  -1   0 17515.0 996.906  26
  -6  -1  -1 389.672 214.712  26
  -6  -1  -1 808.617 282.304   6
  -6  -1  -1 920.194 261.891  21
  -6  -1  -2 383.130 206.136  26
  -6  -1  -2 1228.11 335.971  11
  -6  -1  -2 842.114 322.172   6
  -6  -1  -2 1043.54 292.100  21
  -6  -1  -3 38485.2 1618.17  11
  -6  -1  -3 35867.5 1684.20   6
  -6  -1  -3 38603.5 1629.65  21
  -6  -1  -4 765.972 280.652  11
  -6  -1  -4 523.505 298.448   6
  -6  -1  -4 742.102 269.204  21
  -6  -1  -5 9178.17 828.572  11
  -6  -1  -5 9062.54 895.322   6
  -6  -1  -6 14345.9 995.567  11
  -6  -1  -6 16393.0 1166.04   6
  -6  -1  -7 8903.12 735.110   7
  -6  -1  -7 8859.10 765.820  11
  -6  -1  -7 10506.1 909.027   6
  -6  -1  -8 11898.7 805.588   7
  -6  -1  -8 11389.2 900.184   6
  -6  -1  -9 8081.51 617.758   7
  -6  -1  -9 8128.31 689.881   6
  -6  -1 -10 1101.08 254.541   6
  -6  -2  15 503.553 188.591  12
  -6  -2  14 353.431 191.072  12
  -6  -2  13 15081.8 941.242   1
  -6  -2  12 1320.30 354.443   1
  -6  -2  11 26715.0 1315.31   4
  -6  -2  11 26844.6 1374.76   1
  -6  -2  10 4691.94 625.150  11
  -6  -2  10 5147.58 629.358   1
   6   2  -9 22748.7 1334.53  16
  -6  -2   9 21452.2 1333.21   6
  -6  -2   9 21552.4 1288.77  11
   6   2  -8 8686.43 816.522  16
  -6  -2   8 9177.92 841.564  11
  -6  -2   8 9438.18 897.328   6
   6   2  -7 3553.77 535.510  16
  -6  -2   7 3194.73 520.458  11
  -6  -2   7 3763.19 550.568   6
  -6  -2   6 277.983 210.062  26
  -6  -2   6 405.526 246.029  11
  -6  -2   6 669.705 287.433   6
  -6  -2   5 2125.85 418.844  26
  -6  -2   4 25804.4 1249.89  26
  -6  -2   3 4626.93 549.071  26
  -6  -2   2 51568.6 1748.42  26
  -6  -2   1 5269.36 578.980  26
  -6  -2   0 6092.40 621.998  26
  -6  -2   0 6520.72 690.571  11
  -6  -2   0 6067.39 679.796   6
  -6  -2  -1 36163.9 1507.67  26
  -6  -2  -1 35562.8 1568.71  11
  -6  -2  -1 32849.9 1564.43   6
  -6  -2  -2 20927.6 1227.39  11
  -6  -2  -2 23819.6 1243.94  26
  -6  -2  -2 21282.8 1294.94   6
  -6  -2  -2 21621.6 1175.67  21
  -6  -2  -3 5700.75 633.233  26
  -6  -2  -3 5360.06 646.505  11
  -6  -2  -3 4436.51 623.350   6
  -6  -2  -3 4920.31 598.930  21
  -6  -2  -4 7751.53 782.275  11
  -6  -2  -4 6206.10 728.226   6
  -6  -2  -5 10742.8 898.861  11
  -6  -2  -5 10873.0 951.388   6
  -6  -2  -6 6390.53 646.002   7
  -6  -2  -6 7635.71 753.497  11
  -6  -2  -6 6460.64 727.694   6
  -6  -2  -7 36445.0 1440.77   7
  -6  -2  -7 34232.9 1449.06  11
  -6  -2  -7 36768.5 1609.31   6
  -6  -2  -8 196.185 147.714  11
  -6  -2  -8-244.314 241.120   6
  -6  -2  -9 3094.21 356.812  11
  -6  -2  -9 3344.32 428.163   6
  -6  -3  15 10969.6 703.800  12
  -6  -3  14 5043.24 531.649   1
  -6  -3  13 5451.31 592.643   1
  -6  -3  12 1133.01 346.589   1
  -6  -3  11 13750.6 1044.96  11
  -6  -3  11 15159.3 1048.84   1
  -6  -3  10 3379.96 509.277   1
  -6  -3  10 3252.56 535.238  11
  -6  -3  10 2702.97 524.988   6
   6   3  -9 41077.3 1757.10  16
  -6  -3   9 40489.8 1773.46   6
  -6  -3   9 39782.4 1762.13  11
  -6  -3   9 40129.2 1634.06   1
   6   3  -8 9584.06 851.690  16
  -6  -3   8 8542.19 842.201   6
  -6  -3   8 9281.45 850.733  11
  -6  -3   7 1599.46 354.443  26
  -6  -3   7 1694.00 392.434  11
  -6  -3   7 1977.81 425.364   6
  -6  -3   6 30472.8 1471.68  11
  -6  -3   6 30877.1 1484.24   6
  -6  -3   6 33686.3 1483.35  26
  -6  -3   5 14347.9 1004.65  11
  -6  -3   5 13911.9 955.915  26
  -6  -3   4 17730.8 1060.93  26
  -6  -3   3 113.705 176.868  26
  -6  -3   2 21441.1 1163.74  26
  -6  -3   1 44761.7 1763.16  11
  -6  -3   1 42595.9 1643.40  26
  -6  -3   1 44996.3 1766.06   6
  -6  -3   0 41579.6 1721.37  11
  -6  -3   0 44210.3 1690.24  26
  -6  -3   0 41151.0 1719.92   6
  -6  -3  -1 22315.3 1294.82  11
  -6  -3  -1 23893.5 1272.22  26
  -6  -3  -1 23358.1 1332.14   6
  -6  -3  -2 9008.18 803.659  26
  -6  -3  -2 7964.97 783.597  11
  -6  -3  -2 9576.22 873.636   6
  -6  -3  -3 33596.6 1614.97  11
  -6  -3  -3 33692.0 1625.17   6
  -6  -3  -4 4864.81 637.705  11
  -6  -3  -4 5205.66 681.285   6
  -6  -3  -5 23881.3 1328.41  11
  -6  -3  -5 24170.9 1361.90   6
  -6  -3  -6 9006.93 791.073  11
  -6  -3  -6 9793.63 846.998   6
  -6  -3  -7 3096.98 464.859  11
  -6  -3  -7 2600.36 444.711   6
  -6  -3  -8 10716.0 716.625  11
  -6  -3  -8 10187.3 725.575   6
  -6  -3  -9 3132.41 352.715   6
  -6  -4  15 1267.58 263.385   1
  -6  -4  14 283.348 202.460   1
  -6  -4  13 13036.2 913.780   1
  -6  -4  12-157.520 281.625  11
  -6  -4  12-77.8805 211.877   1
  -6  -4  11 27883.6 1471.75  11
  -6  -4  11 28656.1 1428.47   1
  -6  -4  10 5133.78 624.288   1
  -6  -4  10 4300.27 628.863  11
  -6  -4  10 4964.55 632.659   6
   6   4  -9 3118.14 509.613  16
  -6  -4   9 3230.10 500.041   1
  -6  -4   9 3901.85 581.324  11
  -6  -4   9 3263.61 531.087   6
   6   4  -8 28247.2 1452.13  16
  -6  -4   8 26984.7 1403.76   6
  -6  -4   8 28752.0 1485.58  11
  -6  -4   8 32771.8 1517.49  26
  -6  -4   7 4758.95 585.144  26
  -6  -4   7 4139.88 590.473  11
  -6  -4   7 4000.13 569.537   6
  -6  -4   6 3778.89 534.495  26
  -6  -4   6 3802.06 550.475  11
  -6  -4   6 4514.13 590.161   6
  -6  -4   5-139.509 268.490  26
  -6  -4   5 112.472 191.204  11
  -6  -4   4 43258.1 1682.71  26
  -6  -4   4 44614.9 1778.31  11
  -6  -4   3 12019.5 903.659  26
  -6  -4   3 12368.2 930.598   6
  -6  -4   3 11440.6 904.865  11
  -6  -4   2 40867.6 1718.16  11
  -6  -4   2 40504.9 1643.73  26
  -6  -4   2 42191.2 1686.14   6
  -6  -4   1 2497.11 460.934  26
  -6  -4   1 2812.95 499.362  11
  -6  -4   1 2930.17 466.221   6
  -6  -4   0 4482.64 590.587  26
  -6  -4   0 3272.13 531.311  11
  -6  -4   0 4257.29 573.423   6
  -6  -4  -1 16759.6 1151.24  11
  -6  -4  -1 18858.6 1166.25  26
  -6  -4  -1 19238.8 1201.31   6
  -6  -4  -2 9620.53 893.163  11
  -6  -4  -2 10238.8 892.402   6
  -6  -4  -3 15082.9 1110.79  11
  -6  -4  -3 15706.0 1099.20   6
  -6  -4  -4 4161.44 597.402  11
  -6  -4  -4 5443.97 649.681   6
  -6  -4  -5 13143.3 988.358  11
  -6  -4  -5 14942.3 1021.12   6
  -6  -4  -6 18345.6 1081.20  11
  -6  -4  -6 18024.0 1062.71   6
  -6  -4  -7 719.092 250.693  11
  -6  -4  -7 444.894 206.503   6
  -6  -4  -8 50.4442 112.962  11
  -6  -4  -8-10.5041 141.834   6
  -6  -5  16 1256.18 228.434  12
  -6  -5  15 11258.6 725.108   1
  -6  -5  14 4813.94 539.057   1
  -6  -5  13 7113.39 698.166   1
  -6  -5  12 3900.68 552.293   1
  -6  -5  12 4257.15 598.951  11
  -6  -5  11 2741.03 490.891   1
  -6  -5  11 3056.94 521.747  11
  -6  -5  10 13681.2 1000.05   1
  -6  -5  10 12718.7 1026.46  11
  -6  -5   9 10071.8 848.446   1
  -6  -5   9 10556.6 947.053  11
  -6  -5   8 5103.01 619.768  26
  -6  -5   8 3942.51 565.954  11
  -6  -5   7 10074.2 893.563  11
  -6  -5   7 10776.3 876.300  26
   6   5  -6 31206.8 1431.59   2
  -6  -5   6 31209.4 1530.34  11
  -6  -5   6 30063.7 1445.85  26
   6   5  -5-85.3735 143.733   2
  -6  -5   5 174.131 213.158  26
  -6  -5   5 182.243 187.972  11
  -6  -5   4 30392.5 1504.22  11
  -6  -5   4 31097.0 1469.05  26
  -6  -5   3 1976.46 425.124  26
  -6  -5   3 2018.15 426.037  11
  -6  -5   2 645.663 303.567  26
  -6  -5   2 876.197 402.932  11
  -6  -5   1 41801.1 1802.74  11
  -6  -5   1 42944.6 1745.88  26
  -6  -5   0 14113.2 1075.10  11
  -6  -5   0 13422.2 1008.80  26
  -6  -5   0 14962.8 1021.91   6
  -6  -5  -1 26064.8 1450.22  11
  -6  -5  -1 27560.3 1393.48   6
  -6  -5  -2 1025.41 377.161  11
  -6  -5  -2 958.514 339.583   6
  -6  -5  -3 307.278 307.126  11
  -6  -5  -3 658.657 279.802   6
  -6  -5  -4 2035.42 452.225  11
  -6  -5  -4 2059.32 403.936   6
  -6  -5  -5 12156.2 916.241  11
  -6  -5  -5 13919.4 911.991   6
  -6  -5  -6 265.110 222.129  11
  -6  -5  -6-474.227 209.220   6
  -6  -5  -7 2316.56 338.413  11
  -6  -5  -7 1808.38 276.054   6
  -6  -6  16 1355.10 236.894   1
  -6  -6  15 4347.30 470.696   1
  -6  -6  14 16.0450 205.858   1
  -6  -6  13 16737.0 1046.46   1
  -6  -6  12 2031.78 432.286   1
  -6  -6  12 2501.92 482.762  11
  -6  -6  11 12937.0 979.603   1
  -6  -6  11 13272.4 1029.71  11
  -6  -6  10 731.201 280.185   1
  -6  -6  10 1371.82 381.653  11
  -6  -6   9 5440.54 670.291  11
  -6  -6   9 5840.14 661.006   1
  -6  -6   8 11130.4 881.477   1
  -6  -6   8 10545.6 928.951  11
  -6  -6   8 11124.8 893.133  26
   6   6  -7 19888.4 1184.08   2
  -6  -6   7 18322.0 1196.74  11
  -6  -6   7 16787.3 1093.30  26
   6   6  -6 7707.05 753.162   2
  -6  -6   6 9152.64 854.237  11
  -6  -6   6 9652.27 829.571  26
   6   6  -5-11.4546 125.293   2
  -6  -6   5 99.6882 187.731  26
  -6  -6   5-50.8034 253.225  11
   6   6  -4 16788.5 1045.16   2
  -6  -6   4 18775.5 1209.89  11
  -6  -6   4 18218.1 1149.43  26
  -6  -6   3 53647.3 2051.67  11
  -6  -6   3 55450.4 1995.26  26
  -6  -6   2 1189.46 344.746  26
  -6  -6   2 1818.75 441.378  11
  -6  -6   1-334.261 209.740  26
  -6  -6   1 52.8354 216.184  11
  -6  -6   0 4239.58 611.957  11
  -6  -6  -1 1622.17 437.778  11
  -6  -6  -2-108.654 331.242  11
  -6  -6  -3 14772.4 1078.00  11
  -6  -6  -4 5337.08 641.063  11
  -6  -6  -5 2164.73 401.070  11
  -6  -6  -6 8344.46 635.890  11
  -6  -6  -7 1245.88 212.982  11
  -6  -7  16 426.456 156.475   1
  -6  -7  15 4658.11 485.815   1
  -6  -7  14 867.527 270.537   1
  -6  -7  13 464.930 245.130   1
  -6  -7  13 800.339 286.576  11
  -6  -7  12 3571.75 524.426   1
  -6  -7  12 3786.31 537.242  11
  -6  -7  11 45.5871 223.363   1
  -6  -7  11 14.6031 244.706  11
  -6  -7  10 67805.2 2208.15   1
  -6  -7  10 65521.3 2231.82  11
  -6  -7   9 1870.78 444.214  11
  -6  -7   9 2411.04 466.669   1
  -6  -7   8 1374.73 374.353   1
   6   7  -8 588.634 283.472   2
  -6  -7   8 1334.63 379.348  11
   6   7  -7 2714.01 476.030   2
  -6  -7   7 1667.71 396.409  11
   6   7  -6 12533.6 964.799   2
  -6  -7   6 11343.8 958.532  11
  -6  -7   6 10962.9 898.899  26
   6   7  -5 6224.90 687.812   2
  -6  -7   5 6259.21 679.843  26
  -6  -7   5 6066.82 717.242  11
   6   7  -4 9266.70 801.630   2
  -6  -7   4 9821.64 896.376  11
  -6  -7   4 8663.86 807.110  26
   6   7  -3 2424.92 418.327   2
  -6  -7   3 2322.33 444.522  11
  -6  -7   2-202.766 215.255  11
  -6  -7   1-64.2726 224.729  11
  -6  -7   0 1132.23 390.310  11
  -6  -7  -1 1966.09 426.496  11
  -6  -7  -2 1782.22 442.134  11
  -6  -7  -3 5399.16 635.861  11
  -6  -7  -4 2173.87 395.468  11
  -6  -7  -5 671.809 226.214  11
  -6  -7  -6-23.5547 99.1545  11
  -6  -8  16 1585.42 248.489   1
  -6  -8  15 767.029 225.931   1
  -6  -8  14-2.80094 148.544   1
  -6  -8  13 1194.26 349.681   1
  -6  -8  13 893.588 277.284  11
  -6  -8  12 24661.1 1291.58   1
  -6  -8  12 25832.1 1333.86  11
  -6  -8  11 1017.24 336.992   1
  -6  -8  11 94.3463 258.413  11
  -6  -8  10 13391.8 1001.88   1
  -6  -8  10 13252.2 1006.63  11
  -6  -8   9 518.122 280.446   1
  -6  -8   9-301.662 248.293  11
   6   8  -8 30757.2 1508.74   2
  -6  -8   8 31712.4 1497.42   1
  -6  -8   8 29279.0 1494.19  11
   6   8  -7 133.965 223.245   2
  -6  -8   7 859.353 321.322  11
  -6  -8   7 569.313 254.455   1
   6   8  -6 31846.8 1517.39   2
  -6  -8   6 32700.3 1590.33  11
   6   8  -5 636.416 283.726   2
  -6  -8   5 1054.32 338.335  11
   6   8  -4 22060.8 1241.98   2
  -6  -8   4 20627.2 1269.58  11
   6   8  -3 14552.6 997.053   2
  -6  -8   3 14186.5 1058.72  11
   6   8  -2 38783.2 1583.57   2
  -6  -8   2 39943.4 1757.64  11
  -6  -8   1 23526.6 1347.96  11
  -6  -8   0 568.215 284.106  11
  -6  -8  -1 16549.7 1098.01  11
  -6  -8  -2 2080.10 436.182  11
  -6  -8  -3 124.312 180.835  11
  -6  -8  -4 1696.52 318.906  11
  -6  -8  -5 121.132 115.943  11
  -6  -9  15 17164.4 859.022   1
  -6  -9  14 86.3359 164.961   1
  -6  -9  13 398.570 226.294   1
  -6  -9  13 26.6302 189.951  11
  -6  -9  12 138.719 218.558   1
  -6  -9  12 31.2301 196.618  11
  -6  -9  11 1019.72 312.923  11
  -6  -9  11 276.345 232.153   1
  -6  -9  10 36514.0 1604.01   1
  -6  -9  10 38092.6 1622.74  11
  -6  -9   9-60.7143 219.407   1
  -6  -9   9 163.246 224.322  11
   6   9  -8 4848.90 622.357   2
  -6  -9   8 4401.97 586.706   1
  -6  -9   8 4201.54 583.078  11
   6   9  -7 358.272 260.469   2
  -6  -9   7 373.970 263.721  11
  -6  -9   7 198.008 210.600   1
   6   9  -6 34852.3 1579.24   2
  -6  -9   6 36078.7 1542.39   1
  -6  -9   6 35755.7 1638.87  11
   6   9  -5 26422.9 1373.61   2
  -6  -9   5 23758.2 1335.24  11
   6   9  -4 31638.2 1482.35   2
  -6  -9   4 34583.1 1600.32  11
   6   9  -3 1378.70 356.154   2
  -6  -9   3 1413.61 396.375  11
   6   9  -2 1131.08 280.837   2
  -6  -9   2 1034.93 344.425  11
   6   9  -1 14256.6 910.338   2
  -6  -9   1 14205.6 1005.32  11
  -6  -9   0 5893.27 652.889  11
  -6  -9  -1 1892.05 387.626  11
  -6  -9  -2 331.791 217.417  11
  -6  -9  -3 11352.2 703.193  11
  -6 -10  15 1157.90 238.323   1
  -6 -10  14 1369.06 294.089   1
  -6 -10  13 1946.28 358.340   1
  -6 -10  13 2086.11 346.805  11
  -6 -10  12 21906.7 1152.71   1
  -6 -10  12 21121.7 1085.00  11
  -6 -10  11 6520.05 653.485   1
  -6 -10  11 5090.73 574.347  11
  -6 -10  10 6796.69 689.048   1
  -6 -10  10 6796.22 677.152  11
   6  10  -9 8241.47 788.904   2
  -6 -10   9 8023.61 761.547   1
  -6 -10   9 9548.20 804.201  11
   6  10  -8 30708.2 1478.24   2
  -6 -10   8 28649.7 1392.74   1
  -6 -10   8 29311.4 1409.66  11
   6  10  -7 19369.9 1183.47   2
  -6 -10   7 22672.2 1241.74   1
  -6 -10   7 21405.1 1215.37  11
   6  10  -6 350.547 241.615   2
  -6 -10   6 208.198 193.039   1
  -6 -10   6 918.110 312.909  11
  -6 -10   5 1993.88 386.043   1
   6  10  -5 1637.01 380.085   2
  -6 -10   5 1326.71 356.006  11
   6  10  -4 2746.05 450.276   2
  -6 -10   4 2073.11 402.800  11
   6  10  -3 34937.0 1478.38   2
  -6 -10   3 37491.6 1572.55  11
   6  10  -2 388.509 226.783   2
  -6 -10   2 1222.38 367.003  11
   6  10  -1 122.793 134.108   2
  -6 -10   1 13.1773 202.433  11
  -6 -10   0 3650.69 465.813  11
  -6 -10  -1 13274.0 793.980  11
  -6 -10  -2 4784.17 438.765  11
  -6 -11  15 7877.39 520.205   1
  -6 -11  14 4955.64 464.129   1
  -6 -11  13 2515.97 382.590   1
  -6 -11  12 964.728 239.634  11
  -6 -11  12 281.751 181.781   1
  -6 -11  11 106.308 159.160  11
  -6 -11  11 197.333 188.553   1
  -6 -11  10 25768.6 1256.64   1
  -6 -11  10 29651.6 1272.71  11
   6  11  -9 2556.42 447.918   2
  -6 -11   9 2781.55 430.255   1
  -6 -11   9 2528.01 415.554  11
   6  11  -8 25.4065 239.880   2
  -6 -11   8-68.8772 234.668  11
  -6 -11   8-29.4314 160.924   1
  -6 -11   7 952.065 292.916   1
   6  11  -7 989.667 316.176   2
  -6 -11   7 1576.87 348.718  11
   6  11  -6 11707.3 875.817   2
  -6 -11   6 10468.0 789.167   1
   6  11  -5 9674.22 793.674   2
  -6 -11   5 8634.32 709.544   1
  -6 -11   5 8927.15 741.999  11
   6  11  -4 9743.58 772.538   2
  -6 -11   4 10306.5 789.701  11
   6  11  -3 208.315 155.043   2
  -6 -11   3-4.70642 143.758  11
   6  11  -2 407.961 184.866   2
  -6 -11   2 655.192 230.273  11
   6  11  -1 8273.44 588.898   2
  -6 -11   1 8995.05 651.962  11
  -6 -11   0 2288.02 319.530  11
  -6 -12  14 1016.43 208.596   1
  -6 -12  13 4329.48 446.422   1
  -6 -12  12 23223.9 1051.44   1
   6  12 -12 23615.3 1090.96  14
  -6 -12  11 927.493 258.439   1
  -6 -12  10 427.477 241.614   1
   6  12  -9 2252.46 396.819   2
  -6 -12   9 2548.87 404.017   1
   6  12  -8 9280.54 754.429   2
  -6 -12   8 8242.28 683.260   1
   6  12  -7 3566.21 495.341   2
  -6 -12   7 4291.43 504.229   1
  -6 -12   6 1944.72 347.746   1
   6  12  -6 2373.79 399.172   2
  -6 -12   6 2710.33 374.003  11
   6  12  -5 3182.75 441.599   2
  -6 -12   5 2541.39 363.939   1
  -6 -12   5 3149.65 402.671  11
   6  12  -4 417.534 217.199   2
  -6 -12   4 19.6512 116.117  11
   6  12  -3 23186.6 1021.14   2
  -6 -12   3 21660.8 928.470  11
   6  12  -2 3377.54 372.304   2
  -6 -12   2 3658.80 371.215  11
  -6 -13  13 480.325 148.593   1
   6  13 -12 22.4072 165.204  14
  -6 -13  12 233.083 136.445   1
   6  13 -11 207.286 178.349  14
  -6 -13  11 438.861 183.615   1
  -6 -13  10 3410.11 414.037   1
  -6 -13   9-190.714 138.531   1
   6  13  -8 603.749 223.971   2
  -6 -13   8 753.332 203.305   1
   6  13  -7 1005.98 269.981   2
  -6 -13   7 1075.68 239.291   1
  -6 -13   6 238.004 148.096   1
   6  13  -6 303.190 193.833   2
   6  13  -5 19729.6 923.453   2
  -6 -13   5 18589.1 821.706   1
   6  13  -4 2376.81 322.043   2
   6  13  -3 69.7517 100.380   2
  -6 -14  11 1767.71 246.317   1
   6  14 -10-131.292 149.173  14
  -6 -14  10-163.519 118.174   1
  -6 -14   9 196.660 104.423   1
   6  14  -8 5529.04 450.755   2
  -6 -14   8 4619.49 401.801   1
   6  14  -7 4865.38 422.287   2
   6  14  -6 666.474 172.017   2
  -7  12   0 277.045 148.062  15
  -7  12  -1 3322.88 360.912  15
  -7  12  -2 4571.59 432.435  15
  -7  12  -3 1490.00 281.530  15
  -7  12  -4 805.588 213.197  15
  -7  12  -4 448.163 158.240  22
  -7  12  -5-201.542 126.412  22
  -7  12  -6 5484.84 437.665  22
  -7  12  -7 15.9892 106.934  22
  -7  11   3 664.916 178.656  15
  -7  11   2 4524.44 432.882  15
  -7  11   1 308.443 193.413  15
  -7  11   0 614.730 224.617  15
  -7  11  -1 2582.21 388.999  15
  -7  11  -2 360.587 202.576  15
  -7  11  -3 662.939 245.710  15
  -7  11  -3 362.979 168.537  22
  -7  11  -4 5530.06 530.721  15
  -7  11  -4 5441.83 491.740  22
  -7  11  -5 303.949 180.385  15
  -7  11  -5 44.2189 141.721  22
  -7  11  -6 2167.75 316.283  22
  -7  11  -7 473.451 185.285  22
  -7  11  -8 755.592 199.740  22
  -7  10   4 374.864 172.804  15
  -7  10   4 472.092 150.203   4
  -7  10   3 11749.6 731.357  15
  -7  10   3 11610.9 657.677   4
  -7  10   2 2117.48 367.124  15
  -7  10   1 113.176 223.037  15
  -7  10   0 109.004 214.090  15
  -7  10  -1 3757.93 511.663  15
  -7  10  -2 5948.00 623.443  15
  -7  10  -2 3507.87 575.731   3
  -7  10  -3 866.033 318.338  15
  -7  10  -3 292.627 174.777  22
  -7  10  -3 200.656 249.198   3
  -7  10  -4 152.943 187.780  15
  -7  10  -4-339.479 210.110  22
  -7  10  -4 121.509 260.664   3
  -7  10  -5 1041.86 301.130  15
  -7  10  -5 862.926 247.620  22
  -7  10  -5 587.281 308.762   3
  -7  10  -6 2108.82 335.927  22
  -7  10  -6 1962.82 415.746   3
  -7  10  -7 95.8048 154.724  22
  -7  10  -7 113.120 202.624   3
  -7  10  -8 581.850 210.317  22
  -7  10  -8 651.599 248.107   3
  -7  10  -9-17.9324 118.376  22
  -7   9   6 78.0487 103.644  15
  -7   9   6 158.187 105.820   4
  -7   9   5 7357.64 559.788  15
  -7   9   5 7251.42 553.267   4
  -7   9   4 3529.13 442.821  15
  -7   9   4 2650.36 363.110   4
  -7   9   3 595.148 239.387  15
  -7   9   3 1115.62 257.935   4
  -7   9   2 1079.71 321.664  15
  -7   9   1 13952.8 962.741  15
  -7   9   0 500.861 279.227  15
  -7   9   0 489.220 244.409   3
  -7   9  -1 7069.24 713.890  15
  -7   9  -1 3768.61 612.341   3
  -7   9  -2 78.4167 234.709  15
  -7   9  -2-335.011 283.728   3
  -7   9  -3 43.7910 255.417  15
  -7   9  -3-79.3068 240.634   3
  -7   9  -4 12155.9 899.239  15
  -7   9  -4 9946.08 745.683  22
  -7   9  -4 9599.43 917.412   3
  -7   9  -5 65.4476 229.413  15
  -7   9  -5 180.333 173.108  22
  -7   9  -5 103.384 235.436   3
  -7   9  -6 398.165 190.399  22
  -7   9  -6 520.491 255.229   3
  -7   9  -7 188.728 198.194  22
  -7   9  -7 39.2927 178.758   3
  -7   9  -8 6743.89 619.840   3
  -7   9  -8 8627.94 638.803  22
  -7   9  -9 1081.40 244.395  22
  -7   8   7 2493.11 301.580  15
  -7   8   7 2113.87 299.837   4
  -7   8   6 1276.04 277.797  15
  -7   8   6 652.153 220.050   4
  -7   8   5 463.687 209.723  15
  -7   8   5 169.469 167.300   4
  -7   8   4 731.162 256.944  15
  -7   8   4 347.530 188.938   4
  -7   8   3 19217.0 1111.37  15
  -7   8   3 18553.0 1028.66   4
  -7   8   2 3407.67 514.455  15
  -7   8   2 2901.19 417.120   4
  -7   8   1-355.343 278.201  15
  -7   8   1-525.092 300.751   3
  -7   8   0 3628.84 548.090  15
  -7   8   0 3087.64 555.535   3
  -7   8  -1 5785.56 677.046  15
  -7   8  -1 5585.29 727.949   3
  -7   8  -2 18262.5 1161.49  15
  -7   8  -2 13410.3 1140.29   3
  -7   8  -3 2901.45 565.735   3
  -7   8  -3 2899.41 513.643  15
  -7   8  -4 877.481 379.716   3
  -7   8  -4 946.479 331.702  15
  -7   8  -4 845.805 280.311  22
  -7   8  -5 88.8919 221.289   3
  -7   8  -5 916.126 333.766  15
  -7   8  -5 663.454 253.935  22
  -7   8  -6 13266.3 870.701  22
  -7   8  -6 11643.7 968.883   3
  -7   8  -6 14249.9 1059.19   5
  -7   8  -7 176.375 224.800   5
  -7   8  -7 264.637 213.959  22
  -7   8  -7 274.718 235.006   3
  -7   8  -8 1743.34 376.560   5
  -7   8  -8 2047.98 348.360  22
  -7   8  -8 895.772 279.674   3
  -7   8  -9 831.530 293.271   5
  -7   8 -10 1188.38 269.674   5
  -7   7   8-161.714 136.561   4
  -7   7   7-82.9046 139.533  15
  -7   7   7-304.636 190.328   4
  -7   7   6-319.716 202.916  15
  -7   7   6-459.820 225.537   4
  -7   7   5 12841.8 861.762  15
  -7   7   5 13155.8 894.919   4
  -7   7   4 3808.06 523.231  15
  -7   7   4 4090.17 535.766   4
  -7   7   3 134.926 227.036  15
  -7   7   3 497.646 245.766   4
  -7   7   2 675.183 307.250  15
  -7   7   2 1155.87 329.296   4
  -7   7   2 1331.03 418.207   3
  -7   7   1 19047.0 1186.90  15
  -7   7   1 19685.0 1297.46   3
  -7   7   0 6760.22 810.210   3
  -7   7   0 8205.17 807.301  15
  -7   7  -1 768.440 388.547   3
  -7   7  -1 1251.26 373.147  15
  -7   7  -2 5163.83 737.625   3
  -7   7  -2 7123.25 751.074  15
  -7   7  -3 197.683 261.089   3
  -7   7  -3 169.426 253.863  15
  -7   7  -4 10095.5 882.424  15
  -7   7  -4 10356.4 786.663  22
  -7   7  -4 8842.68 932.548   3
  -7   7  -5 1362.50 430.553   5
  -7   7  -5 1622.57 446.024   3
  -7   7  -5 1361.11 351.656  15
  -7   7  -5 1383.78 317.500  22
  -7   7  -6-352.728 285.656   5
  -7   7  -6 346.318 256.878   3
  -7   7  -6 182.938 194.364  22
  -7   7  -7 602.114 259.285   3
  -7   7  -7 432.825 287.524   5
  -7   7  -7 885.340 280.279  22
  -7   7  -8 76.2361 198.367   3
  -7   7  -8 23.5700 218.303   5
  -7   7  -8 5.66255 200.879  22
  -7   7  -9 11112.8 838.107   5
  -7   7 -10 5086.37 515.317   5
  -7   6   9 1353.53 260.305   4
  -7   6   8 6611.74 508.479  15
  -7   6   8 6243.76 569.713   4
  -7   6   7 12499.0 775.692  15
  -7   6   7 14631.4 921.889   4
  -7   6   6 806.675 267.520  15
  -7   6   6 714.389 284.828   4
  -7   6   5 1259.03 344.773  15
  -7   6   5 1365.16 344.430   4
  -7   6   4 574.809 281.348  15
  -7   6   4 358.444 249.592   4
  -7   6   4 620.126 281.507   6
  -7   6   3 9546.63 837.801  15
  -7   6   3 11278.9 873.963   4
  -7   6   3 9969.59 846.064   6
  -7   6   2 2149.38 444.363  15
  -7   6   2 2103.32 414.934   4
  -7   6   2 2769.38 490.896   6
  -7   6   2 1384.31 420.034   3
  -7   6   1 455.094 293.259   3
  -7   6   1 458.700 243.100  15
  -7   6   0 20107.3 1227.77  15
  -7   6   0 16740.0 1272.16   3
  -7   6  -1-341.132 240.115  15
  -7   6  -2 21089.3 1262.03  15
  -7   6  -3 355.931 274.258  15
  -7   6  -4 1235.22 423.701   5
  -7   6  -4 1387.54 413.143  15
  -7   6  -5 885.529 390.988   5
  -7   6  -5 1245.71 311.000  22
  -7   6  -6 10518.0 797.260  22
  -7   6  -6 9880.69 955.974   5
  -7   6  -7 10204.0 773.491  22
  -7   6  -7 9247.89 839.417   3
  -7   6  -7 10021.9 941.890   5
  -7   6  -8 108.190 283.880   5
  -7   6  -9 844.493 300.024   5
  -7   6 -10-80.9857 208.241   5
  -7   5  10 12098.5 661.150   4
  -7   5   9 6910.97 591.137   4
  -7   5   8 429.919 241.893   4
  -7   5   7 1550.72 299.066  15
  -7   5   7 2618.92 470.194   4
  -7   5   6 172.584 174.400  15
  -7   5   6 427.632 284.648   4
  -7   5   5 29991.7 1385.44  15
  -7   5   5 29000.1 1431.11   4
  -7   5   5 28938.7 1460.08   6
  -7   5   4 400.883 281.613   6
  -7   5   4 981.827 348.990   4
  -7   5   3 16995.7 1103.25  15
  -7   5   3 18132.6 1131.03   4
  -7   5   3 18736.9 1200.24   6
  -7   5   2 991.645 374.057   3
  -7   5   2 907.180 334.270  15
  -7   5   2 1465.93 394.046   6
  -7   5   2 918.628 307.013   4
  -7   5   1 867.544 328.437  15
  -7   5   1 902.770 337.594   6
  -7   5   0 23877.4 1329.95  15
  -7   5   0 25091.4 1372.05   6
  -7   5  -1-14.4850 221.510  15
  -7   5  -1-157.862 309.850   6
  -7   5  -2 1881.05 439.585  15
  -7   5  -2 1331.89 376.386   6
  -7   5  -3-230.677 353.409   5
  -7   5  -3-206.848 240.294  15
  -7   5  -3-219.920 213.554   6
  -7   5  -4 13897.8 1025.99  15
  -7   5  -4 12555.0 964.258   6
  -7   5  -4 13094.8 1114.34   5
  -7   5  -5 17279.8 1095.55   6
  -7   5  -5 15507.9 968.210  22
  -7   5  -5 15131.9 1188.95   5
  -7   5  -6 2212.86 510.558   5
  -7   5  -6 3192.03 465.333  22
  -7   5  -6 2170.76 423.152   6
  -7   5  -7 670.733 359.212   5
  -7   5  -7 1046.66 277.438   6
  -7   5  -8 4151.56 602.891   5
  -7   5  -8 4143.58 484.882   6
  -7   5  -9 6210.04 648.035   5
  -7   5 -10 2353.17 374.636   5
  -7   4  10 112.956 168.091   4
  -7   4   9 2182.23 380.313   4
  -7   4   8-99.2625 235.149   4
  -7   4   7 5877.46 671.688   4
  -7   4   6 264.789 167.665  15
  -7   4   6 277.616 308.098   6
  -7   4   6 264.054 240.411   4
  -7   4   5 943.732 272.427  15
  -7   4   5 1369.56 405.620   6
  -7   4   5 1275.16 394.928   4
  -7   4   4 109.545 179.886  15
  -7   4   4 397.600 291.957   6
  -7   4   4 327.721 271.010   4
  -7   4   3 5188.81 632.702  15
  -7   4   3 4761.90 652.214   6
  -7   4   3 5121.37 629.424   4
  -7   4   2 2367.55 436.278  15
  -7   4   2 3375.43 558.104   6
  -7   4   2 2231.79 390.883   4
  -7   4   1 2613.79 484.267  15
  -7   4   1 2485.96 482.676   6
  -7   4   0 3726.01 531.227  15
  -7   4   0 3530.66 514.351   6
  -7   4  -1 1041.09 333.489  15
  -7   4  -1-193.421 216.126   6
  -7   4  -2 25591.6 1368.89  15
  -7   4  -2 24090.6 1368.92   6
  -7   4  -3 7027.97 832.885   5
  -7   4  -3 8578.53 819.714  15
  -7   4  -3 7386.71 776.407   6
  -7   4  -4 294.430 277.741   5
  -7   4  -4 760.456 308.471   6
  -7   4  -5 2810.05 571.255   5
  -7   4  -5 2508.77 425.590  22
  -7   4  -5 2327.14 459.633   6
  -7   4  -6 465.812 316.219   5
  -7   4  -6 93.2142 217.185   6
  -7   4  -7 13827.3 945.784   6
  -7   4  -7 9777.76 915.462   5
  -7   4  -8 4889.83 625.221   5
  -7   4  -8 5120.81 555.024   6
  -7   4  -9 6244.94 552.562   6
  -7   4  -9 6886.21 649.950   5
  -7   4 -10 1364.06 283.608   5
  -7   4 -10 849.477 184.998   6
  -7   3  11-127.446 175.608   4
  -7   3  10 3777.05 465.921   4
  -7   3   9 13218.0 920.937   4
  -7   3   8 3298.56 525.656   4
  -7   3   7 2.68860 291.152   6
  -7   3   7 339.101 281.860   4
  -7   3   6 388.074 295.310   6
  -7   3   6 45.7896 262.475   4
  -7   3   5 30176.8 1503.99   4
  -7   3   5 27034.3 1497.80   6
  -7   3   4 134.576 181.868  15
  -7   3   4 260.171 291.142   6
  -7   3   3 30973.2 1429.01  15
  -7   3   3 31421.9 1607.58   6
  -7   3   2 22132.3 1228.13  15
  -7   3   2 20215.4 1280.94   6
  -7   3   1-371.490 213.801  15
  -7   3   1-264.946 278.210   6
  -7   3   0 29901.1 1455.86  15
  -7   3   0 32334.4 1619.11   6
  -7   3  -1 470.723 240.908  15
  -7   3  -1 330.234 270.982   6
  -7   3  -1 311.210 251.169  21
  -7   3  -2 472.079 363.872   5
  -7   3  -2 367.851 238.467  15
  -7   3  -2 584.218 307.308   6
  -7   3  -3 513.765 305.541   5
  -7   3  -3-171.520 236.949   6
  -7   3  -4 11126.5 946.101   6
  -7   3  -4 10616.3 1005.88   5
  -7   3  -5 32579.9 1584.24   6
  -7   3  -5 33361.7 1711.66   5
  -7   3  -6 688.062 311.810   5
  -7   3  -6 926.131 338.171   6
  -7   3  -7-71.9173 245.791   5
  -7   3  -7-17.5307 176.523   6
  -7   3  -8 859.643 300.044   5
  -7   3  -8 1211.84 317.078   6
  -7   3  -9 9854.56 693.822   6
  -7   3  -9 9061.35 701.281   5
  -7   3 -10 315.339 151.635   6
  -7   2  11 800.908 198.823  12
  -7   2  11 672.875 237.983   4
  -7   2  10-25.5527 181.269   4
  -7   2   9 683.339 309.358   4
  -7   2   8 743.213 349.448   6
  -7   2   8 1446.70 371.389   4
  -7   2   7 11010.8 919.725   4
  -7   2   7 9821.49 931.528   6
  -7   2   6 24.2084 261.958   6
  -7   2   5 16985.7 1219.45   6
  -7   2   4 4017.67 616.970   6
  -7   2   3 21354.1 1339.86   6
  -7   2   2 54322.4 1859.51  15
  -7   2   2 52854.3 2076.31   6
  -7   2   1 357.842 216.860  15
  -7   2   1-295.380 301.931   6
  -7   2   0 5840.84 652.010  15
  -7   2   0 4875.27 672.745   6
  -7   2  -1 3738.07 543.259  15
  -7   2  -1 3578.85 593.482   6
  -7   2  -2 22767.6 1287.63  15
  -7   2  -2 24114.0 1403.29   6
  -7   2  -2 22750.1 1436.25   5
  -7   2  -3 5537.55 727.329   5
  -7   2  -3 4946.22 678.133   6
  -7   2  -4 5809.15 754.227   5
  -7   2  -4 5157.61 671.809   6
  -7   2  -5 936.065 363.793   5
  -7   2  -5 344.563 289.843   6
  -7   2  -6 1010.00 342.140   5
  -7   2  -6 832.856 354.070   6
  -7   2  -7 10780.8 865.690   6
  -7   2  -7 9225.65 811.741   5
  -7   2  -8 64.6682 205.588   5
  -7   2  -8-170.947 181.015   6
  -7   2  -9 1907.34 331.871   6
  -7   1  12-34.7821 89.3273  12
  -7   1  12-245.252 140.236   4
  -7   1  11 723.836 217.236  12
  -7   1  11 417.111 208.227   4
  -7   1  10 434.295 152.474  12
  -7   1  10 114.273 194.542   4
  -7   1   9 16786.3 1083.01   4
  -7   1   8 687.230 323.838   6
  -7   1   8 618.408 321.022   4
  -7   1   7 299.646 296.305   6
  -7   1   6 46164.1 1982.85   6
  -7   1   5 554.162 333.394   6
   7  -1  -4 9103.37 806.907  16
  -7   1   4 9420.56 910.826   6
   7  -1  -3 245.222 191.450  16
  -7   1   3 728.506 352.297   6
  -7   1   2 3211.26 553.870   6
  -7   1   1 97.3180 232.043   6
  -7   1   0 50607.2 1805.03  15
  -7   1   0 52117.1 2057.36   6
  -7   1  -1 7398.91 720.183  15
  -7   1  -1 6337.00 746.056   6
  -7   1  -2 6677.83 791.702   5
  -7   1  -2 6452.70 755.535   6
  -7   1  -3 2216.21 469.781   5
  -7   1  -3 3037.88 551.261   6
  -7   1  -4 374.758 238.702   5
  -7   1  -4 781.404 374.428   6
  -7   1  -5 2535.24 478.087   5
  -7   1  -5 2852.44 534.990   6
  -7   1  -6-3.00782 198.467   5
  -7   1  -6-465.640 287.428   6
  -7   1  -7 11029.0 878.349   6
  -7   1  -8 389.542 243.770   6
  -7   1  -9 6187.51 526.323   6
  -7   0  13 3616.45 369.233  12
  -7   0  12 6257.63 521.832   4
  -7   0  12 7181.85 589.827  12
  -7   0  11 2114.19 352.483  12
  -7   0  11 1515.06 327.016   4
  -7   0  10 130.506 242.013   4
  -7   0   9 13620.1 991.753   4
  -7   0   9 12979.0 1055.40   6
  -7   0   8 10483.2 845.760  11
  -7   0   8 7624.83 821.266   6
  -7   0   7 2236.66 497.326   6
  -7   0   6 13180.3 1085.01   6
   7   0  -5-300.204 260.469  16
  -7   0   5-124.486 266.251   6
   7   0  -4 5236.18 630.668  16
  -7   0   4 4940.69 585.585  26
  -7   0   4 4589.79 649.829   6
   7   0  -3 11863.1 901.520  16
  -7   0   3 11191.9 846.486  26
  -7   0   3 11233.2 981.839   6
  -7   0   2 35391.8 1694.30   6
  -7   0   1 908.200 342.016   6
  -7   0   0 21414.5 1334.96   6
  -7   0  -1 6293.58 728.490   6
  -7   0  -2 19361.1 1292.49   6
  -7   0  -2 17916.7 1210.33   5
  -7   0  -3 729.771 283.129   5
  -7   0  -3 594.101 330.756   6
  -7   0  -4 1373.04 461.344   6
  -7   0  -5 39055.4 1745.67   6
  -7   0  -6 527.208 235.931   6
  -7   0  -7 1907.69 391.991   6
  -7   0  -8-94.5956 189.498   6
  -7   0  -9 2798.73 342.531   6
  -7  -1  13 579.082 196.807  12
  -7  -1  12-364.249 187.825  12
  -7  -1  12 193.688 163.935   4
  -7  -1  11 7004.47 650.681   4
  -7  -1  10 1182.37 344.316   4
  -7  -1   9 12448.9 1037.82   6
  -7  -1   9 13178.4 953.236  11
  -7  -1   8 178.956 171.671  11
  -7  -1   8-108.376 303.822   6
  -7  -1   7 16008.9 1070.61  11
  -7  -1   7 16135.0 1178.53   6
  -7  -1   6 39636.3 1659.96  11
  -7  -1   6 38028.9 1774.15   6
   7   1  -5 2594.89 480.688  16
  -7  -1   5 1469.07 365.035  26
  -7  -1   5 1497.30 312.952  11
  -7  -1   5 1442.90 421.669   6
  -7  -1   4 1791.92 384.234  26
  -7  -1   4 1684.87 399.739  11
  -7  -1   4 1198.94 389.159   6
  -7  -1   3 1113.64 301.831  26
  -7  -1   3 1053.10 365.510   6
  -7  -1   2 39904.9 1801.98   6
  -7  -1   2 38700.5 1591.54  26
  -7  -1   1 4600.77 570.836  26
  -7  -1   1 5334.91 695.529   6
  -7  -1   0 48292.4 1973.72   6
  -7  -1  -1 736.207 343.223   6
  -7  -1  -2 2460.54 495.747   6
  -7  -1  -3 7589.52 807.309   6
  -7  -1  -4 837.426 373.990   6
  -7  -1  -5 7778.54 794.275   6
  -7  -1  -6 420.935 244.227   6
  -7  -1  -7 8523.74 719.608   6
  -7  -1  -8 14507.9 810.147   6
  -7  -2  14 3309.98 364.826  12
  -7  -2  13 9425.08 674.795  12
  -7  -2  12 1589.85 318.661   4
  -7  -2  11 6319.95 629.282   4
  -7  -2  10 569.047 289.420  11
  -7  -2   9 24825.8 1412.84   6
  -7  -2   9 24192.7 1317.36  11
  -7  -2   8 31288.5 1523.67  11
  -7  -2   8 30092.1 1566.11   6
  -7  -2   7 5280.64 644.207  11
  -7  -2   7 3998.64 616.289   6
  -7  -2   6 17699.8 1139.61  11
  -7  -2   6 16787.8 1179.95   6
  -7  -2   5 5112.38 615.459  26
  -7  -2   5 5630.39 680.348  11
  -7  -2   5 5416.53 694.969   6
  -7  -2   4 40010.6 1686.90  11
  -7  -2   4 39445.1 1658.38  26
  -7  -2   4 40650.1 1791.84   6
  -7  -2   3-484.463 248.790  26
  -7  -2   3-38.8743 181.332  11
  -7  -2   3-822.859 350.385   6
  -7  -2   2 18861.9 1158.08  11
  -7  -2   2 18605.6 1133.38  26
  -7  -2   2 17775.7 1203.42   6
  -7  -2   1 4724.66 593.168  26
  -7  -2   1 4370.10 583.217  11
  -7  -2   1 4909.63 643.674   6
  -7  -2   0 3857.02 544.418  11
  -7  -2   0 4259.27 624.532   6
  -7  -2  -1 16065.4 1083.88  11
  -7  -2  -1 15938.7 1148.81   6
  -7  -2  -2 7819.46 755.786  11
  -7  -2  -2 8095.61 828.865   6
  -7  -2  -3 11213.1 885.440  11
  -7  -2  -3 10939.5 944.518   6
  -7  -2  -4-20.1472 158.094  11
  -7  -2  -4 227.497 225.612   6
  -7  -2  -5 26580.3 1226.48  11
  -7  -2  -5 25673.7 1342.00   6
  -7  -2  -6 15699.8 976.760   6
  -7  -2  -7 5465.33 539.577   6
  -7  -2  -8 101.953 117.486   6
  -7  -3  14 4630.41 436.064  12
  -7  -3  13 1677.31 277.419   1
  -7  -3  12 316.003 211.378   4
  -7  -3  11 16575.9 1056.07  11
  -7  -3  10 383.209 212.122  11
  -7  -3  10 403.966 228.968   6
  -7  -3   9 20236.0 1254.15   6
  -7  -3   9 21117.7 1260.56  11
  -7  -3   8-12.1456 209.302  11
  -7  -3   8 478.231 269.925   6
  -7  -3   7-222.686 224.532  11
  -7  -3   7-84.2517 221.824   6
  -7  -3   6 3356.52 543.556  11
  -7  -3   6 5079.02 651.784   6
  -7  -3   5 24753.9 1366.62  11
  -7  -3   5 25505.7 1417.96   6
  -7  -3   4 3291.09 498.306  26
  -7  -3   4 3785.56 565.812  11
  -7  -3   4 3129.41 516.215   6
  -7  -3   3 1615.39 373.663  26
  -7  -3   3 2054.76 436.999  11
  -7  -3   3 1472.70 378.873   6
  -7  -3   2 26875.2 1416.75  11
  -7  -3   2 25141.7 1337.20  26
  -7  -3   2 27585.2 1472.69   6
  -7  -3   1 33503.1 1581.73  11
  -7  -3   1 32268.1 1605.40   6
  -7  -3   0 12306.3 975.459  11
  -7  -3   0 10827.2 934.923   6
  -7  -3  -1 1156.17 346.207  11
  -7  -3  -1 1192.18 353.550   6
  -7  -3  -2 421.354 290.848  11
  -7  -3  -2 777.456 334.610   6
  -7  -3  -3 5944.67 648.730  11
  -7  -3  -3 6424.97 713.032   6
  -7  -3  -4 928.426 288.077  11
  -7  -3  -4 1152.97 367.316   6
  -7  -3  -5 23232.4 1131.38  11
  -7  -3  -5 23459.5 1192.50   6
  -7  -3  -6 957.818 222.880  11
  -7  -3  -6 1078.16 282.567   6
  -7  -3  -7 7020.04 535.503   6
  -7  -4  14 1279.49 229.290   1
  -7  -4  13 18872.6 920.093   1
  -7  -4  12 1873.61 327.211   1
  -7  -4  12 2045.32 346.155   4
  -7  -4  11 11879.5 914.644  11
  -7  -4  10 381.217 266.992  11
  -7  -4  10 198.319 206.073   6
  -7  -4   9 7178.51 745.616   6
  -7  -4   9 6877.11 761.053  11
  -7  -4   8 18603.2 1174.53   6
  -7  -4   8 18275.2 1197.26  11
  -7  -4   7-503.051 293.280  11
  -7  -4   7 223.176 217.896   6
  -7  -4   6 678.525 315.388  11
  -7  -4   6 402.354 266.583   6
  -7  -4   5 2834.25 513.403  11
  -7  -4   5 2685.94 480.463   6
  -7  -4   4 18888.1 1220.31  11
  -7  -4   4 15352.8 1088.52   6
  -7  -4   3 6941.02 759.366  11
  -7  -4   3 5984.07 699.939   6
  -7  -4   2 4456.55 617.143  11
  -7  -4   2 4592.49 617.248   6
  -7  -4   1-259.224 246.883  11
  -7  -4   1-333.983 244.260   6
  -7  -4   0 622.355 308.783  11
  -7  -4   0 471.475 255.190   6
  -7  -4  -1 32612.1 1555.04  11
  -7  -4  -1 34463.7 1581.22   6
  -7  -4  -2-226.484 243.458  11
  -7  -4  -2 215.081 177.680   6
  -7  -4  -3 24889.6 1285.13  11
  -7  -4  -3 28031.1 1360.04   6
  -7  -4  -4 2395.50 405.328  11
  -7  -4  -4 2263.87 401.677   6
  -7  -4  -5 2123.19 345.736  11
  -7  -4  -5 2499.72 395.402   6
  -7  -4  -6 6633.50 511.691  11
  -7  -4  -6 6037.71 507.089   6
  -7  -5  14 144.251 116.654   1
  -7  -5  13 4945.83 488.862   1
  -7  -5  12-83.1034 211.236  11
  -7  -5  12 373.376 172.275   1
  -7  -5  11 9501.12 822.883  11
  -7  -5  11 10365.4 763.127   1
  -7  -5  10 16676.5 1130.30  11
  -7  -5   9 15726.0 1106.45  11
  -7  -5   8-48.3687 271.735  11
  -7  -5   7 1545.05 434.790  11
  -7  -5   6 14372.4 1071.66  11
  -7  -5   5-1.32734 278.575  11
  -7  -5   4 15165.4 1104.00  11
  -7  -5   3-7.95434 286.011  11
  -7  -5   2 3562.55 566.962  11
  -7  -5   2 4221.86 575.909   6
  -7  -5   1 34613.4 1627.62  11
  -7  -5   1 37942.8 1615.39   6
  -7  -5   0 43.6613 242.039  11
  -7  -5   0-42.5890 218.506   6
  -7  -5  -1 694.641 330.218  11
  -7  -5  -1 930.043 281.662   6
  -7  -5  -2 4041.12 555.572  11
  -7  -5  -2 4185.57 524.421   6
  -7  -5  -3 6577.17 651.249  11
  -7  -5  -3 4973.05 544.560   6
  -7  -5  -4 177.295 184.388  11
  -7  -5  -4 693.666 217.557   6
  -7  -5  -5 3095.14 383.151  11
  -7  -5  -5 2365.02 317.551   6
  -7  -6  14 240.393 134.895   1
  -7  -6  13 23800.2 1052.77   1
  -7  -6  12 134.906 216.318  11
  -7  -6  12 247.189 134.480   1
  -7  -6  11 478.364 213.675   1
  -7  -6  11 1134.89 365.691  11
  -7  -6  10 229.229 274.777  11
  -7  -6   9 1443.12 404.469  11
  -7  -6   8 7718.76 796.850  11
  -7  -6   7 18231.8 1208.85  11
  -7  -6   6 370.352 281.327  11
  -7  -6   5 15.9151 226.345  11
  -7  -6   4 12687.2 1017.26  11
  -7  -6   3 2912.95 540.925  11
  -7  -6   2 1332.20 369.041  11
  -7  -6   1 6050.01 698.210  11
  -7  -6   0 1624.67 426.056  11
  -7  -6  -1 25928.7 1338.26  11
  -7  -6  -2 1872.97 391.310  11
  -7  -6  -3 212.502 186.636  11
  -7  -6  -4 341.793 170.448  11
  -7  -6  -5 4250.60 388.253  11
  -7  -7  14 391.485 160.047   1
  -7  -7  13 508.334 174.618   1
  -7  -7  12 1177.38 269.889   1
  -7  -7  12 916.307 296.819  11
  -7  -7  11 3248.39 438.653   1
  -7  -7  11 2843.85 484.031  11
  -7  -7  10 10317.5 884.411  11
  -7  -7   9 2648.76 476.830  11
  -7  -7   8 241.006 303.373  11
  -7  -7   7 1456.95 380.456  11
   7   7  -6 30310.7 1391.24   2
  -7  -7   6 27994.1 1466.59  11
   7   7  -5 28871.1 1333.36   2
  -7  -7   5 27026.7 1451.11  11
  -7  -7   4 3591.10 573.344  11
  -7  -7   3 2522.81 493.795  11
  -7  -7   2 2023.31 457.372  11
  -7  -7   1 66278.3 2170.54  11
  -7  -7   0 804.278 286.017  11
  -7  -7  -1 578.947 244.219  11
  -7  -7  -2 170.011 181.744  11
  -7  -7  -3 11109.1 712.247  11
  -7  -7  -4 8415.81 543.341  11
  -7  -8  14 2651.47 318.303   1
  -7  -8  13 11084.3 703.339   1
  -7  -8  12 2116.78 329.497   1
  -7  -8  12 1168.72 317.114  11
  -7  -8  11 3697.93 449.620   1
  -7  -8  11 4176.92 531.455  11
  -7  -8  10 4896.23 523.881   1
  -7  -8  10 4160.97 562.664  11
  -7  -8   9 1763.32 442.757  11
  -7  -8   8 6595.02 718.675  11
  -7  -8   7 8220.52 797.661  11
   7   8  -6 4151.44 540.581   2
  -7  -8   6 3633.31 557.284  11
   7   8  -5 880.542 283.010   2
  -7  -8   5 928.408 352.685  11
  -7  -8   4 8946.55 820.843  11
  -7  -8   3 13922.6 1007.69  11
  -7  -8   2 2049.60 419.449  11
  -7  -8   1 573.061 237.120  11
  -7  -8   0 627.873 269.536  11
  -7  -8  -1 10234.0 739.050  11
  -7  -8  -2 763.598 232.833  11
  -7  -8  -3 473.363 153.315  11
  -7  -9  14 129.155 103.678   1
  -7  -9  13-202.203 132.277   1
  -7  -9  12 187.473 136.722   1
  -7  -9  12 203.641 166.153  11
  -7  -9  11 2048.41 335.650   1
  -7  -9  11 2243.36 379.623  11
  -7  -9  10 28712.9 1212.01   1
  -7  -9  10 27846.7 1293.58  11
  -7  -9   9 232.310 209.400  11
  -7  -9   8 171.554 229.194  11
  -7  -9   7 48.7447 225.634  11
   7   9  -6 12784.0 889.006   2
  -7  -9   6 12937.1 940.556  11
   7   9  -5 2286.97 388.414   2
  -7  -9   5 3038.36 482.273  11
   7   9  -4 1841.01 333.064   2
  -7  -9   4 1545.38 366.566  11
  -7  -9   3 497.963 249.657  11
  -7  -9   2 490.664 290.998  11
  -7  -9   1 14658.1 897.748  11
  -7  -9   0 3677.88 440.577  11
  -7  -9  -1 1217.78 242.000  11
  -7 -10  13 1877.09 267.749   1
  -7 -10  12 3845.63 405.172   1
  -7 -10  12 3534.82 400.015  11
  -7 -10  11 2394.01 345.061   1
  -7 -10  11 2421.16 368.227  11
  -7 -10  10 240.981 128.389   1
  -7 -10  10 191.560 176.734  11
  -7 -10   9 0.92934 186.833  11
  -7 -10   9 299.358 156.771   1
  -7 -10   8 17168.7 994.302  11
   7  10  -7 4436.81 510.827   2
  -7 -10   7 3823.81 478.705  11
   7  10  -6 750.022 276.772   2
  -7 -10   6 294.068 237.991  11
   7  10  -5 1191.81 276.288   2
  -7 -10   5 1775.25 364.587  11
   7  10  -4 14187.1 805.233   2
  -7 -10   4 15008.3 910.753  11
  -7 -10   3 22542.3 1071.69  11
  -7 -10   2-151.017 182.568  11
  -7 -10   1 185.137 150.515  11
  -7 -10   0 2992.20 334.515  11
  -7 -11  12 4475.11 398.894   1
  -7 -11  11-140.299 103.609   1
  -7 -11  11 3.19169 104.965  11
  -7 -11  10 14307.8 758.109   1
  -7 -11  10 13306.1 757.476  11
  -7 -11   9 910.863 246.472  11
  -7 -11   9 621.550 180.324   1
  -7 -11   8 4102.02 458.313  11
  -7 -11   7 268.473 174.387  11
   7  11  -6 8305.28 626.817   2
  -7 -11   6 7674.12 609.852  11
   7  11  -5 12551.8 727.638   2
  -7 -11   5 12172.8 746.116  11
   7  11  -4 1537.30 259.991   2
  -7 -11   4 1443.67 266.474  11
  -7 -11   3 284.813 150.880  11
  -7 -11   2 1319.19 229.648  11
  -7 -12   8 13239.8 661.012  11
  -7 -12   7 6754.98 481.310  11
  -7 -12   6 1255.98 220.157  11
  -8  10   1 1650.27 259.891  15
  -8  10   0 231.795 142.919  15
  -8  10  -1 9111.87 604.573  15
  -8  10  -2 3671.53 415.301  15
  -8  10  -3 195.384 148.103  15
  -8   9   3 548.034 175.090  15
  -8   9   2 1176.34 250.082  15
  -8   9   1 1779.63 316.938  15
  -8   9   0 1847.37 340.183  15
  -8   9  -1 207.937 211.268  15
  -8   9  -1 1.97978 196.075   3
  -8   9  -2 3383.05 442.855  15
  -8   9  -2 2108.69 398.899   3
  -8   9  -3 440.697 219.137  15
  -8   9  -3 240.483 204.919   3
  -8   9  -4 4320.34 547.152   3
  -8   9  -5 435.573 214.693   3
  -8   9  -6 278.566 190.481   3
  -8   8   4 375.751 168.152  15
  -8   8   4 554.861 158.055   4
  -8   8   3 6105.28 529.124  15
  -8   8   2 3916.71 445.946  15
  -8   8   1 255.537 184.686  15
  -8   8   1 243.420 211.533   3
  -8   8   0 599.110 248.398  15
  -8   8   0 366.328 264.750   3
  -8   8  -1 5872.06 600.822  15
  -8   8  -1 3433.21 518.782   3
  -8   8  -2 1248.05 341.967  15
  -8   8  -2 754.746 294.050   3
  -8   8  -3 1959.62 387.961  15
  -8   8  -3 139.579 203.226   3
  -8   8  -4 172.236 201.983   3
  -8   8  -5 1602.29 364.491   3
  -8   8  -6 5756.67 568.192   3
  -8   8  -7 251.542 145.057   3
  -8   7   6 68.2238 98.0084   4
  -8   7   5 3361.05 367.490  15
  -8   7   5 3949.86 416.004   4
  -8   7   4 3434.37 407.941  15
  -8   7   4 3197.91 386.087   4
  -8   7   3 249.735 194.064  15
  -8   7   3 563.520 172.209   4
  -8   7   2 1343.96 328.134  15
  -8   7   1 7952.75 695.168  15
  -8   7   1 4668.35 589.413   3
  -8   7   0 3582.93 513.649  15
  -8   7   0 2678.61 481.046   3
  -8   7  -1 3616.03 494.207  15
  -8   7  -1 3021.14 534.944   3
  -8   7  -2 2256.70 460.715   3
  -8   7  -2 2783.77 457.041  15
  -8   7  -3 1134.60 352.627   3
  -8   7  -3 1421.18 345.099  15
  -8   7  -4 15083.9 1044.25   3
  -8   7  -5 178.226 242.861   3
  -8   7  -6-319.211 182.898   3
  -8   7  -7 3251.19 416.688   3
  -8   6   7 8786.02 577.976   4
  -8   6   6 349.967 152.168  15
  -8   6   6 639.985 203.557   4
  -8   6   5 617.567 199.971  15
  -8   6   5 472.321 188.112   4
  -8   6   4 1011.43 273.959  15
  -8   6   4 1078.47 260.716   4
  -8   6   3 24946.4 1173.56  15
  -8   6   3 28705.6 1201.42   4
  -8   6   3 28295.0 1250.93   6
  -8   6   2 6149.50 621.015  15
  -8   6   2 6228.75 611.061   6
  -8   6   2 5246.28 615.734   3
  -8   6   1 2691.50 444.482  15
  -8   6   1 2973.72 432.284   6
  -8   6   1 2785.85 476.223   3
  -8   6   0 13051.0 917.247  15
  -8   6   0 9169.64 874.104   3
  -8   6  -1 304.052 242.017   3
  -8   6  -1 426.051 255.810  15
  -8   6  -2 1459.95 401.492   3
  -8   6  -2 1598.84 388.310  15
  -8   6  -3 1162.71 374.322   3
  -8   6  -4 1643.61 435.502   3
  -8   6  -5 3929.88 559.072   3
  -8   6  -6 12585.6 880.426   3
  -8   6  -7 155.435 122.723   3
  -8   5   8 381.870 164.992   4
  -8   5   7 79.0220 155.677   4
  -8   5   6 1739.56 332.485   4
  -8   5   5 5972.05 543.705  15
  -8   5   5 6540.02 608.450   4
  -8   5   5 6265.38 631.214   6
  -8   5   4-30.6614 151.475  15
  -8   5   4 168.324 197.215   6
  -8   5   4 138.382 203.931   4
  -8   5   3 751.152 270.491  15
  -8   5   3 374.973 201.505   4
  -8   5   3 499.897 246.075   6
  -8   5   2 193.963 198.360   3
  -8   5   2 781.132 259.085  15
  -8   5   2 366.769 244.778   6
  -8   5   1 15318.1 992.932  15
  -8   5   1 11691.6 1004.63   3
  -8   5   0 3421.50 580.210   3
  -8   5   0 4260.66 549.326  15
  -8   5   0 4268.30 549.849   6
  -8   5  -1 108.707 229.726  15
  -8   5  -1 7.30757 223.524   6
  -8   5  -2 19624.6 1138.42  15
  -8   5  -2 21786.5 1186.99   6
  -8   5  -3 642.963 293.288   6
  -8   5  -4 15471.1 947.817   6
  -8   5  -5 11787.2 794.590   6
  -8   5  -6 1223.56 328.179   3
  -8   5  -6 1682.30 304.525   6
  -8   5  -7 515.252 203.754   3
  -8   4   9 4171.08 411.595   4
  -8   4   8 5895.06 532.067   4
  -8   4   7 12827.7 835.141   4
  -8   4   6-34.9361 207.938   6
  -8   4   6-31.7813 170.824   4
  -8   4   5 153.122 191.828   6
  -8   4   5 378.243 222.997   4
  -8   4   4 12915.4 844.740  15
  -8   4   4 12926.7 900.610   4
  -8   4   4 12841.5 976.650   6
  -8   4   3 12439.4 857.414  15
  -8   4   3 12330.8 873.944   4
  -8   4   3 11695.5 933.483   6
  -8   4   2 3460.24 543.321   3
  -8   4   2 3076.50 465.067  15
  -8   4   2 3443.07 553.497   6
  -8   4   1 4263.06 544.388  15
  -8   4   1 4282.93 588.850   6
  -8   4   0 14870.0 998.223  15
  -8   4   0 14468.4 1045.90   6
  -8   4  -1 118.544 208.879  15
  -8   4  -1 171.109 282.245   6
  -8   4  -2 16379.2 1076.45   6
  -8   4  -3 100.359 242.083   6
  -8   4  -4 5725.87 626.198   6
  -8   4  -5 10983.5 795.350   6
  -8   4  -6 3545.00 432.102   6
  -8   4  -7 774.730 218.103   3
  -8   4  -7 1261.81 256.514   6
  -8   3  10 5435.98 442.024   4
  -8   3   9 1379.03 303.133   4
  -8   3   8 1276.65 314.482   4
  -8   3   7 6005.33 618.863   4
  -8   3   6 809.554 329.492   6
  -8   3   6 1235.25 331.447   4
  -8   3   5 6490.32 676.268   4
  -8   3   5 5850.54 689.780   6
  -8   3   4-385.838 267.512   6
  -8   3   4-493.101 253.474   4
  -8   3   3 5321.57 680.951   6
  -8   3   3 5074.75 582.885   4
  -8   3   2 350.453 197.688  15
  -8   3   2 207.813 264.352   6
  -8   3   1 468.348 215.058  15
  -8   3   1 116.854 279.086   6
  -8   3   0 9496.72 783.109  15
  -8   3   0 9137.09 860.355   6
  -8   3  -1 472.201 316.999   6
  -8   3  -2 10980.0 919.421   6
  -8   3  -3 3440.68 550.277   6
  -8   3  -4 260.923 230.282   6
  -8   3  -5 800.214 291.449   6
  -8   3  -6 5476.05 558.774   6
  -8   3  -7 2311.46 346.238   6
  -8   2  10 594.773 214.423   4
  -8   2   9 7439.79 627.277   4
  -8   2   8 337.910 225.978   4
  -8   2   7 4594.71 605.539   6
  -8   2   7 4999.96 597.626   4
  -8   2   6 432.674 265.714   6
  -8   2   6-26.7486 231.778   4
  -8   2   5 194.719 277.436   6
  -8   2   5 241.286 255.648   4
  -8   2   4 705.617 370.553   6
  -8   2   3 16430.2 1156.15   6
  -8   2   2 72.8682 269.255   6
  -8   2   1 7312.10 797.629   6
  -8   2   0 1240.53 386.156   6
  -8   2  -1 1959.11 450.544   6
  -8   2  -2 9988.91 895.580   6
  -8   2  -3 333.259 277.081   6
  -8   2  -4 1166.79 348.123   6
  -8   2  -5 15611.5 979.679   6
  -8   2  -6 3443.98 457.041   6
  -8   2  -7 808.773 201.432   6
  -8   1  11 7212.31 507.202   4
  -8   1  10 1849.39 325.164   4
  -8   1   9 693.873 281.580   4
  -8   1   8-7.52540 280.682   6
  -8   1   8 460.706 288.191   4
  -8   1   7 18000.3 1102.98   4
  -8   1   7 16346.8 1133.37   6
  -8   1   6 8616.30 861.113   6
  -8   1   5-9.38456 302.645   6
  -8   1   4 462.476 348.201   6
  -8   1   3 5725.26 721.177   6
  -8   1   2 22538.1 1360.76   6
  -8   1   1 94.0662 298.706   6
  -8   1   0 5744.84 705.779   6
  -8   1  -1 1528.56 418.883   6
  -8   1  -2 6899.67 767.165   6
  -8   1  -3 5807.50 679.050   6
  -8   1  -4 3209.69 498.771   6
  -8   1  -5 5712.44 611.771   6
  -8   1  -6 75.7049 224.789   6
  -8   1  -7 21268.9 923.038   6
  -8   0  11 138.477 142.682   4
  -8   0  10 29.8744 187.637   4
  -8   0   9 9077.07 750.090   4
  -8   0   8 2918.72 520.577   6
  -8   0   8 3050.74 488.089   4
  -8   0   7 4578.90 658.775   6
  -8   0   6 301.011 331.945   6
  -8   0   5 731.405 322.080   6
  -8   0   4 8383.87 856.076   6
  -8   0   3 15.7875 255.572   6
  -8   0   2 7915.38 844.730   6
  -8   0   1 632.079 369.524   6
  -8   0   0 10728.8 934.172   6
  -8   0  -1 10498.4 929.499   6
  -8   0  -2 3488.31 580.796   6
  -8   0  -3 5558.93 661.824   6
  -8   0  -4 7149.18 704.699   6
  -8   0  -5 21300.6 1102.81   6
  -8   0  -6-86.9535 191.717   6
  -8   0  -7 1832.85 279.737   6
  -8  -1  11 12551.6 735.372   4
  -8  -1  10 320.627 203.194   4
  -8  -1   9 7763.94 710.443   4
  -8  -1   9 8354.12 785.991   6
  -8  -1   8 1037.93 261.118  11
  -8  -1   8 618.228 314.489   6
  -8  -1   7 10952.8 941.278   6
  -8  -1   6 18077.3 1206.69   6
  -8  -1   5 1146.46 412.999   6
  -8  -1   4 6838.24 775.966   6
  -8  -1   3 202.598 283.646   6
  -8  -1   2 26992.7 1472.52   6
  -8  -1   1 993.201 363.083   6
  -8  -1   0 14539.2 1089.16   6
  -8  -1  -1 3066.18 540.586   6
  -8  -1  -2 767.694 368.093   6
  -8  -1  -3 13771.7 978.358   6
  -8  -1  -4 3182.25 489.334   6
  -8  -1  -5 1644.40 335.859   6
  -8  -1  -6 220.985 149.545   6
  -8  -2  12 1410.44 235.084   4
  -8  -2  11 3295.22 399.029   4
  -8  -2  10 1615.10 345.763   4
  -8  -2   9 18511.1 1123.37   6
  -8  -2   9 21389.2 1100.56  11
  -8  -2   8 6496.38 644.298  11
  -8  -2   8 6579.36 712.085   6
  -8  -2   7 1862.53 377.789  11
  -8  -2   7 1726.40 434.915   6
  -8  -2   6 868.734 285.359  11
  -8  -2   6 585.185 314.822   6
  -8  -2   5-96.7759 207.465  11
  -8  -2   5-172.528 302.705   6
  -8  -2   4 30163.3 1412.72  11
  -8  -2   4 29118.3 1506.77   6
  -8  -2   3 12.8358 246.230  11
  -8  -2   3 569.164 313.277   6
  -8  -2   2 20244.3 1142.04  11
  -8  -2   2 21448.5 1293.93   6
  -8  -2   1 37.1622 182.564  11
  -8  -2   1-52.2058 315.421   6
  -8  -2   0 14246.9 1044.04   6
  -8  -2  -1 16081.4 1083.56   6
  -8  -2  -2 139.959 250.979   6
  -8  -2  -3 3036.96 473.694   6
  -8  -2  -4 2944.22 436.626   6
  -8  -2  -5 8452.59 622.569   6
  -8  -3  12-7.18025 87.6404   4
  -8  -3  11 19429.6 949.765   4
  -8  -3  10 7622.74 657.755  11
  -8  -3   9 8576.58 756.995   6
  -8  -3   9 8046.53 698.285  11
  -8  -3   8 3056.25 450.293  11
  -8  -3   8 3486.61 532.856   6
  -8  -3   7 1943.08 415.973  11
  -8  -3   7 2489.53 473.427   6
  -8  -3   6 44053.9 1715.01  11
  -8  -3   6 43699.3 1774.64   6
  -8  -3   5 394.316 232.793  11
  -8  -3   5 653.170 295.391   6
  -8  -3   4 8060.43 772.549  11
  -8  -3   4 7467.84 754.041   6
  -8  -3   3 12159.6 915.720  11
  -8  -3   3 11413.3 938.699   6
  -8  -3   2 6119.08 661.811  11
  -8  -3   2 6747.19 740.610   6
  -8  -3   1 283.865 184.905  11
  -8  -3   1 183.850 230.774   6
  -8  -3   0 1659.40 344.347  11
  -8  -3   0 2137.49 429.882   6
  -8  -3  -1 2382.70 402.430  11
  -8  -3  -1 1882.16 380.854   6
  -8  -3  -2 1986.19 327.910  11
  -8  -3  -2 2070.98 400.391   6
  -8  -3  -3 5757.69 515.993  11
  -8  -3  -3 5551.96 564.003   6
  -8  -3  -4 566.529 231.235   6
  -8  -3  -5 726.406 195.550   6
  -8  -4  12 200.956 129.220   4
  -8  -4  11 4889.70 494.864   4
  -8  -4  11 5108.10 516.080  11
  -8  -4  10 2964.83 443.917  11
  -8  -4   9 17642.1 1021.50   6
  -8  -4   9 18151.5 1058.09  11
  -8  -4   8 4696.05 581.145  11
  -8  -4   8 3875.90 530.141   6
  -8  -4   7 360.104 265.578  11
  -8  -4   7 590.125 276.134   6
  -8  -4   6 1322.09 350.142  11
  -8  -4   6 2068.40 416.478   6
  -8  -4   5 267.357 241.354  11
  -8  -4   5-1.74665 222.228   6
  -8  -4   4 9136.29 812.376  11
  -8  -4   4 9446.73 815.165   6
  -8  -4   3 5594.38 636.253  11
  -8  -4   3 5281.66 622.954   6
  -8  -4   2 5298.29 613.459  11
  -8  -4   2 4642.63 576.675   6
  -8  -4   1 525.005 231.130  11
  -8  -4   1-38.6512 172.159   6
  -8  -4   0 232.159 194.904  11
  -8  -4   0 380.777 225.862   6
  -8  -4  -1 15775.4 935.971  11
  -8  -4  -1 15378.1 940.156   6
  -8  -4  -2 307.204 161.802  11
  -8  -4  -2-185.390 203.802   6
  -8  -4  -3 529.535 181.435  11
  -8  -4  -3-97.9412 155.523   6
  -8  -4  -4 425.456 171.662   6
  -8  -5  12 252.259 152.091   4
  -8  -5  11 17170.6 939.726  11
  -8  -5  10 1501.45 350.406  11
  -8  -5   9 1157.83 318.375  11
  -8  -5   8 56.7283 199.795  11
  -8  -5   7 237.561 217.038  11
  -8  -5   6 16116.1 1060.39  11
  -8  -5   5 3940.12 551.838  11
  -8  -5   4 1573.85 360.345  11
  -8  -5   3 6725.02 687.839  11
  -8  -5   3 7102.40 665.962   6
  -8  -5   2 9435.86 792.654  11
  -8  -5   2 8682.13 716.729   6
  -8  -5   1 9355.23 767.397  11
  -8  -5   1 8844.48 701.927   6
  -8  -5   0 1776.19 349.770  11
  -8  -5   0 2089.24 351.815   6
  -8  -5  -1-81.1455 152.921  11
  -8  -5  -1-45.2073 139.885   6
  -8  -5  -2 1706.48 306.098  11
  -8  -5  -2 1210.91 235.890   6
  -8  -5  -3 9499.06 584.347  11
  -8  -6  12 325.398 148.363   4
  -8  -6  11 3528.85 443.172  11
  -8  -6  10 4862.14 547.826  11
  -8  -6   9 15867.0 980.574  11
  -8  -6   8 8734.91 764.566  11
  -8  -6   7 1206.68 342.513  11
  -8  -6   6 120.149 225.715  11
  -8  -6   5 1537.31 387.269  11
  -8  -6   4 8273.89 749.996  11
  -8  -6   3 1240.13 319.708  11
  -8  -6   2 13614.4 923.646  11
  -8  -6   1 423.205 258.677  11
  -8  -6   0 319.007 187.161  11
  -8  -6  -1 22149.5 999.710  11
  -8  -6  -2 9733.84 603.660  11
  -8  -7  12 1039.84 232.481  11
  -8  -7  11 6892.70 581.843  11
  -8  -7  10 2381.65 373.727  11
  -8  -7   9-9.02309 191.359  11
  -8  -7   8 1874.45 382.659  11
  -8  -7   7-55.1032 265.232  11
  -8  -7   6 17167.3 1038.18  11
  -8  -7   5 84.8257 266.273  11
  -8  -7   4 32.6795 220.855  11
  -8  -7   3 1716.33 379.497  11
  -8  -7   2 932.197 283.283  11
  -8  -7   1 22228.1 1057.55  11
  -8  -7   0 1095.23 250.884  11
  -8  -7  -1 1209.88 236.990  11
  -8  -8  12-11.9193 115.506  11
  -8  -8  11 1444.49 294.231  11
  -8  -8  10 2613.57 376.553  11
  -8  -8   9 942.820 280.631  11
  -8  -8   8 17128.2 969.291  11
  -8  -8   7 2221.23 399.842  11
  -8  -8   6 317.828 208.684  11
  -8  -8   5 4683.66 533.047  11
  -8  -8   4 15144.1 910.802  11
  -8  -8   3 1319.94 289.468  11
  -8  -8   2 748.995 237.257  11
  -8  -8   1 6652.87 524.872  11
  -8  -8   0 248.749 130.318  11
  -8  -9  11 4417.52 410.341  11
  -8  -9  10 2172.19 321.670  11
  -8  -9   9 1349.87 292.562  11
  -8  -9   8 4317.79 465.793  11
  -8  -9   7 1418.69 306.960  11
  -8  -9   6 16388.6 890.084  11
  -8  -9   5 3377.20 419.596  11
  -8  -9   4 294.967 198.696  11
  -8  -9   3 2661.97 351.555  11
  -8  -9   2 146.449 129.961  11
  -8 -10   9 362.916 162.437  11
  -8 -10   8 12328.2 681.481  11
  -8 -10   7 297.354 168.303  11
  -8 -10   6 1576.40 276.076  11
  -8 -10   5 2394.77 312.567  11
  -8 -10   4 3199.00 332.609  11
  -9   7   1 8957.90 543.590  15
  -9   7   0 3036.83 386.032   3
  -9   7  -1 597.364 233.731   3
  -9   7  -2 3345.25 419.253   3
  -9   7  -3 73.0664 175.154   3
  -9   6   2 531.042 167.930  15
  -9   6   1 1712.58 284.939  15
  -9   6   1 1659.02 311.350   3
  -9   6   0 1381.29 285.250   3
  -9   6  -1 3034.48 427.324   3
  -9   6  -2 6863.08 634.534   3
  -9   6  -3-102.461 189.977   3
  -9   6  -4 1569.14 280.675   3
  -9   5   3 1111.09 232.487   6
  -9   5   2 4042.37 405.731  15
  -9   5   2 4370.97 458.656   6
  -9   5   1 1053.52 239.640  15
  -9   5   1 1212.24 270.353   6
  -9   5   1 663.879 235.091   3
  -9   5   0 7215.41 580.112   6
  -9   5   0 5473.44 571.238   3
  -9   5  -1 664.935 288.466   3
  -9   5  -1 667.668 207.027   6
  -9   5  -2-158.986 223.404   3
  -9   5  -2 189.562 125.196   6
  -9   5  -3 1743.40 334.920   3
  -9   5  -3 2059.93 284.534   6
  -9   5  -4 1999.95 338.524   3
  -9   4   6 1050.19 221.249   4
  -9   4   5 5816.70 473.837   4
  -9   4   4 5194.32 452.833   4
  -9   4   4 4827.29 498.341   6
  -9   4   3 160.213 201.530   6
  -9   4   2 82.0506 177.430   6
  -9   4   2 174.300 162.702   3
  -9   4   1-554.811 253.624   3
  -9   4   1 117.426 144.726   6
  -9   4   0 343.067 244.435   3
  -9   4   0 812.876 285.308   6
  -9   4  -1 44.1522 191.271   3
  -9   4  -1-397.501 203.757   6
  -9   4  -2 227.673 218.683   3
  -9   4  -2 220.296 163.060   6
  -9   4  -3 2260.48 398.638   3
  -9   4  -3 2510.19 346.471   6
  -9   4  -4 363.321 222.111   3
  -9   4  -4 329.061 119.522   6
  -9   3   7 6590.52 496.677   4
  -9   3   6 1210.18 254.561   4
  -9   3   5 719.570 254.377   6
  -9   3   5 903.242 218.716   4
  -9   3   4 23.2569 147.129   6
  -9   3   4-338.121 167.111   4
  -9   3   3 1005.37 294.688   6
  -9   3   2 5470.89 584.463   3
  -9   3   2 6206.16 623.132   6
  -9   3   1 2915.09 472.266   3
  -9   3   1 3962.76 508.923   6
  -9   3   0 1829.03 383.795   6
  -9   3  -1 547.465 244.458   6
  -9   3  -2 12898.6 813.451   6
  -9   3  -3 5438.94 517.102   6
  -9   3  -4 5613.28 483.624   6
  -9   2   8-12.7630 109.377   4
  -9   2   7 4214.84 431.456   4
  -9   2   6 294.199 218.680   6
  -9   2   6 484.232 198.946   4
  -9   2   5 4602.19 473.708   4
  -9   2   5 5107.61 570.748   6
  -9   2   4 4377.16 474.207   4
  -9   2   4 3869.31 523.638   6
  -9   2   3 3907.62 536.284   6
  -9   2   3 3560.62 403.348   4
  -9   2   2 874.293 316.640   6
  -9   2   1 1105.81 356.248   6
  -9   2   0 19575.1 1089.69   6
  -9   2  -1 984.701 313.375   6
  -9   2  -2 2370.47 405.957   6
  -9   2  -3 354.146 203.464   6
  -9   2  -4 2592.77 351.658   6
  -9   1   9 247.324 129.033   4
  -9   1   8 130.969 119.020   4
  -9   1   7 8111.49 611.231   4
  -9   1   7 8760.78 690.457   6
  -9   1   6 3149.61 473.988   6
  -9   1   6 3168.09 403.215   4
  -9   1   5 661.319 290.562   6
  -9   1   5 410.978 201.387   4
  -9   1   4-244.698 252.816   6
  -9   1   4 194.451 134.831   4
  -9   1   3 556.104 288.471   6
  -9   1   3 119.583 130.860   4
  -9   1   2 26552.2 1307.01   6
  -9   1   1 319.590 252.148   6
  -9   1   0 217.125 236.296   6
  -9   1  -1 1188.20 339.842   6
  -9   1  -2 6554.33 610.245   6
  -9   1  -3 10948.8 721.006   6
  -9   1  -4 865.987 223.847   6
  -9   0   9 19513.1 842.966   4
  -9   0   8 2331.55 347.138   4
  -9   0   7 2318.23 389.979   6
  -9   0   7 3632.41 442.696   4
  -9   0   6 3002.32 456.034   6
  -9   0   6 3270.65 429.845   4
  -9   0   5 8561.67 760.118   6
  -9   0   4 13889.1 958.800   6
  -9   0   3 442.767 302.246   6
  -9   0   2-161.895 287.665   6
  -9   0   1-40.1841 248.236   6
  -9   0   0 4484.08 558.026   6
  -9   0  -1 161.724 214.710   6
  -9   0  -2 1002.56 274.579   6
  -9   0  -3-200.824 150.877   6
  -9   0  -4-172.100 131.185   6
  -9  -1   9-99.6207 149.589   4
  -9  -1   8 464.230 219.580   6
  -9  -1   8 299.699 160.972   4
  -9  -1   7 3350.13 469.774   6
  -9  -1   6 7706.37 689.412   6
  -9  -1   5-33.7928 229.693   6
  -9  -1   4 300.648 255.457   6
  -9  -1   3 1537.10 373.318   6
  -9  -1   2 11683.1 870.533   6
  -9  -1   1 2962.93 469.422   6
  -9  -1   0 3985.54 508.545   6
  -9  -1  -1-6.61019 195.184   6
  -9  -1  -2 237.029 191.173   6
  -9  -1  -3 7496.10 547.376   6
  -9  -2  10 42.5314 115.012   4
  -9  -2   9 6510.87 525.592   4
  -9  -2   8 6733.45 589.348   6
  -9  -2   7 3081.33 437.344   6
  -9  -2   6 27.0884 188.874   6
  -9  -2   5-200.904 263.969   6
  -9  -2   4 21375.8 1128.18   6
  -9  -2   3 7662.75 695.471   6
  -9  -2   2 1440.48 347.084   6
  -9  -2   1 127.444 197.318   6
  -9  -2   0 2383.89 395.127   6
  -9  -2  -1 1450.85 303.056   6
  -9  -2  -2 2208.61 326.642   6
  -9  -3  10 181.542 119.837   4
  -9  -3   9 325.476 168.749   4
  -9  -3   8 824.338 202.883  11
  -9  -3   8 793.886 242.864   6
  -9  -3   7 889.543 207.958  11
  -9  -3   7 1136.49 282.380   6
  -9  -3   6 11005.8 704.112  11
  -9  -3   6 10641.8 757.230   6
  -9  -3   5 727.355 206.465  11
  -9  -3   5 764.290 272.446   6
  -9  -3   4 658.819 207.307  11
  -9  -3   4 322.245 211.015   6
  -9  -3   3 2093.77 316.979  11
  -9  -3   3 1535.40 336.318   6
  -9  -3   2 10004.1 734.895   6
  -9  -3   1 3604.21 453.006   6
  -9  -3   0 415.089 221.069   6
  -9  -3  -1 213.676 149.701   6
  -9  -4  10 2452.90 305.828   4
  -9  -4   9 5193.29 441.045  11
  -9  -4   8 17785.8 833.824   6
  -9  -4   8 20358.0 917.033  11
  -9  -4   7 1802.18 309.911  11
  -9  -4   7 1231.32 266.116   6
  -9  -4   6 165.916 150.121  11
  -9  -4   6 5.46513 140.904   6
  -9  -4   5-161.576 144.336  11
  -9  -4   5-98.2121 176.907   6
  -9  -4   4 14550.7 816.627  11
  -9  -4   4 14537.6 833.844   6
  -9  -4   3 661.456 210.429  11
  -9  -4   3 1023.65 254.424   6
  -9  -4   2-124.488 132.442  11
  -9  -4   2-524.685 203.446   6
  -9  -4   1 7928.57 547.779  11
  -9  -4   1 6353.85 515.931   6
  -9  -4   0 2504.45 316.259   6
  -9  -5   9 984.692 212.528  11
  -9  -5   8-67.2988 129.573  11
  -9  -5   7 659.002 207.354  11
  -9  -5   6 17446.4 888.363  11
  -9  -5   5-175.769 155.265  11
  -9  -5   4 202.120 159.840  11
  -9  -5   3 11926.0 710.637  11
  -9  -5   2 9136.72 599.806  11
  -9  -5   1 2477.91 300.704  11
  -9  -6   9 670.511 169.410  11
  -9  -6   8 12883.5 705.210  11
  -9  -6   7 3694.50 394.464  11
  -9  -6   6 5552.76 491.142  11
  -9  -6   5 518.931 205.455  11
  -9  -6   4 10279.7 647.089  11
  -9  -6   3 1381.03 247.809  11
  -9  -6   2 105.578 99.3527  11
  -9  -7   8 2017.33 280.040  11
  -9  -7   7 85.4371 124.614  11
  -9  -7   6 6373.76 490.787  11
  -9  -7   5 827.869 199.494  11
  -9  -7   4-29.9873 108.992  11
   0   0   0    0.00    0.00   0

TITL 500-10Zn in P-1
REM P-1 (#2 in standard setting)
CELL 1.54184   8.181116  14.895828  15.095694 117.1485  99.1826  90.4859
ZERR    7.00   0.000305   0.000800   0.000837   0.0055   0.0038   0.0037
LATT  1
SFAC C H N O
UNIT 77.00 70.00 7.00 7.00
TREF
HKLF 4
END
;
_shelx_hkl_checksum              31343
loop_
_space_group_symop_operation_xyz
'x, y, z'
'-x, -y, -z'
loop_
_atom_site_label
_atom_site_type_symbol
_atom_site_fract_x
_atom_site_fract_y
_atom_site_fract_z
_atom_site_U_iso_or_equiv
_atom_site_adp_type
_atom_site_occupancy
_atom_site_site_symmetry_order
_atom_site_calc_flag
_atom_site_refinement_flags_posn
_atom_site_refinement_flags_adp
_atom_site_refinement_flags_occupancy
_atom_site_disorder_assembly
_atom_site_disorder_group
Zn1 Zn 0.55875(5) 1.27920(3) 0.39350(3) 0.02560(11) Uani 1 1 d . . . . .
Zn2 Zn 0.45999(5) 0.77033(3) 0.17348(3) 0.02718(12) Uani 1 1 d . . . . .
N1 N 0.3243(3) 0.80215(19) 0.28252(18) 0.0283(5) Uani 1 1 d . . . . .
N2 N 0.0417(3) 0.8956(2) 0.5114(2) 0.0298(6) Uani 1 1 d . . . . .
N3 N -0.3819(3) 0.77400(19) 0.55489(18) 0.0276(5) Uani 1 1 d . . . . .
N4 N 0.3060(3) 0.72020(18) 0.03791(17) 0.0271(5) Uani 1 1 d . . . . .
N5 N 0.0453(3) 0.6259(2) -0.25586(19) 0.0325(6) Uani 1 1 d . . . . .
N6 N -0.3049(3) 0.39595(18) -0.47876(18) 0.0282(5) Uani 1 1 d . . . . .
O1 O 0.6587(3) 1.14509(16) 0.32913(17) 0.0373(5) Uani 1 1 d . . . . .
O2 O 0.8470(4) 1.25271(17) 0.3350(2) 0.0539(7) Uani 1 1 d . . . . .
O3 O 0.5625(3) 0.89471(16) 0.18339(16) 0.0333(5) Uani 1 1 d . . . . .
O4 O 0.7407(3) 0.94138(16) 0.32828(15) 0.0329(5) Uani 1 1 d . . . . .
O5 O 0.8637(3) 0.80275(15) 0.11280(14) 0.0285(5) Uani 1 1 d . . . . .
O6 O 0.6219(3) 0.67714(18) 0.17625(17) 0.0387(5) Uani 1 1 d . . . . .
O7 O 0.8540(3) 0.60411(18) 0.13879(19) 0.0447(6) Uani 1 1 d . . . . .
O8 O 0.6455(5) 0.7813(3) -0.2329(2) 0.0826(11) Uani 1 1 d . . . . .
O9 O 0.4914(3) 0.6405(2) -0.31624(18) 0.0536(7) Uani 1 1 d . . . . .
O10 O 0.5171(10) 0.9533(7) 0.9159(6) 0.253(4) Uani 1 1 d . . . . .
H1W H 0.5548 0.9020 0.8723 0.304 Uiso 1 1 d R U . . .
H2W H 0.4954 0.9936 0.8909 0.304 Uiso 1 1 d R U . . .
C1 C 0.7883(4) 1.1647(2) 0.3040(2) 0.0277(6) Uani 1 1 d . . . . .
C2 C 0.8704(3) 1.0784(2) 0.2317(2) 0.0237(6) Uani 1 1 d . . . . .
C3 C 0.8222(3) 0.9770(2) 0.2026(2) 0.0215(6) Uani 1 1 d . . . . .
C4 C 0.6995(3) 0.9381(2) 0.2448(2) 0.0244(6) Uani 1 1 d . . . . .
C5 C 0.9029(4) 0.9024(2) 0.1336(2) 0.0246(6) Uani 1 1 d . . . . .
C6 C 1.0294(4) 0.9251(2) 0.0947(2) 0.0330(7) Uani 1 1 d . . . . .
H6 H 1.0816 0.8737 0.0488 0.040 Uiso 1 1 calc R U . . .
C7 C 1.0773(4) 1.0254(2) 0.1248(2) 0.0350(7) Uani 1 1 d . . . . .
H7 H 1.1629 1.0421 0.0997 0.042 Uiso 1 1 calc R U . . .
C8 C 0.9976(4) 1.1011(2) 0.1925(2) 0.0304(7) Uani 1 1 d . . . . .
H8 H 1.0301 1.1685 0.2121 0.036 Uiso 1 1 calc R U . . .
C9 C 0.7664(3) 0.7357(2) 0.0208(2) 0.0233(6) Uani 1 1 d . . . . .
C10 C 0.7010(4) 0.6491(2) 0.0204(2) 0.0264(6) Uani 1 1 d . . . . .
C11 C 0.7292(4) 0.6415(2) 0.1183(2) 0.0300(7) Uani 1 1 d . . . . .
C12 C 0.6095(4) 0.5742(2) -0.0700(2) 0.0349(7) Uani 1 1 d . . . . .
H12 H 0.5690 0.5142 -0.0730 0.042 Uiso 1 1 calc R U . . .
C13 C 0.5784(4) 0.5884(2) -0.1555(2) 0.0367(8) Uani 1 1 d . . . . .
H13 H 0.5167 0.5379 -0.2154 0.044 Uiso 1 1 calc R U . . .
C14 C 0.6383(4) 0.6770(2) -0.1526(2) 0.0291(7) Uani 1 1 d . . . . .
C15 C 0.5916(4) 0.7012(3) -0.2403(2) 0.0392(8) Uani 1 1 d . . . . .
C16 C 0.7347(4) 0.7512(2) -0.0633(2) 0.0268(6) Uani 1 1 d . . . . .
H16 H 0.7773 0.8106 -0.0606 0.032 Uiso 1 1 calc R U . . .
C17 C 0.3936(4) 0.8577(2) 0.3816(2) 0.0286(6) Uani 1 1 d . . . . .
H17 H 0.5075 0.8763 0.3989 0.034 Uiso 1 1 calc R U . . .
C18 C 0.3026(4) 0.8874(2) 0.4570(2) 0.0272(6) Uani 1 1 d . . . . .
H18 H 0.3550 0.9253 0.5242 0.033 Uiso 1 1 calc R U . . .
C19 C 0.1309(4) 0.8612(2) 0.4337(2) 0.0258(6) Uani 1 1 d . . . . .
C20 C 0.0585(4) 0.8051(2) 0.3318(2) 0.0302(7) Uani 1 1 d . . . . .
H20 H -0.0554 0.7866 0.3124 0.036 Uiso 1 1 calc R U . . .
C21 C 0.1590(4) 0.7777(2) 0.2607(2) 0.0305(7) Uani 1 1 d . . . . .
H21 H 0.1096 0.7398 0.1929 0.037 Uiso 1 1 calc R U . . .
C22 C -0.1050(4) 0.8540(2) 0.5175(2) 0.0257(6) Uani 1 1 d . . . . .
C23 C -0.1827(4) 0.9122(2) 0.5990(2) 0.0273(6) Uani 1 1 d . . . . .
H23 H -0.1433 0.9795 0.6422 0.033 Uiso 1 1 calc R U . . .
C24 C -0.3166(4) 0.8699(2) 0.6149(2) 0.0273(6) Uani 1 1 d . . . . .
H24 H -0.3651 0.9097 0.6702 0.033 Uiso 1 1 calc R U . . .
C25 C -0.3120(4) 0.7199(2) 0.4742(2) 0.0321(7) Uani 1 1 d . . . . .
H25 H -0.3578 0.6539 0.4305 0.039 Uiso 1 1 calc R U . . .
C26 C -0.1769(4) 0.7557(2) 0.4518(2) 0.0328(7) Uani 1 1 d . . . . .
H26 H -0.1343 0.7152 0.3941 0.039 Uiso 1 1 calc R U . . .
C27 C 0.3319(4) 0.7657(2) -0.0189(2) 0.0284(6) Uani 1 1 d . . . . .
H27 H 0.4117 0.8208 0.0087 0.034 Uiso 1 1 calc R U . . .
C28 C 0.2472(4) 0.7350(2) -0.1141(2) 0.0286(6) Uani 1 1 d . . . . .
H28 H 0.2705 0.7685 -0.1503 0.034 Uiso 1 1 calc R U . . .
C29 C 0.1246(4) 0.6529(2) -0.1585(2) 0.0267(6) Uani 1 1 d . . . . .
C30 C 0.0923(4) 0.6088(2) -0.0985(2) 0.0349(7) Uani 1 1 d . . . . .
H30 H 0.0084 0.5564 -0.1227 0.042 Uiso 1 1 calc R U . . .
C31 C 0.1854(4) 0.6434(2) -0.0036(2) 0.0351(7) Uani 1 1 d . . . . .
H31 H 0.1639 0.6118 0.0346 0.042 Uiso 1 1 calc R U . . .
C32 C -0.0702(4) 0.5472(2) -0.3246(2) 0.0272(6) Uani 1 1 d . . . . .
C33 C -0.1417(4) 0.5544(2) -0.4109(2) 0.0379(8) Uani 1 1 d . . . . .
H33 H -0.1123 0.6106 -0.4186 0.045 Uiso 1 1 calc R U . . .
C34 C -0.2554(4) 0.4787(2) -0.4848(2) 0.0389(8) Uani 1 1 d . . . . .
H34 H -0.3005 0.4852 -0.5420 0.047 Uiso 1 1 calc R U . . .
C35 C -0.2354(4) 0.3895(2) -0.3959(2) 0.0368(8) Uani 1 1 d . . . . .
H35 H -0.2682 0.3329 -0.3899 0.044 Uiso 1 1 calc R U . . .
C36 C -0.1186(4) 0.4608(2) -0.3187(2) 0.0382(8) Uani 1 1 d . . . . .
H36 H -0.0728 0.4513 -0.2635 0.046 Uiso 1 1 calc R U . . .
H2 H 0.090(5) 0.943(3) 0.562(3) 0.038(10) Uiso 1 1 d . . . . .
H5 H 0.076(4) 0.667(2) -0.276(2) 0.023(8) Uiso 1 1 d . . . . .
loop_
_atom_site_aniso_label
_atom_site_aniso_U_11
_atom_site_aniso_U_22
_atom_site_aniso_U_33
_atom_site_aniso_U_23
_atom_site_aniso_U_13
_atom_site_aniso_U_12
Zn1 0.0263(2) 0.0240(2) 0.0208(2) 0.00577(16) 0.00402(15) -0.00527(15)
Zn2 0.0256(2) 0.0328(2) 0.0190(2) 0.00919(17) 0.00216(15) -0.00521(16)
N1 0.0247(13) 0.0373(14) 0.0211(12) 0.0124(11) 0.0034(10) -0.0050(11)
N2 0.0246(13) 0.0348(15) 0.0230(13) 0.0081(12) 0.0027(11) -0.0085(11)
N3 0.0246(13) 0.0325(14) 0.0237(12) 0.0113(11) 0.0047(10) -0.0036(10)
N4 0.0242(13) 0.0299(13) 0.0191(12) 0.0060(10) -0.0008(10) -0.0034(10)
N5 0.0396(16) 0.0278(14) 0.0232(13) 0.0103(11) -0.0071(11) -0.0135(12)
N6 0.0323(14) 0.0238(13) 0.0200(12) 0.0048(10) -0.0004(10) -0.0060(10)
O1 0.0310(12) 0.0309(12) 0.0419(13) 0.0072(10) 0.0158(10) 0.0016(9)
O2 0.088(2) 0.0221(12) 0.0520(16) 0.0096(11) 0.0375(15) -0.0009(12)
O3 0.0286(11) 0.0359(12) 0.0294(11) 0.0132(10) -0.0035(9) -0.0121(9)
O4 0.0360(12) 0.0389(12) 0.0206(11) 0.0119(9) 0.0034(9) -0.0087(10)
O5 0.0379(12) 0.0221(10) 0.0192(10) 0.0066(8) -0.0016(9) -0.0038(9)
O6 0.0451(14) 0.0449(14) 0.0322(12) 0.0222(11) 0.0098(10) 0.0071(11)
O7 0.0433(14) 0.0433(14) 0.0489(15) 0.0253(12) -0.0003(11) 0.0076(11)
O8 0.111(3) 0.088(2) 0.0583(19) 0.0540(19) -0.0202(18) -0.035(2)
O9 0.0503(16) 0.0708(18) 0.0304(13) 0.0213(13) -0.0098(12) -0.0074(14)
O10 0.253(9) 0.279(11) 0.210(8) 0.109(8) 0.010(7) 0.068(8)
C1 0.0333(17) 0.0276(16) 0.0210(14) 0.0108(12) 0.0036(12) 0.0007(13)
C2 0.0233(14) 0.0249(14) 0.0198(14) 0.0081(12) 0.0030(11) -0.0004(11)
C3 0.0198(14) 0.0258(14) 0.0161(13) 0.0084(11) -0.0001(10) -0.0038(11)
C4 0.0247(15) 0.0219(14) 0.0202(14) 0.0044(11) 0.0036(12) -0.0020(11)
C5 0.0280(15) 0.0212(14) 0.0196(14) 0.0067(11) 0.0000(11) -0.0028(11)
C6 0.0338(17) 0.0337(17) 0.0294(16) 0.0106(14) 0.0129(13) 0.0059(13)
C7 0.0323(17) 0.0394(18) 0.0381(18) 0.0189(15) 0.0165(14) -0.0015(14)
C8 0.0320(17) 0.0263(15) 0.0323(16) 0.0132(13) 0.0064(13) -0.0054(13)
C9 0.0209(14) 0.0222(14) 0.0204(14) 0.0049(11) 0.0024(11) 0.0008(11)
C10 0.0268(15) 0.0251(15) 0.0250(15) 0.0097(12) 0.0045(12) 0.0013(12)
C11 0.0362(18) 0.0203(14) 0.0273(16) 0.0079(12) -0.0002(13) -0.0050(13)
C12 0.0372(18) 0.0286(16) 0.0313(17) 0.0088(14) 0.0025(14) -0.0050(14)
C13 0.0343(18) 0.0363(18) 0.0229(16) 0.0018(13) -0.0012(13) -0.0030(14)
C14 0.0227(15) 0.0403(18) 0.0203(14) 0.0109(13) 0.0035(12) 0.0034(13)
C15 0.0303(17) 0.054(2) 0.0263(17) 0.0123(16) 0.0056(14) 0.0013(15)
C16 0.0270(15) 0.0300(16) 0.0243(15) 0.0130(13) 0.0058(12) 0.0010(12)
C17 0.0227(15) 0.0349(17) 0.0254(15) 0.0128(13) 0.0008(12) -0.0050(12)
C18 0.0265(15) 0.0309(16) 0.0184(14) 0.0080(12) -0.0006(11) -0.0073(12)
C19 0.0267(15) 0.0301(16) 0.0233(15) 0.0143(13) 0.0057(12) -0.0028(12)
C20 0.0212(15) 0.0413(18) 0.0257(15) 0.0146(14) 0.0009(12) -0.0064(13)
C21 0.0277(16) 0.0393(18) 0.0189(14) 0.0108(13) -0.0018(12) -0.0065(13)
C22 0.0230(15) 0.0330(16) 0.0242(14) 0.0163(13) 0.0026(11) -0.0016(12)
C23 0.0280(16) 0.0261(15) 0.0223(14) 0.0072(12) 0.0030(12) -0.0047(12)
C24 0.0253(15) 0.0292(16) 0.0230(15) 0.0082(12) 0.0056(12) -0.0022(12)
C25 0.0321(17) 0.0277(16) 0.0298(16) 0.0076(13) 0.0061(13) -0.0054(13)
C26 0.0317(17) 0.0332(17) 0.0292(16) 0.0087(14) 0.0124(13) -0.0016(13)
C27 0.0225(15) 0.0301(16) 0.0247(15) 0.0066(13) 0.0029(12) -0.0053(12)
C28 0.0262(16) 0.0315(16) 0.0250(15) 0.0114(13) 0.0022(12) -0.0032(12)
C29 0.0272(15) 0.0237(15) 0.0203(14) 0.0041(12) -0.0001(12) -0.0005(12)
C30 0.0418(19) 0.0278(16) 0.0239(16) 0.0064(13) -0.0053(13) -0.0144(14)
C31 0.046(2) 0.0310(17) 0.0256(16) 0.0125(13) 0.0004(14) -0.0060(14)
C32 0.0283(16) 0.0237(15) 0.0214(14) 0.0053(12) -0.0011(12) -0.0039(12)
C33 0.048(2) 0.0296(17) 0.0309(17) 0.0151(14) -0.0092(15) -0.0144(15)
C34 0.049(2) 0.0343(18) 0.0269(16) 0.0143(14) -0.0114(15) -0.0130(15)
C35 0.050(2) 0.0278(17) 0.0270(16) 0.0116(13) -0.0034(14) -0.0120(14)
C36 0.053(2) 0.0301(17) 0.0237(16) 0.0114(14) -0.0094(15) -0.0112(15)
loop_
_atom_type_symbol
_atom_type_description
_atom_type_scat_dispersion_real
_atom_type_scat_dispersion_imag
_atom_type_scat_source
C C 0.0181 0.0091 'International Tables Vol C Tables 4.2.6.8 and 6.1.1.4'
H H 0.0000 0.0000 'International Tables Vol C Tables 4.2.6.8 and 6.1.1.4'
N N 0.0311 0.0180 'International Tables Vol C Tables 4.2.6.8 and 6.1.1.4'
O O 0.0492 0.0322 'International Tables Vol C Tables 4.2.6.8 and 6.1.1.4'
Zn Zn -1.5491 0.6778 'International Tables Vol C Tables 4.2.6.8 and 6.1.1.4'
loop_
_geom_angle_atom_site_label_1
_geom_angle_atom_site_label_2
_geom_angle_atom_site_label_3
_geom_angle
_geom_angle_site_symmetry_1
_geom_angle_site_symmetry_3
_geom_angle_publ_flag
O9 Zn1 O1 120.01(10) 2_675 . ?
O9 Zn1 N6 95.88(10) 2_675 1_666 ?
O1 Zn1 N6 118.41(10) . 1_666 ?
O9 Zn1 N3 123.84(11) 2_675 2_576 ?
O1 Zn1 N3 94.72(10) . 2_576 ?
N6 Zn1 N3 104.76(10) 1_666 2_576 ?
O9 Zn1 O8 55.80(10) 2_675 2_675 ?
O1 Zn1 O8 87.55(12) . 2_675 ?
N6 Zn1 O8 149.96(11) 1_666 2_675 ?
N3 Zn1 O8 86.49(10) 2_576 2_675 ?
O9 Zn1 C15 28.13(11) 2_675 2_675 ?
O1 Zn1 C15 103.61(11) . 2_675 ?
N6 Zn1 C15 123.74(11) 1_666 2_675 ?
N3 Zn1 C15 107.30(10) 2_576 2_675 ?
O8 Zn1 C15 27.75(10) 2_675 2_675 ?
O6 Zn2 O3 112.37(10) . . ?
O6 Zn2 N1 110.83(10) . . ?
O3 Zn2 N1 110.96(10) . . ?
O6 Zn2 N4 113.53(10) . . ?
O3 Zn2 N4 99.23(9) . . ?
N1 Zn2 N4 109.41(10) . . ?
C21 N1 C17 116.9(3) . . ?
C21 N1 Zn2 121.89(19) . . ?
C17 N1 Zn2 120.9(2) . . ?
C19 N2 C22 129.5(3) . . ?
C19 N2 H2 113(3) . . ?
C22 N2 H2 117(3) . . ?
C25 N3 C24 116.6(3) . . ?
C25 N3 Zn1 126.8(2) . 2_576 ?
C24 N3 Zn1 116.15(19) . 2_576 ?
C31 N4 C27 116.4(2) . . ?
C31 N4 Zn2 126.9(2) . . ?
C27 N4 Zn2 116.66(19) . . ?
C29 N5 C32 133.0(3) . . ?
C29 N5 H5 111(2) . . ?
C32 N5 H5 116(2) . . ?
C35 N6 C34 116.2(3) . . ?
C35 N6 Zn1 124.9(2) . 1_444 ?
C34 N6 Zn1 117.7(2) . 1_444 ?
C1 O1 Zn1 105.17(19) . . ?
C4 O3 Zn2 120.47(19) . . ?
C9 O5 C5 120.1(2) . . ?
C11 O6 Zn2 127.5(2) . . ?
C15 O8 Zn1 80.6(2) . 2_675 ?
C15 O9 Zn1 101.8(2) . 2_675 ?
H1W O10 H2W 107.6 . . ?
O2 C1 O1 121.7(3) . . ?
O2 C1 C2 119.5(3) . . ?
O1 C1 C2 118.8(3) . . ?
C8 C2 C3 119.3(3) . . ?
C8 C2 C1 118.2(3) . . ?
C3 C2 C1 122.4(3) . . ?
C5 C3 C2 118.3(3) . . ?
C5 C3 C4 114.6(2) . . ?
C2 C3 C4 126.9(3) . . ?
O4 C4 O3 125.2(3) . . ?
O4 C4 C3 119.8(2) . . ?
O3 C4 C3 114.6(2) . . ?
C6 C5 C3 122.3(3) . . ?
C6 C5 O5 120.1(3) . . ?
C3 C5 O5 117.3(3) . . ?
C5 C6 C7 119.0(3) . . ?
C5 C6 H6 120.5 . . ?
C7 C6 H6 120.5 . . ?
C6 C7 C8 119.8(3) . . ?
C6 C7 H7 120.1 . . ?
C8 C7 H7 120.1 . . ?
C7 C8 C2 121.3(3) . . ?
C7 C8 H8 119.3 . . ?
C2 C8 H8 119.3 . . ?
C16 C9 O5 124.6(3) . . ?
C16 C9 C10 121.8(3) . . ?
O5 C9 C10 113.6(2) . . ?
C9 C10 C12 118.1(3) . . ?
C9 C10 C11 118.8(3) . . ?
C12 C10 C11 123.2(3) . . ?
O7 C11 O6 123.9(3) . . ?
O7 C11 C10 118.8(3) . . ?
O6 C11 C10 117.3(3) . . ?
C13 C12 C10 120.6(3) . . ?
C13 C12 H12 119.7 . . ?
C10 C12 H12 119.7 . . ?
C14 C13 C12 120.6(3) . . ?
C14 C13 H13 119.7 . . ?
C12 C13 H13 119.7 . . ?
C13 C14 C16 119.3(3) . . ?
C13 C14 C15 122.5(3) . . ?
C16 C14 C15 117.9(3) . . ?
O8 C15 O9 121.4(3) . . ?
O8 C15 C14 119.8(3) . . ?
O9 C15 C14 118.6(3) . . ?
O8 C15 Zn1 71.6(2) . 2_675 ?
O9 C15 Zn1 50.05(18) . 2_675 ?
C14 C15 Zn1 165.7(2) . 2_675 ?
C9 C16 C14 119.5(3) . . ?
C9 C16 H16 120.2 . . ?
C14 C16 H16 120.2 . . ?
N1 C17 C18 122.5(3) . . ?
N1 C17 H17 118.8 . . ?
C18 C17 H17 118.8 . . ?
C17 C18 C19 120.3(3) . . ?
C17 C18 H18 119.9 . . ?
C19 C18 H18 119.9 . . ?
N2 C19 C20 123.7(3) . . ?
N2 C19 C18 118.8(3) . . ?
C20 C19 C18 117.5(3) . . ?
C21 C20 C19 118.6(3) . . ?
C21 C20 H20 120.7 . . ?
C19 C20 H20 120.7 . . ?
N1 C21 C20 124.3(3) . . ?
N1 C21 H21 117.9 . . ?
C20 C21 H21 117.9 . . ?
N2 C22 C26 125.0(3) . . ?
N2 C22 C23 117.8(3) . . ?
C26 C22 C23 117.1(3) . . ?
C24 C23 C22 119.8(3) . . ?
C24 C23 H23 120.1 . . ?
C22 C23 H23 120.1 . . ?
N3 C24 C23 123.4(3) . . ?
N3 C24 H24 118.3 . . ?
C23 C24 H24 118.3 . . ?
N3 C25 C26 124.2(3) . . ?
N3 C25 H25 117.9 . . ?
C26 C25 H25 117.9 . . ?
C25 C26 C22 118.7(3) . . ?
C25 C26 H26 120.6 . . ?
C22 C26 H26 120.6 . . ?
N4 C27 C28 123.1(3) . . ?
N4 C27 H27 118.4 . . ?
C28 C27 H27 118.4 . . ?
C27 C28 C29 120.4(3) . . ?
C27 C28 H28 119.8 . . ?
C29 C28 H28 119.8 . . ?
N5 C29 C30 126.6(3) . . ?
N5 C29 C28 116.8(3) . . ?
C30 C29 C28 116.6(3) . . ?
C31 C30 C29 119.2(3) . . ?
C31 C30 H30 120.4 . . ?
C29 C30 H30 120.4 . . ?
N4 C31 C30 124.2(3) . . ?
N4 C31 H31 117.9 . . ?
C30 C31 H31 117.9 . . ?
N5 C32 C36 127.3(3) . . ?
N5 C32 C33 115.8(3) . . ?
C36 C32 C33 116.8(3) . . ?
C34 C33 C32 120.2(3) . . ?
C34 C33 H33 119.9 . . ?
C32 C33 H33 119.9 . . ?
N6 C34 C33 123.3(3) . . ?
N6 C34 H34 118.3 . . ?
C33 C34 H34 118.3 . . ?
N6 C35 C36 124.5(3) . . ?
N6 C35 H35 117.7 . . ?
C36 C35 H35 117.7 . . ?
C35 C36 C32 119.0(3) . . ?
C35 C36 H36 120.5 . . ?
C32 C36 H36 120.5 . . ?
loop_
_geom_bond_atom_site_label_1
_geom_bond_atom_site_label_2
_geom_bond_distance
_geom_bond_site_symmetry_2
_geom_bond_publ_flag
Zn1 O9 2.022(3) 2_675 ?
Zn1 O1 2.028(2) . ?
Zn1 N6 2.051(2) 1_666 ?
Zn1 N3 2.057(2) 2_576 ?
Zn1 O8 2.484(3) 2_675 ?
Zn1 C15 2.582(3) 2_675 ?
Zn2 O6 1.937(2) . ?
Zn2 O3 1.959(2) . ?
Zn2 N1 2.012(2) . ?
Zn2 N4 2.025(2) . ?
N1 C21 1.345(4) . ?
N1 C17 1.355(4) . ?
N2 C19 1.379(4) . ?
N2 C22 1.381(4) . ?
N2 H2 0.81(4) . ?
N3 C25 1.340(4) . ?
N3 C24 1.341(4) . ?
N3 Zn1 2.057(2) 2_576 ?
N4 C31 1.343(4) . ?
N4 C27 1.352(4) . ?
N5 C29 1.377(4) . ?
N5 C32 1.379(4) . ?
N5 H5 0.84(3) . ?
N6 C35 1.334(4) . ?
N6 C34 1.342(4) . ?
N6 Zn1 2.051(2) 1_444 ?
O1 C1 1.256(4) . ?
O2 C1 1.236(4) . ?
O3 C4 1.282(3) . ?
O4 C4 1.229(3) . ?
O5 C9 1.388(3) . ?
O5 C5 1.392(3) . ?
O6 C11 1.283(4) . ?
O7 C11 1.231(4) . ?
O8 C15 1.218(5) . ?
O8 Zn1 2.483(3) 2_675 ?
O9 C15 1.244(4) . ?
O9 Zn1 2.022(3) 2_675 ?
O10 H1W 0.8500 . ?
O10 H2W 0.8501 . ?
C1 C2 1.504(4) . ?
C2 C8 1.385(4) . ?
C2 C3 1.400(4) . ?
C3 C5 1.390(4) . ?
C3 C4 1.511(4) . ?
C5 C6 1.379(4) . ?
C6 C7 1.381(4) . ?
C6 H6 0.9300 . ?
C7 C8 1.383(4) . ?
C7 H7 0.9300 . ?
C8 H8 0.9300 . ?
C9 C16 1.377(4) . ?
C9 C10 1.389(4) . ?
C10 C12 1.392(4) . ?
C10 C11 1.514(4) . ?
C12 C13 1.387(5) . ?
C12 H12 0.9300 . ?
C13 C14 1.383(5) . ?
C13 H13 0.9300 . ?
C14 C16 1.395(4) . ?
C14 C15 1.517(4) . ?
C15 Zn1 2.581(3) 2_675 ?
C16 H16 0.9300 . ?
C17 C18 1.365(4) . ?
C17 H17 0.9300 . ?
C18 C19 1.399(4) . ?
C18 H18 0.9300 . ?
C19 C20 1.394(4) . ?
C20 C21 1.372(4) . ?
C20 H20 0.9300 . ?
C21 H21 0.9300 . ?
C22 C26 1.395(4) . ?
C22 C23 1.398(4) . ?
C23 C24 1.366(4) . ?
C23 H23 0.9300 . ?
C24 H24 0.9300 . ?
C25 C26 1.376(4) . ?
C25 H25 0.9300 . ?
C26 H26 0.9300 . ?
C27 C28 1.353(4) . ?
C27 H27 0.9300 . ?
C28 C29 1.403(4) . ?
C28 H28 0.9300 . ?
C29 C30 1.391(4) . ?
C30 C31 1.367(4) . ?
C30 H30 0.9300 . ?
C31 H31 0.9300 . ?
C32 C36 1.389(4) . ?
C32 C33 1.391(4) . ?
C33 C34 1.372(4) . ?
C33 H33 0.9300 . ?
C34 H34 0.9300 . ?
C35 C36 1.378(4) . ?
C35 H35 0.9300 . ?
C36 H36 0.9300 . ?
loop_
_geom_hbond_atom_site_label_D
_geom_hbond_atom_site_label_H
_geom_hbond_atom_site_label_A
_geom_hbond_distance_DH
_geom_hbond_distance_HA
_geom_hbond_distance_DA
_geom_hbond_angle_DHA
_geom_hbond_site_symmetry_A
N5 H5 O2 0.84(3) 1.94(3) 2.784(4) 173(3) 2_675
N2 H2 O4 0.81(4) 2.06(4) 2.848(3) 166(4) 2_676
C34 H34 O9 0.93 2.40 3.020(4) 124.2 2_564
C27 H27 O3 0.93 2.44 3.053(4) 123.1 .
C24 H24 O1 0.93 2.53 3.084(4) 118.3 2_576
C21 H21 O7 0.93 2.65 3.223(4) 120.7 1_455
C21 H21 O5 0.93 2.58 3.164(4) 120.9 1_455
C18 H18 O4 0.93 2.46 3.158(4) 131.6 2_676
O10 H2W O3 0.85 2.41 3.258(8) 178.5 2_676
O10 H1W O8 0.85 2.02 2.874(9) 179.0 1_556
N5 H5 O2 0.84(3) 1.94(3) 2.784(4) 173(3) 2_675
N2 H2 O4 0.81(4) 2.06(4) 2.848(3) 166(4) 2_676
C34 H34 O9 0.93 2.40 3.020(4) 124.2 2_564
C27 H27 O3 0.93 2.44 3.053(4) 123.1 .
C24 H24 O1 0.93 2.53 3.084(4) 118.3 2_576
C21 H21 O7 0.93 2.65 3.223(4) 120.7 1_455
C21 H21 O5 0.93 2.58 3.164(4) 120.9 1_455
C18 H18 O4 0.93 2.46 3.158(4) 131.6 2_676
O10 H2W O3 0.85 2.41 3.258(8) 178.5 2_676
O10 H1W O8 0.85 2.02 2.874(9) 179.0 1_556
N5 H5 O2 0.84(3) 1.94(3) 2.784(4) 173(3) 2_675
N2 H2 O4 0.81(4) 2.06(4) 2.848(3) 166(4) 2_676
C34 H34 O9 0.93 2.40 3.020(4) 124.2 2_564
C27 H27 O3 0.93 2.44 3.053(4) 123.1 .
C24 H24 O1 0.93 2.53 3.084(4) 118.3 2_576
C21 H21 O7 0.93 2.65 3.223(4) 120.7 1_455
C21 H21 O5 0.93 2.58 3.164(4) 120.9 1_455
C18 H18 O4 0.93 2.46 3.158(4) 131.6 2_676
O10 H2W O3 0.85 2.41 3.258(8) 178.5 2_676
O10 H1W O8 0.85 2.02 2.874(9) 179.0 1_556
C34 H34 O9 0.93 2.40 3.020(4) 124.2 2_564
C27 H27 O3 0.93 2.44 3.053(4) 123.1 .
C24 H24 O1 0.93 2.53 3.084(4) 118.3 2_576
C21 H21 O7 0.93 2.65 3.223(4) 120.7 1_455
C21 H21 O5 0.93 2.58 3.164(4) 120.9 1_455
C18 H18 O4 0.93 2.46 3.158(4) 131.6 2_676
O10 H2W O3 0.85 2.41 3.258(8) 178.5 2_676
O10 H1W O8 0.85 2.02 2.874(9) 179.0 1_556
O10 H1W O8 0.85 2.02 2.874(9) 179.0 1_556
O10 H2W O3 0.85 2.41 3.258(8) 178.5 2_676
C18 H18 O4 0.93 2.46 3.158(4) 131.6 2_676
C21 H21 O5 0.93 2.58 3.164(4) 120.9 1_455
C21 H21 O7 0.93 2.65 3.223(4) 120.7 1_455
C24 H24 O1 0.93 2.53 3.084(4) 118.3 2_576
C27 H27 O3 0.93 2.44 3.053(4) 123.1 .
C34 H34 O9 0.93 2.40 3.020(4) 124.2 2_564
O10 H1W O8 0.85 2.02 2.874(9) 179.0 1_556
O10 H2W O3 0.85 2.41 3.258(8) 178.5 2_676
C18 H18 O4 0.93 2.46 3.158(4) 131.6 2_676
C21 H21 O5 0.93 2.58 3.164(4) 120.9 1_455
C21 H21 O7 0.93 2.65 3.223(4) 120.7 1_455
C24 H24 O1 0.93 2.53 3.084(4) 118.3 2_576
C27 H27 O3 0.93 2.44 3.053(4) 123.1 .
C34 H34 O9 0.93 2.40 3.020(4) 124.2 2_564
N2 H2 O4 0.81(4) 2.06(4) 2.848(3) 166(4) 2_676
N5 H5 O2 0.84(3) 1.94(3) 2.784(4) 173(3) 2_675
O10 H1W O8 0.85 2.02 2.874(9) 179.0 1_556
O10 H2W O3 0.85 2.41 3.258(8) 178.5 2_676
C18 H18 O4 0.93 2.46 3.158(4) 131.6 2_676
C21 H21 O5 0.93 2.58 3.164(4) 120.9 1_455
C21 H21 O7 0.93 2.65 3.223(4) 120.7 1_455
C24 H24 O1 0.93 2.53 3.084(4) 118.3 2_576
C27 H27 O3 0.93 2.44 3.053(4) 123.1 .
C34 H34 O9 0.93 2.40 3.020(4) 124.2 2_564
N2 H2 O4 0.81(4) 2.06(4) 2.848(3) 166(4) 2_676
N5 H5 O2 0.84(3) 1.94(3) 2.784(4) 173(3) 2_675
loop_
_geom_torsion_atom_site_label_1
_geom_torsion_atom_site_label_2
_geom_torsion_atom_site_label_3
_geom_torsion_atom_site_label_4
_geom_torsion
_geom_torsion_site_symmetry_1
_geom_torsion_site_symmetry_2
_geom_torsion_site_symmetry_3
_geom_torsion_site_symmetry_4
_geom_torsion_publ_flag
Zn1 O1 C1 O2 12.9(4) . . . . ?
Zn1 O1 C1 C2 -165.2(2) . . . . ?
O2 C1 C2 C8 -7.8(4) . . . . ?
O1 C1 C2 C8 170.3(3) . . . . ?
O2 C1 C2 C3 172.6(3) . . . . ?
O1 C1 C2 C3 -9.2(4) . . . . ?
C8 C2 C3 C5 -1.0(4) . . . . ?
C1 C2 C3 C5 178.6(3) . . . . ?
C8 C2 C3 C4 173.3(3) . . . . ?
C1 C2 C3 C4 -7.1(4) . . . . ?
Zn2 O3 C4 O4 -34.8(4) . . . . ?
Zn2 O3 C4 C3 138.5(2) . . . . ?
C5 C3 C4 O4 98.6(3) . . . . ?
C2 C3 C4 O4 -75.9(4) . . . . ?
C5 C3 C4 O3 -75.1(3) . . . . ?
C2 C3 C4 O3 110.4(3) . . . . ?
C2 C3 C5 C6 1.0(4) . . . . ?
C4 C3 C5 C6 -174.0(3) . . . . ?
C2 C3 C5 O5 174.3(2) . . . . ?
C4 C3 C5 O5 -0.7(4) . . . . ?
C9 O5 C5 C6 -80.1(4) . . . . ?
C9 O5 C5 C3 106.5(3) . . . . ?
C3 C5 C6 C7 -0.2(5) . . . . ?
O5 C5 C6 C7 -173.4(3) . . . . ?
C5 C6 C7 C8 -0.5(5) . . . . ?
C6 C7 C8 C2 0.4(5) . . . . ?
C3 C2 C8 C7 0.3(5) . . . . ?
C1 C2 C8 C7 -179.3(3) . . . . ?
C5 O5 C9 C16 16.0(4) . . . . ?
C5 O5 C9 C10 -163.8(3) . . . . ?
C16 C9 C10 C12 3.9(4) . . . . ?
O5 C9 C10 C12 -176.3(3) . . . . ?
C16 C9 C10 C11 -174.8(3) . . . . ?
O5 C9 C10 C11 5.0(4) . . . . ?
Zn2 O6 C11 O7 160.8(2) . . . . ?
Zn2 O6 C11 C10 -17.4(4) . . . . ?
C9 C10 C11 O7 -89.6(4) . . . . ?
C12 C10 C11 O7 91.8(4) . . . . ?
C9 C10 C11 O6 88.7(3) . . . . ?
C12 C10 C11 O6 -89.9(4) . . . . ?
C9 C10 C12 C13 -3.1(5) . . . . ?
C11 C10 C12 C13 175.6(3) . . . . ?
C10 C12 C13 C14 0.3(5) . . . . ?
C12 C13 C14 C16 1.8(5) . . . . ?
C12 C13 C14 C15 -173.0(3) . . . . ?
Zn1 O8 C15 O9 5.4(4) 2_675 . . . ?
Zn1 O8 C15 C14 -170.7(3) 2_675 . . . ?
Zn1 O9 C15 O8 -6.7(4) 2_675 . . . ?
Zn1 O9 C15 C14 169.4(2) 2_675 . . . ?
C13 C14 C15 O8 178.6(4) . . . . ?
C16 C14 C15 O8 3.7(5) . . . . ?
C13 C14 C15 O9 2.5(5) . . . . ?
C16 C14 C15 O9 -172.4(3) . . . . ?
C13 C14 C15 Zn1 37.2(11) . . . 2_675 ?
C16 C14 C15 Zn1 -137.6(9) . . . 2_675 ?
O5 C9 C16 C14 178.4(3) . . . . ?
C10 C9 C16 C14 -1.8(4) . . . . ?
C13 C14 C16 C9 -1.1(5) . . . . ?
C15 C14 C16 C9 174.0(3) . . . . ?
C21 N1 C17 C18 0.7(5) . . . . ?
Zn2 N1 C17 C18 174.7(2) . . . . ?
N1 C17 C18 C19 -0.3(5) . . . . ?
C22 N2 C19 C20 30.2(5) . . . . ?
C22 N2 C19 C18 -152.9(3) . . . . ?
C17 C18 C19 N2 -177.6(3) . . . . ?
C17 C18 C19 C20 -0.5(4) . . . . ?
N2 C19 C20 C21 177.8(3) . . . . ?
C18 C19 C20 C21 0.9(5) . . . . ?
C17 N1 C21 C20 -0.2(5) . . . . ?
Zn2 N1 C21 C20 -174.3(2) . . . . ?
C19 C20 C21 N1 -0.5(5) . . . . ?
C19 N2 C22 C26 13.6(5) . . . . ?
C19 N2 C22 C23 -170.6(3) . . . . ?
N2 C22 C23 C24 -172.1(3) . . . . ?
C26 C22 C23 C24 4.0(4) . . . . ?
C25 N3 C24 C23 -2.0(4) . . . . ?
Zn1 N3 C24 C23 170.7(2) 2_576 . . . ?
C22 C23 C24 N3 -1.1(5) . . . . ?
C24 N3 C25 C26 2.0(5) . . . . ?
Zn1 N3 C25 C26 -169.7(2) 2_576 . . . ?
N3 C25 C26 C22 1.0(5) . . . . ?
N2 C22 C26 C25 171.9(3) . . . . ?
C23 C22 C26 C25 -4.0(5) . . . . ?
C31 N4 C27 C28 -2.4(5) . . . . ?
Zn2 N4 C27 C28 174.8(2) . . . . ?
N4 C27 C28 C29 0.6(5) . . . . ?
C32 N5 C29 C30 -7.1(6) . . . . ?
C32 N5 C29 C28 174.8(3) . . . . ?
C27 C28 C29 N5 -179.5(3) . . . . ?
C27 C28 C29 C30 2.3(5) . . . . ?
N5 C29 C30 C31 178.6(3) . . . . ?
C28 C29 C30 C31 -3.3(5) . . . . ?
C27 N4 C31 C30 1.2(5) . . . . ?
Zn2 N4 C31 C30 -175.6(3) . . . . ?
C29 C30 C31 N4 1.7(5) . . . . ?
C29 N5 C32 C36 -12.2(6) . . . . ?
C29 N5 C32 C33 170.0(3) . . . . ?
N5 C32 C33 C34 178.6(3) . . . . ?
C36 C32 C33 C34 0.6(5) . . . . ?
C35 N6 C34 C33 -0.8(5) . . . . ?
Zn1 N6 C34 C33 -168.9(3) 1_444 . . . ?
C32 C33 C34 N6 0.6(6) . . . . ?
C34 N6 C35 C36 -0.3(5) . . . . ?
Zn1 N6 C35 C36 166.9(3) 1_444 . . . ?
N6 C35 C36 C32 1.5(6) . . . . ?
N5 C32 C36 C35 -179.3(3) . . . . ?
C33 C32 C36 C35 -1.6(5) . . . . ?
