#------------------------------------------------------------------------------
#$Date: 2019-11-08 00:55:45 +0200 (Fri, 08 Nov 2019) $
#$Revision: 224370 $
#$URL: file:///home/coder/svn-repositories/cod/cif/7/70/04/7700490.cif $
#------------------------------------------------------------------------------
#
# This file is available in the Crystallography Open Database (COD),
# http://www.crystallography.net/
#
# All data on this site have been placed in the public domain by the
# contributors.
#
data_7700490
loop_
_publ_author_name
'Liu, Yanhong'
'Ma, Ju'
'Wu, Pengyan'
'Zheng, Jia-Jia'
'Tian, Xueqin'
'Jiang, Min'
'He, Yumei'
'Dong, Han'
'Wang, Jian'
_publ_section_title
;
 A nanoporous metal-organic framework as a renewable size-selective
 hydrogen-bonding catalyst in water.
;
_journal_issue                   31
_journal_name_full
'Dalton transactions (Cambridge, England : 2003)'
_journal_page_first              11855
_journal_page_last               11861
_journal_paper_doi               10.1039/c9dt01763a
_journal_volume                  48
_journal_year                    2019
_chemical_formula_moiety
'C18 H10 N2 O7 Zn1.5, 2(C3 H7 N O), 3[C3H7NO]'
_chemical_formula_sum            'C33 H45 N7 O12 Zn1.5'
_chemical_formula_weight         829.81
_space_group_crystal_system      monoclinic
_space_group_IT_number           14
_space_group_name_Hall           '-P 2ybc'
_space_group_name_H-M_alt        'P 1 21/c 1'
_symmetry_space_group_name_Hall  '-P 2ybc'
_symmetry_space_group_name_H-M   'P 1 21/c 1'
_atom_sites_solution_hydrogens   geom
_audit_creation_method           SHELXL-2018/3
_audit_update_record
;
2019-07-05 deposited with the CCDC.    2019-07-08 downloaded from the CCDC.
;
_cell_angle_alpha                90
_cell_angle_beta                 90.09
_cell_angle_gamma                90
_cell_formula_units_Z            4
_cell_length_a                   5.9994(12)
_cell_length_b                   29.661(6)
_cell_length_c                   19.068(4)
_cell_measurement_reflns_used    3377
_cell_measurement_temperature    296(2)
_cell_measurement_theta_max      22.55
_cell_measurement_theta_min      2.59
_cell_volume                     3393.1(12)
_computing_structure_refinement  'SHELXL-2018/3 (Sheldrick, 2018)'
_diffrn_ambient_temperature      296(2)
_diffrn_measured_fraction_theta_full 0.940
_diffrn_measured_fraction_theta_max 0.940
_diffrn_measurement_device_type  'CCD area detector'
_diffrn_measurement_method       'phi and omega scans'
_diffrn_radiation_type           MoK\a
_diffrn_radiation_wavelength     0.71073
_diffrn_reflns_av_R_equivalents  0.1398
_diffrn_reflns_av_unetI/netI     0.2190
_diffrn_reflns_Laue_measured_fraction_full 0.940
_diffrn_reflns_Laue_measured_fraction_max 0.940
_diffrn_reflns_limit_h_max       7
_diffrn_reflns_limit_h_min       -7
_diffrn_reflns_limit_k_max       34
_diffrn_reflns_limit_k_min       -27
_diffrn_reflns_limit_l_max       22
_diffrn_reflns_limit_l_min       -22
_diffrn_reflns_number            19162
_diffrn_reflns_point_group_measured_fraction_full 0.940
_diffrn_reflns_point_group_measured_fraction_max 0.940
_diffrn_reflns_theta_full        24.997
_diffrn_reflns_theta_max         24.997
_diffrn_reflns_theta_min         1.740
_exptl_absorpt_coefficient_mu    1.146
_exptl_crystal_colour            yellow
_exptl_crystal_density_diffrn    1.624
_exptl_crystal_description       block
_exptl_crystal_F_000             1732
_refine_diff_density_max         0.784
_refine_diff_density_min         -0.593
_refine_diff_density_rms         0.084
_refine_ls_extinction_method     none
_refine_ls_goodness_of_fit_ref   1.003
_refine_ls_hydrogen_treatment    constr
_refine_ls_matrix_type           full
_refine_ls_number_parameters     349
_refine_ls_number_reflns         5607
_refine_ls_number_restraints     37
_refine_ls_restrained_S_all      1.042
_refine_ls_R_factor_all          0.1747
_refine_ls_R_factor_gt           0.0637
_refine_ls_shift/su_max          0.000
_refine_ls_shift/su_mean         0.000
_refine_ls_structure_factor_coef Fsqd
_refine_ls_weighting_details
'w=1/[\s^2^(Fo^2^)+(0.0075P)^2^] where P=(Fo^2^+2Fc^2^)/3'
_refine_ls_weighting_scheme      calc
_refine_ls_wR_factor_gt          0.1152
_refine_ls_wR_factor_ref         0.1262
_reflns_Friedel_coverage         0.000
_reflns_number_gt                2116
_reflns_number_total             5607
_reflns_threshold_expression     'I > 2\s(I)'
_cod_data_source_file            c9dt01763a2.cif
_cod_data_source_block           1_sq
_cod_depositor_comments          'Adding full bibliography for 7700490.cif.'
_cod_original_cell_volume        3393.0(12)
_cod_original_formula_sum        'C33 H45 N7 O12 Zn1.50'
_cod_database_code               7700490
_shelx_shelxl_version_number     2018/3
_shelx_space_group_comment
;
The symmetry employed for this shelxl refinement is uniquely defined
by the following loop, which should always be used as a source of
symmetry information in preference to the above space-group names.
They are only intended as comments.
;
_smtbx_masks_special_details
;
A solvent mask was calculated and 478 electrons were
found in a volume of 988\%A^3 in 1 void per unit cell.
This is consistent with the presence of 3[C3H7NO]
per Formula Unit which account for 480 electrons
per unit cell.
;
_smtbx_masks_void_probe_radius   1.2
_smtbx_masks_void_truncation_radius 1.2
_shelx_res_file
;
TITL 1 in P2(1)/c
    1_sq.res
    created by SHELXL-2018/3 at 09:28:40 on 05-Jul-2019
CELL 0.71073   5.9994  29.6606  19.0676  90.000  90.086  90.000
ZERR   4.00   0.0012   0.0064   0.0040   0.000   0.000   0.000
LATT  1
SYMM -X, 0.5+Y, 0.5-Z
SFAC C H N O ZN
UNIT 132 180 28 48 6
TEMP 23.000

L.S. 10 0  129
BOND
FMAP 2
PLAN 20
DELU 0.05 O2 C2
DELU 0.05 C5 C10
DELU 0.05 C12 C17
SIMU 0.01 0.02 O2 C2 C5 C10 C12 C17
DFIX 1.55 0.02 c22 n4 c23 n4 c19 n3 c20 n3
DFIX 1.25 0.01 C21 o7 c24 o8
DFIX 1.38 0.02 c24 n4 c21 n3
DFIX 2.20 0.02 n4 o8 n3 o7
DFIX 2.70 0.02 c22 C23 C23 C24 C24 C22 C19 C20 C20 C21 C21 C19

ACTA
OMIT 0 50
OMIT 0   3   1
OMIT     0   2   0
OMIT     0   1   1
OMIT     0   2   2
OMIT     0   1   2
OMIT     0   2   3
OMIT     1   3   0
OMIT    -1   3   1
OMIT     0   4   3
OMIT     0   5   3
OMIT    -1   2   2
OMIT 0   8   0
OMIT    -1   1   2
OMIT     1   9   0
OMIT     0   3   4
OMIT     2   6   2
ABIN
WGHT    0.007500
FVAR       0.14278
ZN1   5    1.000000    0.500000    0.500000    10.50000    0.03084    0.02682 =
         0.04032    0.00226   -0.00518   -0.00239
ZN2   5    0.505827    0.451011    0.503923    11.00000    0.03656    0.02187 =
         0.05440   -0.00064    0.00396   -0.00116
O1W   4    0.685175    0.501877    0.541031    11.00000    0.01839    0.03546 =
         0.04755   -0.00616   -0.00697   -0.00300
O6    4    1.365936    0.586163    0.566814    11.00000    0.04892    0.04910 =
         0.06871   -0.01922    0.01204   -0.00309
O4    4    1.638550    0.912003    0.929485    11.00000    0.06432    0.02933 =
         0.08770   -0.03592    0.00194    0.00207
O5    4    1.078727    0.540905    0.588116    11.00000    0.06824    0.06064 =
         0.05568   -0.02348    0.00865   -0.03221
C14   1    1.136549    0.601952    0.664750    11.00000    0.04465    0.05326 =
         0.05336   -0.00899    0.00291   -0.01508
O3    4    1.971500    0.941847    0.936157    11.00000    0.06730    0.03989 =
         0.08092   -0.02813    0.00647   -0.02780
C8    1    2.134693    0.881690    0.834951    11.00000    0.05070    0.05143 =
         0.06374   -0.02465   -0.00535   -0.00125
AFIX  43
H8A   2    2.226261    0.905721    0.847300    11.00000   -1.20000
AFIX   0
C4    1    1.582925    0.753181    0.829103    11.00000    0.09639    0.03034 =
         0.06334   -0.01840   -0.00953   -0.00096
C18   1    1.194561    0.573812    0.601319    11.00000    0.04447    0.03215 =
         0.04901   -0.00622   -0.00123    0.00523
C1    1    1.418996    0.718906    0.816835    11.00000    0.10350    0.05018 =
         0.06793   -0.02298    0.00102   -0.01234
C6    1    1.787428    0.841845    0.849725    11.00000    0.04007    0.03949 =
         0.04556   -0.00888   -0.00924   -0.00322
AFIX  43
H6A   2    1.645195    0.839407    0.868677    11.00000   -1.20000
AFIX   0
C5    1    1.874547    0.809225    0.804673    11.00000    0.07365    0.04220 =
         0.05583   -0.03050    0.01543   -0.01814
N1    3    1.740944    0.772180    0.788568    11.00000    0.08365    0.05975 =
         0.05827   -0.02460    0.01151   -0.00951
AFIX  43
H1A   2    1.761755    0.760063    0.748130    11.00000   -1.20000
AFIX   0
C11   1    1.844851    0.914845    0.914721    11.00000    0.04097    0.03005 =
         0.04398   -0.00351    0.00368    0.00389
C2    1    1.330923    0.721098    0.887976    11.00000    0.13627    0.11742 =
         0.08135   -0.05488    0.05410   -0.08949
C15   1    0.942530    0.595223    0.702064    11.00000    0.06276    0.08082 =
         0.07451   -0.03448    0.02145   -0.01756
AFIX  43
H15A  2    0.841283    0.573502    0.687101    11.00000   -1.20000
AFIX   0
C7    1    1.927092    0.878489    0.864691    11.00000    0.04109    0.04510 =
         0.04464   -0.01014    0.00065    0.00524
C13   1    1.278834    0.635935    0.684763    11.00000    0.05512    0.04748 =
         0.06602   -0.00815    0.00732   -0.01402
AFIX  43
H13A  2    1.405599    0.641493    0.658115    11.00000   -1.20000
AFIX   0
C12   1    1.239054    0.661820    0.742840    11.00000    0.09170    0.05667 =
         0.05749   -0.02680    0.01242   -0.02095
O2    4    1.181004    0.703323    0.920567    11.00000    0.18932    0.13176 =
         0.09363   -0.05043    0.04061   -0.10263
N2    3    1.396444    0.696078    0.755937    11.00000    0.09738    0.05558 =
         0.06710   -0.04145    0.01734   -0.04251
AFIX  43
H2A   2    1.485581    0.703033    0.722354    11.00000   -1.20000
AFIX   0
C16   1    0.895094    0.621131    0.763293    11.00000    0.07132    0.08717 =
         0.11027   -0.02965    0.02392   -0.02786
AFIX  43
H16A  2    0.770411    0.615448    0.790833    11.00000   -1.20000
AFIX   0
C17   1    1.046122    0.655580    0.779770    11.00000    0.10384    0.06447 =
         0.07255   -0.04175    0.01414   -0.02571
AFIX  43
H17A  2    1.014257    0.674802    0.816961    11.00000   -1.20000
AFIX   0
O8    4    0.609721    0.499465    0.684153    11.00000    0.08465    0.15047 =
         0.07331    0.00361    0.00210   -0.02186
C24   1    0.426253    0.490884    0.702723    11.00000    0.09824    0.10067 =
         0.07644   -0.00897   -0.03175   -0.00581
AFIX  43
H24A  2    0.326439    0.482579    0.667666    11.00000   -1.20000
AFIX   0
O1    4    1.551221    0.777351    0.954694    11.00000    0.17253    0.09576 =
         0.06802   -0.04237    0.02045   -0.05682
N4    3    0.344752    0.491703    0.768484    11.00000    0.10442    0.30114 =
         0.07641    0.03292    0.00051   -0.05039
O7    4    1.736080    0.776972    1.162373    11.00000    0.17627    0.09657 =
         0.07722    0.05869    0.03702    0.03645
N3    3    1.970088    0.792171    1.073044    11.00000    0.09246    0.06647 =
         0.09616   -0.01610   -0.02283    0.01159
C20   1    2.037758    0.816944    1.010284    11.00000    0.10787    0.12450 =
         0.08685    0.03430    0.02586   -0.03527
AFIX  33
H20A  2    2.180026    0.806087    0.994669    11.00000   -1.50000
H20B  2    1.929088    0.812523    0.973922    11.00000   -1.50000
H20C  2    2.048588    0.848485    1.021059    11.00000   -1.50000
AFIX   0
C21   1    1.777739    0.798107    1.110314    11.00000    0.09285    0.17186 =
         0.12139   -0.05907    0.00110    0.01570
AFIX  43
H21A  2    1.675085    0.819367    1.094710    11.00000   -1.20000
AFIX   0
C19   1    2.133153    0.752894    1.089309    11.00000    0.14506    0.21328 =
         0.13675    0.02542    0.02819    0.06737
AFIX  33
H19A  2    2.257702    0.754303    1.057834    11.00000   -1.50000
H19B  2    2.185242    0.755446    1.136772    11.00000   -1.50000
H19C  2    2.057363    0.724641    1.083379    11.00000   -1.50000
AFIX   0
C9    1    2.211667    0.850401    0.787363    11.00000    0.05483    0.07288 =
         0.08937   -0.04479    0.02281   -0.00467
AFIX  43
H9A   2    2.348254    0.853882    0.765007    11.00000   -1.20000
AFIX   0
C3    1    1.497740    0.756131    0.903693    11.00000    0.12712    0.06471 =
         0.04926   -0.03542    0.01917   -0.01712
C10   1    2.075772    0.813443    0.774356    11.00000    0.08999    0.05541 =
         0.06572   -0.03125    0.02494    0.00462
AFIX  43
H10A  2    2.125052    0.791059    0.743947    11.00000   -1.20000
AFIX   0
C23   1    0.454734    0.520329    0.829847    11.00000    0.17483    0.74959 =
         0.17957   -0.14239    0.03344   -0.18842
AFIX  33
H23A  2    0.370908    0.516164    0.872201    11.00000   -1.50000
H23B  2    0.605382    0.510450    0.837128    11.00000   -1.50000
H23C  2    0.454383    0.551674    0.817299    11.00000   -1.50000
AFIX   0
C22   1    0.101235    0.477124    0.787081    11.00000    0.15304    0.27834 =
         0.18493   -0.01424   -0.00509   -0.05803
AFIX  33
H22A  2    0.077928    0.480302    0.836635    11.00000   -1.50000
H22B  2   -0.002608    0.495895    0.762239    11.00000   -1.50000
H22C  2    0.078992    0.446232    0.773780    11.00000   -1.50000

AFIX   0
HKLF 4




REM  1 in P2(1)/c
REM wR2 = 0.1262, GooF = S = 1.003, Restrained GooF = 1.042 for all data
REM R1 = 0.0637 for 2116 Fo > 4sig(Fo) and 0.1747 for all 5607 data
REM 349 parameters refined using 37 restraints

END

WGHT      0.0642      0.0000

REM Highest difference peak  0.784,  deepest hole -0.593,  1-sigma level  0.084
Q1    1   0.6235  0.4517  0.4999  11.00000  0.05    0.78
Q2    1   1.1216  0.5001  0.4993  11.00000  0.05    0.70
Q3    1   0.3796  0.4514  0.5041  11.00000  0.05    0.63
Q4    1   1.5962  0.9426  0.9190  11.00000  0.05    0.49
Q5    1   0.7263  0.4803  0.5206  11.00000  0.05    0.45
Q6    1   1.7529  0.8462  1.0671  11.00000  0.05    0.45
Q7    1   0.6686  0.5005  0.5941  11.00000  0.05    0.43
Q8    1   0.8877  0.4989  0.5724  11.00000  0.05    0.42
Q9    1   0.4905  0.4719  0.8148  11.00000  0.05    0.40
Q10   1   0.6764  0.4995  0.4790  11.00000  0.05    0.36
Q11   1   0.2913  0.5020  0.6016  11.00000  0.05    0.36
Q12   1   0.4129  0.5388  0.8046  11.00000  0.05    0.35
Q13   1   1.4002  0.5492  0.5672  11.00000  0.05    0.34
Q14   1   0.5425  0.5012  0.5354  11.00000  0.05    0.34
Q15   1   1.9312  0.7871  1.1357  11.00000  0.05    0.33
Q16   1   1.1740  0.5432  0.5937  11.00000  0.05    0.33
Q17   1   0.4161  0.4605  0.8095  11.00000  0.05    0.33
Q18   1   2.0750  0.8632  0.8987  11.00000  0.05    0.32
Q19   1   1.2188  0.4993  0.5622  11.00000  0.05    0.32
Q20   1   1.7469  0.9089  0.9176  11.00000  0.05    0.32
;
_shelx_res_checksum              46831
_shelx_fab_file
;
    0    0    4     43.53      0.00
    0    0    6      7.83      0.00
    0    0    8      1.80      0.00
    0    0   10      2.41      0.00
    0    0   12     -0.97      0.00
    0    0   14      2.22      0.00
    0    0   16      1.35      0.00
    0    0   18     -0.32      0.00
    0    0   20     -0.11      0.00
    0    0   22     -1.77      0.00
    1    0    0    -23.75      0.00
    1    0    2      4.60      0.00
   -1    0    6     -7.71      0.00
   -1    0    8      2.17      0.00
    1    0    8      2.94      0.00
   -1    0   10     -0.74      0.00
    1    0   10     -0.69      0.00
   -1    0   12      1.48      0.00
    1    0   12     -4.65      0.00
    1    0   14     -2.57      0.00
   -1    0   14      0.47      0.00
    1    0   16     -3.26      0.00
   -1    0   16      1.62      0.00
   -1    0   18      3.90      0.00
    1    0   18     -3.21      0.00
   -1    0   20      4.22      0.00
    1    0   20     -3.38      0.00
    2    0    0    -14.22      0.00
    2    0    2     -2.64      0.00
   -2    0    4     -5.13      0.00
    2    0    4     -4.43      0.00
    2    0    6     -1.67      0.00
    2    0    8      0.05      0.00
    2    0   10      1.06      0.00
   -2    0   14     -0.15      0.00
   -2    0   16     -1.22      0.00
    2    0   16      1.75      0.00
   -2    0   18      4.85      0.00
    2    0   18     -2.57      0.00
   -2    0   20      5.01      0.00
    2    0   20     -0.24      0.00
    3    0    0     -0.64      0.00
    3    0    2     -0.66      0.00
   -3    0    2      2.27      0.00
    3    0    4     -0.70      0.00
   -3    0    4     -1.81      0.00
    3    0    6     -1.21      0.00
    3    0    8      0.51      0.00
    3    0   12      1.23      0.00
    3    0   14      0.93      0.00
   -3    0   14     -3.16      0.00
   -3    0   16      2.25      0.00
    3    0   16     -2.07      0.00
    3    0   18     -2.81      0.00
   -3    0   18     -1.02      0.00
    3    0   20     -5.42      0.00
    4    0    0      0.88      0.00
    4    0    2      3.38      0.00
   -4    0    2     -1.67      0.00
   -4    0    4      1.90      0.00
    4    0    4      0.80      0.00
    4    0    6     -0.23      0.00
   -4    0    6     -0.96      0.00
   -4    0    8     -1.76      0.00
    4    0    8     -0.33      0.00
    4    0   10      0.72      0.00
    4    0   12     -1.09      0.00
   -4    0   12     -2.97      0.00
    4    0   14     -0.96      0.00
   -4    0   14     -1.34      0.00
   -4    0   16     -0.60      0.00
    4    0   16      5.32      0.00
   -4    0   18      0.20      0.00
    4    0   18      5.99      0.00
    5    0    0      2.57      0.00
   -5    0    2      1.47      0.00
    5    0    2     -0.28      0.00
    5    0    4      0.03      0.00
   -5    0    4      1.51      0.00
   -5    0    6     -1.23      0.00
    5    0    6      4.64      0.00
   -5    0    8     -3.61      0.00
    5    0    8      2.88      0.00
    5    0   10      4.24      0.00
   -5    0   10     -7.67      0.00
    5    0   12      0.67      0.00
   -5    0   12      1.67      0.00
    5    0   14     -2.92      0.00
   -5    0   14      2.14      0.00
    5    0   16     -0.67      0.00
    6    0    0     -9.50      0.00
    6    0    2      3.71      0.00
   -6    0    2     -2.70      0.00
   -6    0    4      0.06      0.00
   -6    0    6      0.16      0.00
   -6    0    8     -0.80      0.00
   -6    0   10      0.69      0.00
   -6    0   12     -5.14      0.00
   -7    0    2      0.46      0.00
   -7    0    4     -1.98      0.00
    0    1   22      5.43      0.00
    0    1   21     -0.42      0.00
    0    1   20      5.52      0.00
    0    1   19      0.24      0.00
    0    1   18      1.77      0.00
    0    1   17     -0.37      0.00
    0    1   16     -0.17      0.00
    0    1   15     -1.34      0.00
    0    1   14      0.59      0.00
    0    1   13     -0.83      0.00
    0    1   12      0.78      0.00
    0    1   11      0.83      0.00
    0    1   10      0.59      0.00
    0    1    9     -3.05      0.00
    0    1    8      0.18      0.00
    0    1    7     -0.72      0.00
    0    1    6      3.30      0.00
    0    1    5    -16.43      0.00
    0    1    4     13.24      0.00
    0    1    2     66.41      0.00
    0    1    1   -298.65      0.00
   -1    1   21     -1.91      0.00
    1    1   21      0.79      0.00
   -1    1   20     -1.19      0.00
    1    1   20     -1.53      0.00
   -1    1   19     -4.15      0.00
    1    1   19      2.72      0.00
   -1    1   18     -2.27      0.00
    1    1   18      0.84      0.00
   -1    1   17     -1.65      0.00
    1    1   17      2.24      0.00
   -1    1   16      0.33      0.00
    1    1   16      0.95      0.00
   -1    1   15     -1.49      0.00
    1    1   15      2.16      0.00
   -1    1   14      1.15      0.00
    1    1   14      0.46      0.00
   -1    1   13     -0.59      0.00
    1    1   13      3.28      0.00
   -1    1   12      1.33      0.00
   -1    1   11     -1.00      0.00
    1    1   11      3.08      0.00
   -1    1   10     -0.69      0.00
    1    1   10      0.63      0.00
   -1    1    9      1.53      0.00
    1    1    8      1.37      0.00
   -1    1    8     -0.41      0.00
   -1    1    6     -1.25      0.00
    1    1    6      0.37      0.00
    1    1    5      9.72      0.00
    1    1    3     -3.96      0.00
   -1    1    2      0.83      0.00
    1    1    1      2.10      0.00
    1    1    0    -34.19      0.00
   -1    1    1      4.06      0.00
    1    1    4    -11.55      0.00
   -1    1    7      1.03      0.00
    1    1   12      0.27      0.00
    2    1   21     -1.04      0.00
   -2    1   21     -4.42      0.00
   -2    1   20      1.38      0.00
    2    1   20      3.52      0.00
   -2    1   19     -4.67      0.00
    2    1   19      0.68      0.00
   -2    1   18     -0.17      0.00
    2    1   18      4.20      0.00
   -2    1   17     -1.24      0.00
    2    1   17      1.17      0.00
   -2    1   16     -0.52      0.00
   -2    1   15      1.57      0.00
    2    1   15     -1.62      0.00
   -2    1   14      0.22      0.00
    2    1   14      0.23      0.00
   -2    1   13     -0.87      0.00
   -2    1   12     -0.83      0.00
    2    1   12     -0.24      0.00
    2    1   11     -1.94      0.00
   -2    1   10      1.81      0.00
    2    1   10     -1.03      0.00
   -2    1    9     -1.65      0.00
    2    1    9      1.42      0.00
    2    1    8     -2.14      0.00
    2    1    7      0.05      0.00
    2    1    6     -5.24      0.00
   -2    1    6      1.05      0.00
    2    1    5      1.98      0.00
    2    1    4     -1.97      0.00
   -2    1    4     -4.38      0.00
    2    1    3      0.54      0.00
    2    1    1      3.20      0.00
   -2    1    1     10.20      0.00
    2    1    0     -2.37      0.00
    2    1    2     -3.37      0.00
    2    1   13     -1.20      0.00
    3    1   20      2.82      0.00
   -3    1   19      0.84      0.00
    3    1   19      3.38      0.00
    3    1   18     -2.83      0.00
   -3    1   18      0.87      0.00
    3    1   17      4.05      0.00
   -3    1   17     -1.66      0.00
    3    1   16     -6.86      0.00
   -3    1   16      1.26      0.00
    3    1   15      1.30      0.00
   -3    1   15      0.91      0.00
    3    1   14     -3.87      0.00
   -3    1   14     -1.27      0.00
    3    1   13     -0.56      0.00
    3    1   12     -0.57      0.00
   -3    1   12     -0.31      0.00
    3    1   11      0.42      0.00
   -3    1   11      3.68      0.00
    3    1   10      1.85      0.00
   -3    1   10     -0.20      0.00
    3    1    9     -0.65      0.00
    3    1    8      2.28      0.00
   -3    1    8     -1.61      0.00
    3    1    7      0.74      0.00
    3    1    6      2.10      0.00
   -3    1    6     -0.65      0.00
    3    1    5      0.64      0.00
    3    1    4      1.43      0.00
   -3    1    4      0.66      0.00
    3    1    3      0.34      0.00
   -3    1    3     -1.86      0.00
    3    1    2      1.29      0.00
   -3    1    2     -1.55      0.00
    3    1    1     -0.38      0.00
   -3    1    1     -0.36      0.00
    3    1    0      1.09      0.00
    4    1   18     11.85      0.00
    4    1   17     -5.28      0.00
   -4    1   17      0.12      0.00
    4    1   16      3.83      0.00
   -4    1   16     -2.67      0.00
    4    1   15     -0.34      0.00
   -4    1   15      0.07      0.00
    4    1   14      1.06      0.00
   -4    1   14     -2.15      0.00
    4    1   13      1.63      0.00
   -4    1   13      1.68      0.00
    4    1   12      2.50      0.00
   -4    1   12      0.15      0.00
    4    1   11      0.00      0.00
   -4    1   10      0.66      0.00
    4    1   10     -0.39      0.00
    4    1    9     -0.13      0.00
   -4    1    9     -1.22      0.00
    4    1    8     -2.04      0.00
   -4    1    8     -1.40      0.00
    4    1    7     -0.43      0.00
   -4    1    7      2.81      0.00
    4    1    6     -0.30      0.00
   -4    1    6      1.50      0.00
    4    1    5     -0.42      0.00
   -4    1    5     -0.87      0.00
   -4    1    4     -1.12      0.00
    4    1    4      1.32      0.00
   -4    1    3      0.87      0.00
    4    1    3     -1.10      0.00
   -4    1    2     -2.54      0.00
    4    1    2      0.46      0.00
   -4    1    1      1.26      0.00
    4    1    1     -1.19      0.00
    4    1    0      0.35      0.00
   -4    1   11      0.61      0.00
   -4    1   18      0.49      0.00
    5    1   16      3.07      0.00
   -5    1   15      3.34      0.00
   -5    1   14      2.55      0.00
    5    1   13      3.57      0.00
   -5    1   13     -3.03      0.00
   -5    1   12     -0.90      0.00
    5    1   11     -1.03      0.00
   -5    1   11      3.48      0.00
   -5    1   10      1.27      0.00
    5    1   10      0.56      0.00
   -5    1    9      5.39      0.00
    5    1    9     -1.68      0.00
   -5    1    8      1.37      0.00
    5    1    8      2.32      0.00
    5    1    7     -4.15      0.00
   -5    1    7      2.56      0.00
   -5    1    6     -1.12      0.00
    5    1    6      2.71      0.00
    5    1    5     -2.07      0.00
   -5    1    5     -0.03      0.00
    5    1    4      0.12      0.00
   -5    1    4     -0.91      0.00
   -5    1    3     -1.91      0.00
    5    1    3      1.44      0.00
   -5    1    2      0.71      0.00
    5    1    2     -0.85      0.00
    5    1    1     -0.71      0.00
   -5    1    1     -1.77      0.00
    5    1    0     -2.25      0.00
    5    1   12      3.71      0.00
    5    1   14     -0.87      0.00
    5    1   15      1.83      0.00
   -6    1   12      1.49      0.00
   -6    1   11      0.61      0.00
   -6    1   10     -0.61      0.00
   -6    1    9      0.83      0.00
   -6    1    8     -0.85      0.00
   -6    1    7     -0.88      0.00
   -6    1    6     -0.70      0.00
   -6    1    5     -0.29      0.00
   -6    1    4      3.45      0.00
   -6    1    3      1.65      0.00
    6    1    2     -4.25      0.00
   -6    1    2      1.13      0.00
    6    1    1      3.83      0.00
   -6    1    1      6.77      0.00
    6    1    0     -0.43      0.00
    6    1    4      0.28      0.00
    6    1    5     -8.76      0.00
    6    1    6     -0.94      0.00
    6    1    7     -8.40      0.00
    6    1    8      0.83      0.00
    6    1   12     -0.92      0.00
   -7    1    4      2.73      0.00
   -7    1    3      0.74      0.00
   -7    1    2      1.68      0.00
   -7    1    1     -4.06      0.00
    0    2   22      3.38      0.00
    0    2   21     -7.68      0.00
    0    2   20      0.99      0.00
    0    2   19     -3.57      0.00
    0    2   18      0.33      0.00
    0    2   17     -0.47      0.00
    0    2   16      0.25      0.00
    0    2   15      0.21      0.00
    0    2   14      0.80      0.00
    0    2   13     -0.79      0.00
    0    2   12     -0.41      0.00
    0    2   11     -1.94      0.00
    0    2   10      1.09      0.00
    0    2    9      1.82      0.00
    0    2    8     -1.08      0.00
    0    2    7     -3.08      0.00
    0    2    6      4.91      0.00
    0    2    5      3.18      0.00
    0    2    4     20.70      0.00
    0    2    2     54.62      0.00
    0    2    1    -61.08      0.00
    0    2    0     90.07      0.00
    0    2    3    -37.06      0.00
   -1    2   21      1.95      0.00
    1    2   21      2.98      0.00
   -1    2   20      0.35      0.00
    1    2   20      0.41      0.00
    1    2   19     -0.18      0.00
   -1    2   19      0.95      0.00
    1    2   18     -0.84      0.00
   -1    2   18      0.84      0.00
   -1    2   17      0.88      0.00
    1    2   17     -1.27      0.00
   -1    2   16      0.41      0.00
    1    2   16     -0.63      0.00
    1    2   15     -1.17      0.00
   -1    2   15     -0.94      0.00
    1    2   14     -1.65      0.00
   -1    2   14      1.15      0.00
   -1    2   13     -1.78      0.00
    1    2   13      0.31      0.00
   -1    2   12      1.40      0.00
    1    2   12     -2.81      0.00
   -1    2   11      1.36      0.00
    1    2   11     -1.16      0.00
   -1    2   10     -1.67      0.00
   -1    2    9      0.51      0.00
    1    2    9      0.17      0.00
   -1    2    8     -2.68      0.00
   -1    2    7      3.78      0.00
    1    2    7     -1.09      0.00
    1    2    3     20.75      0.00
   -1    2    3      2.01      0.00
   -1    2    2     10.91      0.00
    1    2    2      6.20      0.00
    1    2    1     46.05      0.00
   -1    2    1     -3.38      0.00
    1    2    0     16.02      0.00
    1    2    8      5.19      0.00
    2    2   21     -4.89      0.00
   -2    2   20      4.20      0.00
    2    2   20      1.60      0.00
   -2    2   19      0.44      0.00
    2    2   19     -3.38      0.00
   -2    2   18      1.06      0.00
    2    2   18     -0.10      0.00
   -2    2   17      1.28      0.00
    2    2   17     -5.67      0.00
   -2    2   16     -0.38      0.00
   -2    2   15     -0.69      0.00
    2    2   15     -3.03      0.00
    2    2   14     -0.93      0.00
   -2    2   13      1.23      0.00
    2    2   13      1.04      0.00
   -2    2   12      0.30      0.00
    2    2   12      1.81      0.00
   -2    2   11     -0.38      0.00
    2    2   11      1.83      0.00
   -2    2   10      0.50      0.00
    2    2   10     -0.87      0.00
   -2    2    9     -2.18      0.00
    2    2    9      1.57      0.00
    2    2    8     -2.21      0.00
   -2    2    7     -1.68      0.00
    2    2    7      2.89      0.00
    2    2    6      1.56      0.00
    2    2    5      3.15      0.00
    2    2    4      2.29      0.00
    2    2    3      2.75      0.00
    2    2    2      2.30      0.00
    2    2    1      4.58      0.00
   -2    2    1      2.07      0.00
    2    2    0      7.21      0.00
   -2    2    8     -0.25      0.00
   -2    2   14     -0.76      0.00
   -2    2   21     -2.46      0.00
    3    2   20      1.98      0.00
   -3    2   19      1.38      0.00
    3    2   19     -0.85      0.00
   -3    2   18      2.57      0.00
    3    2   18     -4.29      0.00
   -3    2   17     -2.18      0.00
    3    2   17      6.35      0.00
   -3    2   16     -1.22      0.00
    3    2   16     -4.96      0.00
    3    2   15      7.45      0.00
   -3    2   15      0.71      0.00
   -3    2   14     -4.01      0.00
    3    2   14     -0.99      0.00
   -3    2   13      1.23      0.00
    3    2   13      3.65      0.00
    3    2   12     -2.53      0.00
    3    2   11     -0.93      0.00
   -3    2   11      0.96      0.00
    3    2   10     -1.69      0.00
   -3    2   10     -3.08      0.00
    3    2    9     -3.76      0.00
   -3    2    9      1.06      0.00
    3    2    7     -3.02      0.00
    3    2    6     -0.44      0.00
    3    2    5     -1.27      0.00
   -3    2    5     -1.68      0.00
    3    2    4     -0.24      0.00
    3    2    3     -1.38      0.00
   -3    2    3     -0.30      0.00
   -3    2    2     -0.03      0.00
    3    2    2      1.36      0.00
   -3    2    1      0.07      0.00
    3    2    1     -0.28      0.00
    3    2    0      0.44      0.00
   -3    2   20      1.26      0.00
    4    2   18      3.48      0.00
    4    2   17     -9.20      0.00
   -4    2   17      0.76      0.00
   -4    2   16      0.88      0.00
    4    2   16     -1.53      0.00
    4    2   15     -1.13      0.00
   -4    2   15      2.15      0.00
    4    2   14     -1.77      0.00
   -4    2   14      0.54      0.00
    4    2   13     -1.83      0.00
   -4    2   13      1.63      0.00
    4    2   12     -0.15      0.00
   -4    2   12     -1.23      0.00
    4    2   11     -1.77      0.00
   -4    2   11     -2.94      0.00
    4    2   10     -0.34      0.00
    4    2    9      2.30      0.00
   -4    2    9      0.19      0.00
   -4    2    8     -0.88      0.00
    4    2    8      0.85      0.00
    4    2    7      1.34      0.00
   -4    2    7     -1.39      0.00
    4    2    6      1.76      0.00
    4    2    5     -0.30      0.00
   -4    2    5     -1.61      0.00
    4    2    4      0.09      0.00
   -4    2    4     -1.02      0.00
   -4    2    3      3.43      0.00
    4    2    3     -0.83      0.00
   -4    2    2     -1.40      0.00
    4    2    2     -1.80      0.00
    4    2    1      0.08      0.00
   -4    2    1      1.99      0.00
    4    2    0     -0.64      0.00
   -4    2   18     -1.13      0.00
   -5    2   15     -1.60      0.00
   -5    2   14     -0.93      0.00
   -5    2   13     -1.80      0.00
   -5    2   12     -0.24      0.00
   -5    2   11      1.37      0.00
    5    2   10     -2.86      0.00
   -5    2   10     -2.36      0.00
   -5    2    9     -1.67      0.00
    5    2    9     -0.54      0.00
    5    2    8      2.70      0.00
   -5    2    8     -2.79      0.00
    5    2    7     -4.34      0.00
   -5    2    7      1.72      0.00
   -5    2    6     -1.55      0.00
    5    2    6      2.93      0.00
   -5    2    5      0.52      0.00
    5    2    5     -1.22      0.00
    5    2    4     -0.26      0.00
   -5    2    4      1.16      0.00
    5    2    3      0.55      0.00
   -5    2    3      1.00      0.00
    5    2    2     -1.53      0.00
   -5    2    2      1.39      0.00
    5    2    1      0.76      0.00
   -5    2    1     -0.69      0.00
    5    2    0      0.02      0.00
    5    2   11     -2.51      0.00
    5    2   12     -3.72      0.00
    5    2   13     -2.73      0.00
    5    2   14     -2.36      0.00
    5    2   15     -1.41      0.00
   -6    2   11     -0.57      0.00
   -6    2   10     -1.01      0.00
   -6    2    9     -0.62      0.00
   -6    2    8      0.18      0.00
   -6    2    7     -0.89      0.00
   -6    2    6      2.67      0.00
   -6    2    5     -0.62      0.00
   -6    2    4     -1.93      0.00
    6    2    3      1.56      0.00
   -6    2    3     -3.20      0.00
    6    2    2     -0.16      0.00
   -6    2    2     -5.43      0.00
    6    2    1      3.45      0.00
   -6    2    1      0.28      0.00
    6    2    0     -2.42      0.00
    6    2    4      0.24      0.00
    6    2    5     -2.15      0.00
    6    2    6      0.41      0.00
    6    2    7      1.89      0.00
    6    2    8     -4.28      0.00
    6    2    9     -2.98      0.00
    6    2   10     -4.00      0.00
    6    2   11     -0.74      0.00
   -6    2   12     -2.03      0.00
    6    2   12     -2.08      0.00
   -7    2    4      1.00      0.00
   -7    2    3     -3.66      0.00
   -7    2    2      2.02      0.00
   -7    2    1      3.06      0.00
    7    2    0      2.99      0.00
    7    2    1     -7.47      0.00
    0    3   22      2.10      0.00
    0    3   21     -2.47      0.00
    0    3   20      2.06      0.00
    0    3   19     -1.20      0.00
    0    3   18      0.58      0.00
    0    3   17     -0.89      0.00
    0    3   16     -1.12      0.00
    0    3   15     -0.40      0.00
    0    3   14     -0.23      0.00
    0    3   13     -0.58      0.00
    0    3   12      0.98      0.00
    0    3   11     -2.30      0.00
    0    3   10      0.42      0.00
    0    3    9      0.76      0.00
    0    3    8     -3.12      0.00
    0    3    7     -0.38      0.00
    0    3    6      0.34      0.00
    0    3    5    -10.98      0.00
    0    3    4    -20.02      0.00
    0    3    2     20.42      0.00
    0    3    1     76.05      0.00
    0    3    3      0.24      0.00
    1    3   22     -0.34      0.00
   -1    3   21      0.94      0.00
    1    3   21     -2.35      0.00
    1    3   20     -0.95      0.00
   -1    3   20      1.10      0.00
    1    3   19     -1.28      0.00
   -1    3   19      2.69      0.00
   -1    3   18      0.26      0.00
    1    3   18      0.46      0.00
   -1    3   17      2.06      0.00
    1    3   17      0.15      0.00
   -1    3   16      1.52      0.00
    1    3   16      1.17      0.00
   -1    3   15      0.21      0.00
    1    3   15      0.72      0.00
    1    3   14     -0.11      0.00
   -1    3   14     -0.09      0.00
   -1    3   13     -1.96      0.00
    1    3   13      1.12      0.00
   -1    3   12      0.49      0.00
    1    3   12      0.27      0.00
   -1    3   11     -0.15      0.00
    1    3   11      2.47      0.00
   -1    3   10     -3.30      0.00
    1    3   10     -0.12      0.00
   -1    3    9      2.59      0.00
    1    3    9     -2.16      0.00
   -1    3    8     -0.86      0.00
    1    3    8     -1.72      0.00
   -1    3    6     -6.50      0.00
    1    3    6      0.42      0.00
    1    3    5      8.20      0.00
    1    3    4      8.42      0.00
    1    3    3      7.20      0.00
    1    3    2     -5.61      0.00
    1    3    1    -10.16      0.00
    1    3    0      6.01      0.00
   -1    3    1    -21.94      0.00
    2    3   21     -2.59      0.00
   -2    3   20      0.12      0.00
    2    3   20      2.92      0.00
   -2    3   19     -0.83      0.00
    2    3   19     -0.57      0.00
   -2    3   18     -2.12      0.00
    2    3   18      0.89      0.00
   -2    3   17     -0.73      0.00
    2    3   17      0.51      0.00
   -2    3   16     -0.49      0.00
    2    3   16      1.58      0.00
   -2    3   15      0.54      0.00
   -2    3   14      0.02      0.00
    2    3   14     -0.23      0.00
   -2    3   13      1.55      0.00
   -2    3   12     -1.36      0.00
    2    3   12     -2.28      0.00
   -2    3   11     -1.39      0.00
    2    3   11     -0.78      0.00
   -2    3   10      1.16      0.00
    2    3   10     -3.12      0.00
    2    3    9      1.25      0.00
   -2    3    9      0.14      0.00
    2    3    8      0.78      0.00
   -2    3    8     -0.63      0.00
    2    3    7     -0.91      0.00
    2    3    6      1.03      0.00
   -2    3    6      0.23      0.00
    2    3    4      0.00      0.00
    2    3    3     -0.23      0.00
    2    3    2     -2.96      0.00
   -2    3    2     -2.69      0.00
   -2    3    1    -18.65      0.00
    2    3    0      2.18      0.00
    2    3    5     -4.87      0.00
    2    3   13     -0.78      0.00
   -2    3   21     -0.68      0.00
    3    3   20      2.21      0.00
    3    3   19     -4.58      0.00
   -3    3   19     -3.61      0.00
    3    3   18     -0.88      0.00
   -3    3   18      1.52      0.00
   -3    3   17      0.63      0.00
    3    3   17      5.10      0.00
    3    3   16     -2.74      0.00
   -3    3   16      0.18      0.00
   -3    3   15      4.78      0.00
    3    3   15      3.00      0.00
    3    3   14     -4.52      0.00
   -3    3   14      0.29      0.00
    3    3   13      2.20      0.00
   -3    3   13      2.69      0.00
    3    3   12     -2.31      0.00
   -3    3   12     -1.24      0.00
    3    3   11      2.58      0.00
   -3    3   11      2.59      0.00
    3    3   10      2.56      0.00
   -3    3   10     -1.21      0.00
    3    3    9      0.94      0.00
   -3    3    9      1.50      0.00
    3    3    8      3.32      0.00
   -3    3    8     -0.10      0.00
    3    3    7      0.72      0.00
   -3    3    7     -2.04      0.00
   -3    3    6      0.85      0.00
    3    3    6      0.88      0.00
    3    3    5      0.26      0.00
    3    3    4     -0.73      0.00
   -3    3    4      3.39      0.00
   -3    3    3      2.16      0.00
    3    3    3     -0.40      0.00
    3    3    2      0.42      0.00
   -3    3    2      1.68      0.00
    3    3    1      0.17      0.00
   -3    3    1      1.59      0.00
    3    3    0     -2.84      0.00
   -3    3   20     -1.02      0.00
   -4    3   17     -0.51      0.00
   -4    3   16      0.63      0.00
    4    3   16      0.52      0.00
   -4    3   15     -1.18      0.00
    4    3   14     -0.93      0.00
   -4    3   14     -1.40      0.00
    4    3   13     -0.12      0.00
   -4    3   13      1.45      0.00
    4    3   12      0.74      0.00
   -4    3   12      1.25      0.00
    4    3   11     -0.30      0.00
    4    3   10     -0.23      0.00
   -4    3   10      3.78      0.00
    4    3    9      0.01      0.00
   -4    3    9      0.24      0.00
   -4    3    8      1.26      0.00
    4    3    8     -0.96      0.00
    4    3    7     -1.37      0.00
    4    3    6     -0.46      0.00
   -4    3    6      4.49      0.00
    4    3    5     -0.89      0.00
   -4    3    5      1.92      0.00
   -4    3    4     -0.89      0.00
    4    3    4     -0.24      0.00
    4    3    3      1.84      0.00
   -4    3    3      0.74      0.00
   -4    3    2     -1.86      0.00
    4    3    2      0.15      0.00
    4    3    1      1.31      0.00
   -4    3    1     -1.03      0.00
    4    3    0      0.71      0.00
    4    3   15      4.35      0.00
    4    3   17      2.21      0.00
   -4    3   18      1.58      0.00
    4    3   18      5.99      0.00
   -5    3   15     -1.72      0.00
   -5    3   14      2.13      0.00
   -5    3   13      0.68      0.00
   -5    3   12     -0.95      0.00
   -5    3   11     -0.38      0.00
   -5    3   10     -1.49      0.00
   -5    3    9     -0.33      0.00
   -5    3    8     -2.92      0.00
    5    3    8      1.52      0.00
    5    3    7     -3.04      0.00
   -5    3    7      0.11      0.00
   -5    3    6     -1.33      0.00
    5    3    6      1.42      0.00
   -5    3    5     -0.34      0.00
    5    3    5     -1.54      0.00
   -5    3    4      0.13      0.00
    5    3    4     -1.41      0.00
   -5    3    3      0.34      0.00
    5    3    3      0.17      0.00
    5    3    2      0.10      0.00
   -5    3    2     -2.58      0.00
    5    3    1      1.28      0.00
   -5    3    1      0.16      0.00
    5    3    0      2.12      0.00
    5    3    9      0.20      0.00
    5    3   10     -2.35      0.00
    5    3   11      5.62      0.00
    5    3   12      0.58      0.00
    5    3   13     -1.63      0.00
    5    3   14      2.54      0.00
    5    3   15      0.15      0.00
   -5    3   16     -3.70      0.00
   -6    3   11      0.70      0.00
   -6    3   10      0.91      0.00
   -6    3    9      0.53      0.00
   -6    3    8      6.66      0.00
   -6    3    7     -1.50      0.00
   -6    3    6      2.09      0.00
   -6    3    5     -0.62      0.00
   -6    3    4     -0.63      0.00
   -6    3    3      4.36      0.00
    6    3    3      5.21      0.00
   -6    3    2      0.64      0.00
    6    3    2     -0.18      0.00
   -6    3    1      0.64      0.00
    6    3    1     -1.82      0.00
    6    3    0     -1.02      0.00
    6    3    4      3.02      0.00
    6    3    5      3.45      0.00
    6    3    6      1.74      0.00
    6    3    7      7.51      0.00
    6    3    8     -1.01      0.00
    6    3    9      8.88      0.00
    6    3   10     -0.91      0.00
    6    3   11     -0.73      0.00
   -6    3   12     -0.42      0.00
    6    3   12      2.76      0.00
   -7    3    3     -2.86      0.00
   -7    3    2     -1.51      0.00
   -7    3    1     -0.51      0.00
    7    3    0      7.40      0.00
    7    3    1     -0.29      0.00
    7    3    3     -2.23      0.00
    0    4   22      1.44      0.00
    0    4   21      2.33      0.00
    0    4   20      0.63      0.00
    0    4   19      0.51      0.00
    0    4   18      2.01      0.00
    0    4   17      1.01      0.00
    0    4   16      0.66      0.00
    0    4   15      1.93      0.00
    0    4   14      0.55      0.00
    0    4   13      0.96      0.00
    0    4   12      3.55      0.00
    0    4   11     -1.45      0.00
    0    4   10      2.80      0.00
    0    4    9      4.03      0.00
    0    4    8     -0.03      0.00
    0    4    7     -0.98      0.00
    0    4    6      6.06      0.00
    0    4    5     13.67      0.00
    0    4    4     14.39      0.00
    0    4    2    -35.68      0.00
    0    4    1     12.67      0.00
    0    4    0   -112.99      0.00
    0    4    3     38.17      0.00
    1    4   22      2.79      0.00
    1    4   21     -1.60      0.00
   -1    4   21      1.36      0.00
   -1    4   20     -2.21      0.00
    1    4   20      2.06      0.00
    1    4   19      1.39      0.00
   -1    4   19     -0.91      0.00
   -1    4   18     -4.62      0.00
    1    4   18      0.39      0.00
   -1    4   17     -2.31      0.00
    1    4   17     -0.22      0.00
   -1    4   16     -2.51      0.00
    1    4   16     -0.86      0.00
   -1    4   15     -0.57      0.00
    1    4   15     -0.52      0.00
    1    4   14     -0.95      0.00
   -1    4   14      0.85      0.00
   -1    4   13      0.19      0.00
    1    4   13      0.08      0.00
   -1    4   12      1.12      0.00
    1    4   12     -0.20      0.00
    1    4   11      0.71      0.00
   -1    4   11      0.39      0.00
   -1    4   10     -0.04      0.00
    1    4   10     -3.21      0.00
   -1    4    9      1.45      0.00
    1    4    9      0.73      0.00
    1    4    7      3.47      0.00
   -1    4    7      3.90      0.00
   -1    4    6     -5.54      0.00
    1    4    6     -1.14      0.00
    1    4    5     -6.57      0.00
    1    4    4     -4.57      0.00
   -1    4    4     -7.96      0.00
    1    4    2    -13.40      0.00
    1    4    1    -19.54      0.00
    1    4    0      6.85      0.00
    2    4   21     -2.39      0.00
    2    4   20     -0.31      0.00
   -2    4   20     -2.63      0.00
    2    4   19     -1.10      0.00
   -2    4   19      0.90      0.00
   -2    4   18      0.99      0.00
    2    4   18     -0.80      0.00
   -2    4   17      1.75      0.00
    2    4   17      1.67      0.00
   -2    4   16      1.10      0.00
    2    4   16     -0.68      0.00
   -2    4   15      0.87      0.00
    2    4   15      0.99      0.00
   -2    4   14     -2.68      0.00
    2    4   14      0.06      0.00
   -2    4   13      0.32      0.00
    2    4   13      0.81      0.00
   -2    4   12     -0.26      0.00
   -2    4   11      0.00      0.00
   -2    4   10      2.13      0.00
   -2    4    9      0.02      0.00
    2    4    9      0.89      0.00
    2    4    8      1.54      0.00
    2    4    7     -3.08      0.00
    2    4    5     -2.43      0.00
    2    4    4      0.86      0.00
   -2    4    3     -4.01      0.00
    2    4    3      0.06      0.00
   -2    4    1      2.54      0.00
    2    4    1     -3.31      0.00
    2    4    0     10.10      0.00
   -2    4    7      0.88      0.00
   -2    4    8     -1.71      0.00
    2    4   10      0.40      0.00
    2    4   11      3.58      0.00
    2    4   12      1.41      0.00
   -2    4   21     -5.72      0.00
    3    4   20     12.52      0.00
    3    4   19      0.26      0.00
   -3    4   19     -1.37      0.00
   -3    4   18      0.47      0.00
    3    4   18      4.22      0.00
   -3    4   17     -0.16      0.00
    3    4   17     -2.79      0.00
    3    4   16     -3.08      0.00
   -3    4   16     -3.53      0.00
    3    4   15     -1.75      0.00
   -3    4   15     -2.24      0.00
    3    4   14     -1.84      0.00
   -3    4   14     -3.09      0.00
    3    4   13      3.29      0.00
   -3    4   13     -1.86      0.00
    3    4   12     -1.36      0.00
   -3    4   12     -1.98      0.00
    3    4   11     -0.23      0.00
   -3    4   11      1.04      0.00
    3    4   10      0.64      0.00
   -3    4   10     -1.26      0.00
    3    4    9     -1.89      0.00
   -3    4    9     -1.59      0.00
    3    4    8      0.57      0.00
   -3    4    8      1.00      0.00
    3    4    7     -1.37      0.00
   -3    4    7     -1.07      0.00
    3    4    6     -0.59      0.00
   -3    4    6      2.36      0.00
    3    4    5      1.62      0.00
   -3    4    5     -3.15      0.00
    3    4    4      0.28      0.00
   -3    4    4     -2.22      0.00
    3    4    3      0.91      0.00
   -3    4    3     -3.61      0.00
    3    4    2     -1.60      0.00
   -3    4    2     -2.72      0.00
    3    4    1      1.38      0.00
   -3    4    1     -2.28      0.00
    3    4    0     -2.89      0.00
   -3    4   20      4.23      0.00
   -4    4   17     -1.93      0.00
   -4    4   16      1.65      0.00
    4    4   15      2.54      0.00
   -4    4   15     -0.05      0.00
    4    4   14     -2.74      0.00
   -4    4   14     -2.22      0.00
    4    4   13      1.57      0.00
   -4    4   13      0.85      0.00
    4    4   12      1.87      0.00
   -4    4   12     -0.84      0.00
    4    4   11      0.76      0.00
   -4    4   11     -2.96      0.00
    4    4   10      0.62      0.00
   -4    4   10     -1.25      0.00
    4    4    9     -0.22      0.00
   -4    4    9     -2.00      0.00
    4    4    8      0.19      0.00
    4    4    7      0.36      0.00
   -4    4    7     -4.33      0.00
    4    4    6     -0.79      0.00
    4    4    5      0.27      0.00
   -4    4    5     -2.87      0.00
   -4    4    4     -1.06      0.00
    4    4    4     -0.48      0.00
   -4    4    3      0.53      0.00
    4    4    3     -0.33      0.00
   -4    4    2      1.78      0.00
    4    4    2     -0.03      0.00
   -4    4    1     -0.25      0.00
    4    4    1     -1.35      0.00
    4    4    0      2.13      0.00
   -4    4    6     -0.69      0.00
    4    4   16     -3.67      0.00
    4    4   17      3.96      0.00
   -4    4   18     -0.36      0.00
   -5    4   15      1.17      0.00
   -5    4   14      4.53      0.00
   -5    4   13      0.72      0.00
   -5    4   12     -0.92      0.00
   -5    4   11      2.57      0.00
   -5    4   10      1.93      0.00
   -5    4    9      3.40      0.00
   -5    4    8      1.94      0.00
   -5    4    7      2.63      0.00
   -5    4    6      2.93      0.00
   -5    4    5     -0.11      0.00
    5    4    5      2.03      0.00
    5    4    4      1.99      0.00
   -5    4    4     -2.13      0.00
    5    4    3      2.36      0.00
   -5    4    3      2.00      0.00
    5    4    2      0.56      0.00
   -5    4    2     -1.04      0.00
   -5    4    1      3.63      0.00
    5    4    1     -2.29      0.00
    5    4    0      0.24      0.00
    5    4    7      0.41      0.00
    5    4    8      2.14      0.00
    5    4    9      3.24      0.00
    5    4   10     -1.75      0.00
    5    4   11      7.11      0.00
    5    4   12      1.29      0.00
    5    4   13      1.75      0.00
    5    4   14      8.42      0.00
    5    4   15     -7.23      0.00
   -6    4   11      0.66      0.00
   -6    4   10     -0.23      0.00
   -6    4    9     -5.34      0.00
   -6    4    8      0.14      0.00
   -6    4    7     -9.15      0.00
   -6    4    6     -0.89      0.00
   -6    4    5     -0.50      0.00
   -6    4    4     -0.84      0.00
   -6    4    3      1.37      0.00
    6    4    3     -2.70      0.00
    6    4    2     -1.21      0.00
   -6    4    2      0.48      0.00
   -6    4    1     -1.19      0.00
    6    4    1     -1.17      0.00
    6    4    0      3.71      0.00
    6    4    4     -3.43      0.00
    6    4    5     -2.38      0.00
    6    4    6     -1.63      0.00
    6    4    7     -3.25      0.00
    6    4    8     -7.66      0.00
    6    4    9      3.68      0.00
    6    4   10     -1.59      0.00
    6    4   11      0.76      0.00
   -6    4   12      1.77      0.00
   -7    4    2      1.40      0.00
   -7    4    1      4.38      0.00
    7    4    0     -0.14      0.00
    7    4    1     -2.87      0.00
    7    4    2     -3.65      0.00
   -7    4    3     -2.09      0.00
    7    4    3     -2.04      0.00
    0    5   22     -3.27      0.00
    0    5   21      1.36      0.00
    0    5   20     -1.94      0.00
    0    5   19     -1.01      0.00
    0    5   18     -0.10      0.00
    0    5   17     -0.10      0.00
    0    5   16     -1.96      0.00
    0    5   15     -0.09      0.00
    0    5   14     -2.78      0.00
    0    5   13     -1.20      0.00
    0    5   12      0.79      0.00
    0    5   11     -5.62      0.00
    0    5   10     -1.48      0.00
    0    5    9     -0.43      0.00
    0    5    8     -2.10      0.00
    0    5    7     -4.24      0.00
    0    5    6      0.56      0.00
    0    5    5     -7.09      0.00
    0    5    4    -21.48      0.00
    0    5    3    -19.40      0.00
    0    5    2    -35.22      0.00
    0    5    1     24.44      0.00
    1    5   22      2.35      0.00
    1    5   21     -0.83      0.00
   -1    5   21     -0.38      0.00
   -1    5   20     -1.97      0.00
    1    5   20      0.40      0.00
    1    5   19     -0.60      0.00
   -1    5   19      3.06      0.00
    1    5   18     -1.32      0.00
   -1    5   18      0.47      0.00
   -1    5   17      1.81      0.00
    1    5   17      0.05      0.00
   -1    5   16      1.69      0.00
    1    5   16      0.44      0.00
    1    5   15      1.45      0.00
   -1    5   15      1.94      0.00
   -1    5   14     -0.85      0.00
    1    5   14      1.03      0.00
   -1    5   13     -1.64      0.00
    1    5   13     -1.00      0.00
   -1    5   12      1.19      0.00
    1    5   12     -1.40      0.00
    1    5   11      0.57      0.00
    1    5   10     -0.17      0.00
   -1    5   10      1.69      0.00
   -1    5    9      0.15      0.00
    1    5    9      1.80      0.00
   -1    5    8     -0.80      0.00
   -1    5    6     -5.65      0.00
    1    5    6     -0.42      0.00
    1    5    5      0.38      0.00
    1    5    4      2.87      0.00
    1    5    1     15.11      0.00
    1    5    0     26.16      0.00
   -1    5    5     -5.23      0.00
   -1    5   11      0.30      0.00
    2    5   21      0.70      0.00
   -2    5   20      4.52      0.00
    2    5   20      1.59      0.00
    2    5   19      2.64      0.00
   -2    5   19      1.64      0.00
   -2    5   18     -0.60      0.00
    2    5   18      1.69      0.00
   -2    5   17     -0.39      0.00
    2    5   17      1.16      0.00
   -2    5   16     -2.24      0.00
    2    5   16     -1.45      0.00
   -2    5   15      0.95      0.00
    2    5   15     -2.06      0.00
   -2    5   14     -0.19      0.00
    2    5   14      0.05      0.00
   -2    5   13      2.81      0.00
    2    5   13     -1.85      0.00
   -2    5   12      0.63      0.00
    2    5   12     -1.65      0.00
   -2    5   11     -1.78      0.00
   -2    5   10      0.25      0.00
    2    5   10     -2.15      0.00
    2    5    9     -0.70      0.00
    2    5    8      0.38      0.00
   -2    5    8     -0.22      0.00
    2    5    6      1.45      0.00
   -2    5    6      2.77      0.00
    2    5    5     -5.24      0.00
    2    5    4     -0.79      0.00
    2    5    2      3.97      0.00
   -2    5    2      3.71      0.00
    2    5    1     -0.70      0.00
   -2    5    1     -0.80      0.00
    2    5    0      1.81      0.00
   -2    5    7      0.74      0.00
    2    5   11      0.04      0.00
   -2    5   21      6.07      0.00
    3    5   20     -0.45      0.00
    3    5   19     -9.73      0.00
   -3    5   19     -1.83      0.00
   -3    5   18     -0.54      0.00
    3    5   18      0.38      0.00
   -3    5   17      0.85      0.00
    3    5   17     -3.74      0.00
    3    5   16      5.63      0.00
   -3    5   16      2.14      0.00
   -3    5   15      1.12      0.00
    3    5   15      2.09      0.00
    3    5   14      0.46      0.00
   -3    5   14      3.77      0.00
    3    5   13      1.30      0.00
    3    5   12     -0.93      0.00
   -3    5   12      1.38      0.00
    3    5   11     -1.14      0.00
    3    5   10      1.52      0.00
    3    5    9     -2.28      0.00
   -3    5    9     -0.72      0.00
    3    5    8      0.21      0.00
   -3    5    8      2.40      0.00
    3    5    7     -0.89      0.00
   -3    5    7     -1.30      0.00
    3    5    6      0.09      0.00
   -3    5    6      1.07      0.00
    3    5    5      0.14      0.00
   -3    5    5     -1.16      0.00
    3    5    4     -1.48      0.00
   -3    5    4      3.67      0.00
    3    5    3     -0.23      0.00
    3    5    2     -1.25      0.00
   -3    5    2      1.29      0.00
    3    5    1      3.12      0.00
    3    5    0      0.48      0.00
   -3    5    1      1.30      0.00
   -3    5   11      0.67      0.00
   -3    5   13      1.95      0.00
   -3    5   20     -0.85      0.00
   -4    5   17     -1.04      0.00
   -4    5   16      0.30      0.00
   -4    5   15      0.37      0.00
   -4    5   14     -0.91      0.00
    4    5   13      1.07      0.00
   -4    5   13      0.92      0.00
    4    5   12     -1.32      0.00
   -4    5   12      0.69      0.00
    4    5   11     -2.27      0.00
   -4    5   11      0.03      0.00
    4    5   10     -0.68      0.00
   -4    5   10     -0.21      0.00
    4    5    9     -1.09      0.00
   -4    5    9      0.79      0.00
    4    5    8     -0.73      0.00
   -4    5    8      1.68      0.00
    4    5    7      1.76      0.00
    4    5    6     -0.58      0.00
   -4    5    6      3.46      0.00
    4    5    5      1.67      0.00
   -4    5    5      1.34      0.00
    4    5    4      1.10      0.00
   -4    5    4      0.61      0.00
    4    5    3     -0.96      0.00
   -4    5    3     -0.20      0.00
   -4    5    2      1.01      0.00
    4    5    2      1.50      0.00
   -4    5    1     -1.89      0.00
    4    5    1     -2.82      0.00
    4    5    0     -0.09      0.00
    4    5   14     -0.63      0.00
    4    5   15      2.60      0.00
    4    5   16     -4.16      0.00
    4    5   17     -1.68      0.00
   -4    5   18      2.48      0.00
   -5    5   14     -2.03      0.00
   -5    5   13     -1.12      0.00
   -5    5   12     -3.51      0.00
   -5    5   11      0.50      0.00
   -5    5   10     -2.17      0.00
   -5    5    9     -1.00      0.00
   -5    5    8     -0.40      0.00
    5    5    7     -0.22      0.00
   -5    5    7     -2.97      0.00
    5    5    6     -1.08      0.00
   -5    5    6     -0.20      0.00
   -5    5    5      0.72      0.00
    5    5    5     -1.14      0.00
    5    5    4     -2.86      0.00
   -5    5    4     -2.20      0.00
    5    5    3     -2.24      0.00
   -5    5    3      2.53      0.00
    5    5    2     -0.41      0.00
   -5    5    2     -1.00      0.00
    5    5    1     -1.51      0.00
   -5    5    1     -1.68      0.00
    5    5    0      1.69      0.00
    5    5    8     -2.85      0.00
    5    5    9     -1.47      0.00
    5    5   10     -6.77      0.00
    5    5   11     -1.52      0.00
    5    5   12     -9.94      0.00
    5    5   13     -7.18      0.00
    5    5   14      1.21      0.00
   -5    5   15     -9.09      0.00
    5    5   15    -10.51      0.00
   -6    5   10     -0.91      0.00
   -6    5    9     -0.92      0.00
   -6    5    8      5.44      0.00
   -6    5    7      1.74      0.00
   -6    5    6      6.31      0.00
   -6    5    5      1.00      0.00
   -6    5    4      0.88      0.00
   -6    5    3     -2.48      0.00
    6    5    2      1.29      0.00
   -6    5    2      0.06      0.00
    6    5    1     -0.63      0.00
   -6    5    1     -2.69      0.00
    6    5    0      0.22      0.00
    6    5    3     -1.38      0.00
    6    5    4     -0.94      0.00
    6    5    5     -2.42      0.00
    6    5    6      4.09      0.00
    6    5    7     -1.03      0.00
    6    5    8      2.76      0.00
    6    5    9     -0.90      0.00
    6    5   10     -3.58      0.00
   -6    5   11      1.18      0.00
    6    5   11     -2.42      0.00
   -7    5    2      1.64      0.00
    7    5    1      1.45      0.00
   -7    5    1     -3.61      0.00
    7    5    0     -2.00      0.00
   -7    5    3     -0.68      0.00
    0    6   22     -3.83      0.00
    0    6   21      1.77      0.00
    0    6   20     -0.98      0.00
    0    6   19     -0.65      0.00
    0    6   18     -1.26      0.00
    0    6   17      0.73      0.00
    0    6   16     -1.98      0.00
    0    6   15      2.06      0.00
    0    6   14     -1.18      0.00
    0    6   13      0.68      0.00
    0    6   12      2.63      0.00
    0    6   11     -1.29      0.00
    0    6   10      1.53      0.00
    0    6    9      2.74      0.00
    0    6    8      0.89      0.00
    0    6    7     -0.50      0.00
    0    6    6      0.50      0.00
    0    6    5      2.26      0.00
    0    6    4     10.83      0.00
    0    6    3      7.85      0.00
    0    6    2     24.88      0.00
    0    6    1     10.74      0.00
    0    6    0     11.35      0.00
    1    6   22      1.04      0.00
    1    6   21     -1.01      0.00
   -1    6   21     -1.65      0.00
   -1    6   20      0.20      0.00
    1    6   20     -0.90      0.00
   -1    6   19      2.11      0.00
    1    6   19     -0.96      0.00
    1    6   18      0.94      0.00
   -1    6   18      0.74      0.00
   -1    6   17      0.15      0.00
    1    6   17     -0.57      0.00
    1    6   16     -0.02      0.00
   -1    6   16     -0.64      0.00
    1    6   15     -0.82      0.00
   -1    6   15      0.65      0.00
   -1    6   14     -0.84      0.00
    1    6   14     -0.10      0.00
    1    6   13     -0.34      0.00
   -1    6   13      0.64      0.00
    1    6   12      1.80      0.00
   -1    6   12      0.81      0.00
    1    6   11      2.13      0.00
   -1    6   11     -2.96      0.00
    1    6   10      2.43      0.00
   -1    6    9     -2.47      0.00
    1    6    9     -2.79      0.00
   -1    6    8     -2.57      0.00
   -1    6    7      1.11      0.00
    1    6    5     -2.75      0.00
   -1    6    5      2.57      0.00
    1    6    2    -12.29      0.00
    1    6    1      8.91      0.00
    1    6    0      0.45      0.00
    1    6    7      0.48      0.00
   -1    6   10      0.46      0.00
    2    6   21     -1.35      0.00
    2    6   20     -0.68      0.00
   -2    6   20     -2.68      0.00
   -2    6   19     -1.86      0.00
    2    6   19     -1.98      0.00
   -2    6   18     -2.44      0.00
    2    6   18     -3.48      0.00
    2    6   17     -3.01      0.00
   -2    6   17      1.07      0.00
   -2    6   16     -1.46      0.00
    2    6   16     -0.10      0.00
   -2    6   15      0.88      0.00
    2    6   15     -0.20      0.00
   -2    6   14     -1.68      0.00
    2    6   14      2.78      0.00
   -2    6   13     -1.35      0.00
    2    6   13     -0.35      0.00
   -2    6   12     -1.52      0.00
    2    6   12     -0.35      0.00
    2    6   11      1.17      0.00
    2    6   10     -1.54      0.00
    2    6    9      1.21      0.00
    2    6    7     -0.27      0.00
   -2    6    7      0.33      0.00
    2    6    5      3.01      0.00
   -2    6    5     -2.56      0.00
    2    6    4      2.36      0.00
   -2    6    4     -3.36      0.00
    2    6    3     -0.40      0.00
    2    6    2      0.41      0.00
   -2    6    2     -5.21      0.00
    2    6    1     -2.76      0.00
   -2    6    1     -3.63      0.00
    2    6    0     -2.46      0.00
   -2    6    8      1.10      0.00
   -2    6    9      0.66      0.00
   -2    6   10      2.36      0.00
   -2    6   11     -0.32      0.00
   -2    6   21     -3.38      0.00
    3    6   20      2.42      0.00
    3    6   19      1.04      0.00
   -3    6   19      3.00      0.00
   -3    6   18      0.74      0.00
   -3    6   17     -0.97      0.00
   -3    6   16      1.27      0.00
    3    6   15     -1.92      0.00
   -3    6   15     -2.15      0.00
    3    6   14     -2.75      0.00
   -3    6   14      0.06      0.00
   -3    6   13     -1.22      0.00
    3    6   13      1.30      0.00
    3    6   12      0.33      0.00
    3    6   11     -1.84      0.00
   -3    6   11     -1.99      0.00
    3    6   10      0.53      0.00
    3    6    9     -0.74      0.00
    3    6    8      1.76      0.00
    3    6    7      0.34      0.00
   -3    6    7     -0.59      0.00
    3    6    6      0.47      0.00
   -3    6    6      2.08      0.00
    3    6    5     -1.00      0.00
   -3    6    5     -1.41      0.00
    3    6    4      0.84      0.00
   -3    6    4      2.36      0.00
    3    6    3      1.32      0.00
   -3    6    3     -1.77      0.00
    3    6    2     -0.09      0.00
   -3    6    1      1.55      0.00
    3    6    1      0.84      0.00
    3    6    0     -0.34      0.00
   -3    6   10      0.98      0.00
    3    6   16      2.26      0.00
    3    6   17     -0.96      0.00
    3    6   18      6.61      0.00
   -3    6   20      1.86      0.00
   -4    6   17     -2.43      0.00
   -4    6   16      1.05      0.00
   -4    6   15      0.44      0.00
   -4    6   14      1.35      0.00
   -4    6   13     -1.68      0.00
   -4    6   12      1.68      0.00
   -4    6   11      1.90      0.00
    4    6   10      2.38      0.00
   -4    6   10     -0.60      0.00
    4    6    9      1.70      0.00
   -4    6    9      1.60      0.00
    4    6    8      0.09      0.00
   -4    6    8      2.76      0.00
    4    6    7      1.97      0.00
   -4    6    7     -0.71      0.00
    4    6    6     -1.08      0.00
   -4    6    6      1.09      0.00
    4    6    5     -0.93      0.00
   -4    6    5     -0.17      0.00
   -4    6    4     -2.09      0.00
    4    6    4     -0.16      0.00
    4    6    3     -0.62      0.00
   -4    6    3      0.31      0.00
    4    6    2      2.36      0.00
   -4    6    2     -0.14      0.00
   -4    6    1     -1.40      0.00
    4    6    1      0.68      0.00
    4    6    0      1.78      0.00
    4    6   11      1.03      0.00
    4    6   12     -1.13      0.00
    4    6   13     -2.11      0.00
    4    6   14     -2.64      0.00
    4    6   15      0.81      0.00
    4    6   16      3.60      0.00
    4    6   17      1.25      0.00
   -4    6   18     -0.55      0.00
   -5    6   14      2.56      0.00
   -5    6   13      4.94      0.00
   -5    6   12     -0.69      0.00
   -5    6   11      2.79      0.00
   -5    6   10     -0.71      0.00
   -5    6    9     -0.50      0.00
   -5    6    8     -0.61      0.00
    5    6    7      0.71      0.00
   -5    6    7     -2.97      0.00
    5    6    6     -1.00      0.00
   -5    6    6     -1.58      0.00
    5    6    5     -0.63      0.00
   -5    6    5      2.66      0.00
    5    6    4      1.16      0.00
   -5    6    4     -2.76      0.00
   -5    6    3      0.13      0.00
    5    6    3     -0.03      0.00
   -5    6    2      2.07      0.00
    5    6    2      1.91      0.00
   -5    6    1     -2.13      0.00
    5    6    1      0.07      0.00
    5    6    0      1.00      0.00
    5    6    8     -0.25      0.00
    5    6    9      2.05      0.00
    5    6   10      2.42      0.00
    5    6   11      5.43      0.00
    5    6   12      2.90      0.00
    5    6   13      6.16      0.00
    5    6   14      4.90      0.00
   -5    6   15     -1.48      0.00
   -6    6   10     -2.41      0.00
   -6    6    9      3.92      0.00
   -6    6    8      1.57      0.00
   -6    6    7     -1.70      0.00
   -6    6    6     -0.47      0.00
   -6    6    5     -4.73      0.00
    6    6    4      4.94      0.00
   -6    6    4      2.30      0.00
   -6    6    3     -1.39      0.00
   -6    6    2      1.35      0.00
    6    6    2      1.83      0.00
    6    6    1      0.47      0.00
   -6    6    1      1.89      0.00
    6    6    0     -1.52      0.00
    6    6    3      3.01      0.00
    6    6    5      0.34      0.00
    6    6    6      1.92      0.00
    6    6    7     -5.35      0.00
    6    6    8      5.17      0.00
    6    6    9     -0.79      0.00
    6    6   10      4.98      0.00
   -6    6   11      1.64      0.00
    6    6   11      0.19      0.00
    7    6    1      5.32      0.00
    7    6    0      5.24      0.00
   -7    6    1     -8.21      0.00
   -7    6    2      4.23      0.00
    0    7   22      0.05      0.00
    0    7   21      2.91      0.00
    0    7   20      0.88      0.00
    0    7   19      1.97      0.00
    0    7   18      0.14      0.00
    0    7   17      3.36      0.00
    0    7   16      0.21      0.00
    0    7   15      3.19      0.00
    0    7   14     -0.49      0.00
    0    7   13      0.65      0.00
    0    7   12      2.29      0.00
    0    7   11     -0.16      0.00
    0    7   10     -1.63      0.00
    0    7    9      1.12      0.00
    0    7    8     -0.58      0.00
    0    7    7      1.63      0.00
    0    7    6     -2.84      0.00
    0    7    5      1.00      0.00
    0    7    4      6.18      0.00
    0    7    3    -15.09      0.00
    0    7    2      6.06      0.00
    0    7    1    -12.12      0.00
   -1    7   21      0.63      0.00
    1    7   21     -0.48      0.00
    1    7   20      2.34      0.00
   -1    7   20      2.43      0.00
   -1    7   19     -1.79      0.00
    1    7   19     -0.04      0.00
   -1    7   18     -0.36      0.00
    1    7   18      4.00      0.00
    1    7   17     -1.24      0.00
   -1    7   17     -1.27      0.00
   -1    7   16     -2.06      0.00
    1    7   16      1.04      0.00
   -1    7   15      1.19      0.00
    1    7   15     -0.27      0.00
   -1    7   14     -0.22      0.00
    1    7   14      0.13      0.00
    1    7   13      0.38      0.00
   -1    7   13      0.23      0.00
    1    7   12     -1.55      0.00
   -1    7   12     -1.26      0.00
   -1    7   11     -1.41      0.00
    1    7   10      1.39      0.00
   -1    7   10      3.20      0.00
    1    7    8      1.15      0.00
   -1    7    8     -0.12      0.00
   -1    7    7      3.20      0.00
    1    7    7      5.02      0.00
    1    7    6      3.99      0.00
    1    7    4     -3.43      0.00
    1    7    3      8.06      0.00
    1    7    2    -20.65      0.00
    1    7    0     -4.99      0.00
    1    7    1     -6.67      0.00
   -1    7    9     -0.82      0.00
    2    7   21      0.72      0.00
    2    7   20     -0.83      0.00
   -2    7   20     -0.99      0.00
   -2    7   19      2.26      0.00
    2    7   19      0.21      0.00
   -2    7   18     -0.67      0.00
    2    7   18      2.51      0.00
   -2    7   17      3.74      0.00
    2    7   17      3.93      0.00
   -2    7   16      0.61      0.00
    2    7   16      2.38      0.00
   -2    7   15      1.01      0.00
    2    7   15     -0.08      0.00
    2    7   14      0.85      0.00
   -2    7   14      0.19      0.00
    2    7   13      0.23      0.00
   -2    7   13      1.96      0.00
   -2    7   12      1.60      0.00
    2    7   12      1.41      0.00
    2    7   11      2.08      0.00
   -2    7   11      0.36      0.00
    2    7   10     -0.72      0.00
    2    7    9      1.92      0.00
   -2    7    9     -1.22      0.00
    2    7    8      0.24      0.00
   -2    7    8     -2.64      0.00
    2    7    5     -1.82      0.00
    2    7    4     -4.03      0.00
   -2    7    4     -2.70      0.00
    2    7    3     -2.24      0.00
    2    7    2      2.61      0.00
   -2    7    2     -1.40      0.00
    2    7    1     -1.10      0.00
    2    7    0      0.05      0.00
   -2    7    7      0.92      0.00
   -2    7   10     -1.00      0.00
   -2    7   21     -4.03      0.00
    3    7   20     -0.59      0.00
    3    7   19      0.16      0.00
   -3    7   19     -0.11      0.00
    3    7   18     -1.19      0.00
   -3    7   18     -0.49      0.00
   -3    7   17     -0.68      0.00
   -3    7   16      0.94      0.00
   -3    7   15     -1.35      0.00
   -3    7   14     -0.71      0.00
   -3    7   13     -0.62      0.00
    3    7   13      0.76      0.00
    3    7   12     -0.30      0.00
   -3    7   12     -0.64      0.00
    3    7   10      1.89      0.00
   -3    7   10     -0.41      0.00
    3    7    9      1.31      0.00
   -3    7    9      1.46      0.00
    3    7    8      0.07      0.00
    3    7    7     -1.23      0.00
    3    7    6      0.71      0.00
   -3    7    6      1.28      0.00
    3    7    5     -0.77      0.00
    3    7    4      2.32      0.00
   -3    7    4      1.02      0.00
    3    7    3     -0.20      0.00
    3    7    2     -2.35      0.00
   -3    7    2     -0.04      0.00
    3    7    1     -0.07      0.00
    3    7    0     -1.33      0.00
   -3    7    1     -1.22      0.00
   -3    7    5     -3.71      0.00
   -3    7    7      0.94      0.00
    3    7   14     -2.48      0.00
    3    7   15      0.86      0.00
    3    7   16     -1.51      0.00
    3    7   17     -5.01      0.00
   -3    7   20     -2.98      0.00
   -4    7   17     -0.13      0.00
   -4    7   16      2.37      0.00
   -4    7   15     -2.33      0.00
   -4    7   14      2.43      0.00
   -4    7   13     -3.13      0.00
   -4    7   12      0.63      0.00
   -4    7   11      0.13      0.00
    4    7   10     -1.83      0.00
   -4    7   10     -2.77      0.00
    4    7    9     -1.59      0.00
   -4    7    9     -1.09      0.00
    4    7    8     -2.51      0.00
   -4    7    8     -0.57      0.00
    4    7    7     -1.67      0.00
   -4    7    7     -2.50      0.00
    4    7    6      0.31      0.00
   -4    7    6     -2.05      0.00
    4    7    5     -1.11      0.00
   -4    7    5      1.01      0.00
    4    7    4     -0.48      0.00
   -4    7    4     -1.33      0.00
    4    7    3      0.04      0.00
   -4    7    3      1.13      0.00
    4    7    2     -2.07      0.00
   -4    7    2     -0.03      0.00
   -4    7    1     -0.77      0.00
    4    7    1     -1.68      0.00
    4    7    0     -2.31      0.00
    4    7   11      0.90      0.00
    4    7   12      2.04      0.00
    4    7   13      3.65      0.00
    4    7   14      1.25      0.00
    4    7   15     -3.70      0.00
    4    7   16     -1.08      0.00
    4    7   17     -5.37      0.00
   -4    7   18      3.38      0.00
   -5    7   14     -1.08      0.00
   -5    7   13      0.64      0.00
   -5    7   12     -4.30      0.00
   -5    7   11     -0.76      0.00
   -5    7   10     -4.01      0.00
   -5    7    9      1.53      0.00
    5    7    8      0.74      0.00
   -5    7    8      0.67      0.00
    5    7    7      0.74      0.00
   -5    7    7      3.22      0.00
    5    7    6      1.42      0.00
   -5    7    6     -0.29      0.00
    5    7    5      0.44      0.00
   -5    7    5      3.66      0.00
    5    7    4      4.22      0.00
   -5    7    4     -0.76      0.00
    5    7    3     -2.29      0.00
   -5    7    3     -1.65      0.00
    5    7    2      0.76      0.00
   -5    7    2      2.91      0.00
   -5    7    1     -0.21      0.00
    5    7    1      1.22      0.00
    5    7    0     -2.01      0.00
    5    7    9     -0.47      0.00
    5    7   10      3.86      0.00
    5    7   11     -3.19      0.00
    5    7   12      0.49      0.00
    5    7   13      1.40      0.00
    5    7   14     -0.90      0.00
   -5    7   15     -0.76      0.00
   -6    7   10     -2.97      0.00
   -6    7    9     -0.39      0.00
   -6    7    8     -5.21      0.00
   -6    7    7     -3.14      0.00
   -6    7    6      1.28      0.00
    6    7    5     -0.67      0.00
   -6    7    5     -2.54      0.00
    6    7    4     -0.71      0.00
   -6    7    4      2.48      0.00
    6    7    3     -3.63      0.00
   -6    7    3     -0.55      0.00
    6    7    2     -3.03      0.00
   -6    7    2     -2.83      0.00
    6    7    1      0.34      0.00
   -6    7    1      2.96      0.00
    6    7    0      2.31      0.00
    6    7    6      1.82      0.00
    6    7    7     -0.42      0.00
    6    7    8      1.23      0.00
    6    7    9     -4.66      0.00
    6    7   10      0.30      0.00
   -6    7   11      8.62      0.00
    0    8   21     -1.14      0.00
    0    8   20     -2.03      0.00
    0    8   19     -1.13      0.00
    0    8   18     -3.05      0.00
    0    8   17     -1.19      0.00
    0    8   16     -2.80      0.00
    0    8   15     -2.13      0.00
    0    8   14     -2.62      0.00
    0    8   13     -2.01      0.00
    0    8   12     -0.38      0.00
    0    8   11      0.06      0.00
    0    8   10     -2.21      0.00
    0    8    9      1.61      0.00
    0    8    8      0.00      0.00
    0    8    7      1.78      0.00
    0    8    6     -3.03      0.00
    0    8    5     -0.91      0.00
    0    8    4      8.06      0.00
    0    8    3    -11.19      0.00
    0    8    2      4.55      0.00
    0    8    1     -2.63      0.00
    0    8    0     -7.73      0.00
   -1    8   21     -8.78      0.00
    1    8   21      1.41      0.00
    1    8   20      1.92      0.00
   -1    8   20      0.30      0.00
   -1    8   19     -4.10      0.00
    1    8   19     -5.45      0.00
   -1    8   18      0.05      0.00
    1    8   18      0.55      0.00
    1    8   17     -4.17      0.00
   -1    8   17      0.12      0.00
    1    8   16      0.02      0.00
   -1    8   16     -0.42      0.00
   -1    8   15     -0.23      0.00
    1    8   15      0.43      0.00
   -1    8   14     -0.97      0.00
    1    8   14     -0.86      0.00
   -1    8   13      0.69      0.00
    1    8   13      1.53      0.00
    1    8   12     -0.34      0.00
   -1    8   12      0.02      0.00
   -1    8   11      1.92      0.00
    1    8   11     -0.24      0.00
   -1    8   10      2.86      0.00
    1    8   10      6.40      0.00
   -1    8    9     -0.45      0.00
    1    8    9     -0.43      0.00
    1    8    8     -1.54      0.00
   -1    8    8     -1.25      0.00
    1    8    7     -0.66      0.00
    1    8    6     -0.44      0.00
   -1    8    6     -0.62      0.00
    1    8    5     -4.20      0.00
   -1    8    5      0.57      0.00
    1    8    4     -6.61      0.00
    1    8    3      5.82      0.00
    1    8    2      1.57      0.00
    1    8    1      7.85      0.00
   -1    8    1     -5.94      0.00
    1    8    0      9.80      0.00
   -1    8    2     -0.07      0.00
   -1    8    4      4.80      0.00
   -1    8    7      2.33      0.00
    2    8   21      0.40      0.00
    2    8   20      0.05      0.00
   -2    8   20      2.03      0.00
   -2    8   19      3.40      0.00
    2    8   19      0.55      0.00
   -2    8   18     -3.14      0.00
    2    8   18     -1.58      0.00
   -2    8   17     -0.54      0.00
    2    8   17     -1.30      0.00
    2    8   16     -3.83      0.00
   -2    8   16     -2.64      0.00
    2    8   15     -1.02      0.00
   -2    8   15     -0.08      0.00
    2    8   14     -1.12      0.00
   -2    8   14     -0.75      0.00
    2    8   13     -2.99      0.00
   -2    8   13     -0.31      0.00
    2    8   12     -2.13      0.00
   -2    8   12     -1.41      0.00
    2    8   11     -3.06      0.00
   -2    8   11     -1.69      0.00
   -2    8   10      0.34      0.00
    2    8   10     -1.44      0.00
   -2    8    9      2.43      0.00
    2    8    9      0.20      0.00
    2    8    8      0.90      0.00
   -2    8    8     -0.61      0.00
    2    8    7     -2.18      0.00
   -2    8    7      2.48      0.00
    2    8    6     -0.48      0.00
   -2    8    6     -4.19      0.00
    2    8    4     -0.29      0.00
    2    8    3      0.47      0.00
    2    8    2      3.32      0.00
   -2    8    2      0.03      0.00
    2    8    1     -3.97      0.00
   -2    8    1      5.15      0.00
    2    8    0      2.10      0.00
    3    8   19      0.44      0.00
   -3    8   19     -0.05      0.00
    3    8   18      1.56      0.00
   -3    8   18     -0.57      0.00
    3    8   17      1.22      0.00
   -3    8   17     -1.02      0.00
   -3    8   16     -0.41      0.00
   -3    8   15     -0.83      0.00
   -3    8   14      1.78      0.00
   -3    8   13      1.25      0.00
    3    8   12      1.57      0.00
    3    8   11      0.26      0.00
   -3    8   11      3.71      0.00
    3    8   10     -1.24      0.00
    3    8    9     -1.42      0.00
   -3    8    9      4.14      0.00
    3    8    8     -0.62      0.00
   -3    8    8     -2.94      0.00
    3    8    7     -0.11      0.00
   -3    8    7     -1.03      0.00
    3    8    6      1.92      0.00
    3    8    5     -2.54      0.00
   -3    8    5     -2.65      0.00
    3    8    4      0.07      0.00
   -3    8    4      2.25      0.00
    3    8    3     -1.38      0.00
   -3    8    3      0.03      0.00
    3    8    2     -3.05      0.00
   -3    8    2      1.04      0.00
    3    8    1      3.07      0.00
   -3    8    1     -1.35      0.00
    3    8    0     -0.66      0.00
   -3    8    6      0.74      0.00
    3    8   13      1.97      0.00
    3    8   14     -0.78      0.00
    3    8   15      3.56      0.00
    3    8   16      1.81      0.00
   -4    8   16     -0.87      0.00
   -4    8   15     -3.09      0.00
   -4    8   14      2.84      0.00
   -4    8   13     -1.81      0.00
   -4    8   12      0.15      0.00
   -4    8   11      0.73      0.00
    4    8   10     -0.20      0.00
   -4    8   10     -0.39      0.00
    4    8    9      2.54      0.00
   -4    8    9      0.13      0.00
    4    8    8      2.43      0.00
   -4    8    8      0.76      0.00
    4    8    7     -0.66      0.00
   -4    8    7      1.74      0.00
    4    8    6      3.74      0.00
   -4    8    6      1.18      0.00
    4    8    5      0.37      0.00
   -4    8    5      2.35      0.00
    4    8    4     -0.68      0.00
   -4    8    4      0.78      0.00
    4    8    3      2.50      0.00
    4    8    2     -0.91      0.00
   -4    8    2      1.13      0.00
    4    8    1      1.95      0.00
   -4    8    1     -1.44      0.00
    4    8    0      0.48      0.00
    4    8   11     -0.03      0.00
    4    8   12     -3.18      0.00
    4    8   13     -0.17      0.00
    4    8   15      4.37      0.00
    4    8   16      6.57      0.00
    4    8   17     -2.40      0.00
   -4    8   18      1.49      0.00
   -5    8   14     -2.08      0.00
   -5    8   13      1.02      0.00
   -5    8   12      2.04      0.00
   -5    8   11      7.69      0.00
   -5    8   10      0.27      0.00
   -5    8    9      8.62      0.00
    5    8    8     -0.07      0.00
   -5    8    8     -0.51      0.00
    5    8    7      0.48      0.00
   -5    8    7      3.05      0.00
    5    8    6      0.62      0.00
   -5    8    6     -1.85      0.00
    5    8    5     -3.73      0.00
   -5    8    5     -0.02      0.00
   -5    8    4      0.88      0.00
    5    8    3     -4.00      0.00
   -5    8    3     -2.32      0.00
    5    8    2      0.71      0.00
   -5    8    2     -0.32      0.00
    5    8    1      1.79      0.00
   -5    8    1      0.32      0.00
    5    8    0     -3.09      0.00
    5    8    4      2.42      0.00
    5    8    9     -5.50      0.00
    5    8   10      2.42      0.00
    5    8   11     -9.17      0.00
    5    8   12      1.33      0.00
    5    8   13     -6.08      0.00
    5    8   14     -5.53      0.00
   -5    8   15     -0.72      0.00
   -6    8    9     -0.28      0.00
   -6    8    8      3.14      0.00
   -6    8    7      1.22      0.00
   -6    8    6      1.98      0.00
    6    8    5     -3.41      0.00
   -6    8    5     -2.03      0.00
    6    8    4      0.41      0.00
   -6    8    4      1.35      0.00
    6    8    3     -1.31      0.00
   -6    8    3      3.11      0.00
    6    8    2      1.74      0.00
   -6    8    2     -2.10      0.00
    6    8    1     -0.49      0.00
   -6    8    1      4.38      0.00
    6    8    0      0.16      0.00
    6    8    6     -2.19      0.00
    6    8    7      2.43      0.00
    6    8    8     -0.63      0.00
    6    8    9      3.03      0.00
   -6    8   10     -4.91      0.00
    6    8   10     -1.19      0.00
   -6    8   11     -4.51      0.00
    0    9   21      0.57      0.00
    0    9   20      1.99      0.00
    0    9   19      1.91      0.00
    0    9   18      2.05      0.00
    0    9   17      1.24      0.00
    0    9   16      3.49      0.00
    0    9   15      1.56      0.00
    0    9   14      3.18      0.00
    0    9   13      0.46      0.00
    0    9   12      0.59      0.00
    0    9   11      1.83      0.00
    0    9   10     -1.58      0.00
    0    9    9     -1.18      0.00
    0    9    8     -0.72      0.00
    0    9    7     -0.16      0.00
    0    9    6     -1.14      0.00
    0    9    5     -4.44      0.00
    0    9    4      6.68      0.00
    0    9    3     -8.94      0.00
    0    9    2      1.44      0.00
    0    9    1      7.03      0.00
    1    9   21     -3.23      0.00
   -1    9   21      0.55      0.00
    1    9   20      1.08      0.00
   -1    9   20      7.77      0.00
    1    9   19     -1.78      0.00
   -1    9   19      1.13      0.00
    1    9   18      4.97      0.00
   -1    9   18      4.56      0.00
   -1    9   17      1.71      0.00
    1    9   17      1.13      0.00
    1    9   16      1.04      0.00
   -1    9   16      2.42      0.00
    1    9   15      1.40      0.00
   -1    9   15     -0.71      0.00
    1    9   14     -1.20      0.00
   -1    9   14      1.94      0.00
    1    9   13      1.94      0.00
    1    9   12     -0.65      0.00
   -1    9   12     -2.23      0.00
    1    9   11     -1.65      0.00
   -1    9   10     -1.78      0.00
   -1    9    9     -0.20      0.00
    1    9    8     -2.37      0.00
    1    9    7      1.08      0.00
    1    9    6      1.56      0.00
   -1    9    6     -1.86      0.00
    1    9    5      2.18      0.00
    1    9    4     -2.77      0.00
    1    9    3      8.75      0.00
    1    9    2     -1.01      0.00
   -1    9    2      3.29      0.00
   -1    9    1      1.36      0.00
    1    9    0     -6.74      0.00
    1    9    1     -3.99      0.00
   -1    9    4     -3.64      0.00
   -1    9    5     -1.83      0.00
   -1    9    7      1.38      0.00
   -1    9    8     -1.73      0.00
   -1    9   11     -1.39      0.00
   -1    9   13      2.10      0.00
    2    9   20      2.07      0.00
   -2    9   20     -4.22      0.00
    2    9   19      1.47      0.00
   -2    9   19      1.51      0.00
   -2    9   18     -1.73      0.00
    2    9   18      0.13      0.00
    2    9   17      2.79      0.00
   -2    9   17      2.87      0.00
    2    9   16      0.46      0.00
   -2    9   16     -0.37      0.00
    2    9   15      2.25      0.00
   -2    9   15      2.02      0.00
    2    9   14      1.97      0.00
   -2    9   14     -1.57      0.00
    2    9   13      1.55      0.00
   -2    9   13     -0.36      0.00
    2    9   12      6.38      0.00
   -2    9   12      1.96      0.00
    2    9   11      1.54      0.00
   -2    9   11      0.14      0.00
    2    9   10      2.38      0.00
   -2    9   10      0.53      0.00
    2    9    9     -1.56      0.00
   -2    9    9     -0.77      0.00
    2    9    8      1.07      0.00
   -2    9    8     -0.98      0.00
    2    9    7     -1.48      0.00
   -2    9    7      2.23      0.00
    2    9    6      0.44      0.00
   -2    9    6      0.83      0.00
    2    9    4     -0.89      0.00
   -2    9    4     -2.27      0.00
    2    9    3     -3.39      0.00
    2    9    2      1.92      0.00
   -2    9    2     -6.08      0.00
    2    9    0      4.58      0.00
   -2    9    3      2.85      0.00
   -2    9    5      5.66      0.00
    3    9   18      1.56      0.00
   -3    9   18      1.26      0.00
    3    9   17     -1.23      0.00
   -3    9   17      0.87      0.00
    3    9   16     -1.14      0.00
   -3    9   16      2.93      0.00
   -3    9   15     -0.99      0.00
   -3    9   14      3.10      0.00
   -3    9   13     -1.45      0.00
    3    9   12     -0.86      0.00
   -3    9   12     -2.37      0.00
   -3    9   11      1.60      0.00
    3    9   10      0.42      0.00
   -3    9   10     -6.23      0.00
    3    9    9     -0.12      0.00
    3    9    8      1.40      0.00
   -3    9    8     -1.47      0.00
    3    9    7     -1.23      0.00
   -3    9    7     -0.49      0.00
    3    9    6      0.50      0.00
   -3    9    6      4.26      0.00
    3    9    5     -2.47      0.00
    3    9    4      1.64      0.00
   -3    9    4      1.90      0.00
    3    9    3      3.30      0.00
   -3    9    3      0.18      0.00
    3    9    2     -0.08      0.00
   -3    9    2     -0.41      0.00
    3    9    1      4.37      0.00
   -3    9    1      0.17      0.00
    3    9    0     -0.02      0.00
   -3    9    5     -0.85      0.00
    3    9   11     -1.11      0.00
    3    9   13     -1.50      0.00
    3    9   14     -1.28      0.00
    3    9   15      0.18      0.00
   -3    9   19     -1.48      0.00
   -4    9   16      2.28      0.00
   -4    9   15      1.63      0.00
   -4    9   14      1.63      0.00
   -4    9   13     -1.15      0.00
   -4    9   12     -0.21      0.00
   -4    9   11      0.91      0.00
   -4    9   10      0.39      0.00
    4    9   10     -1.77      0.00
    4    9    9     -0.54      0.00
   -4    9    9      0.66      0.00
    4    9    8      0.09      0.00
   -4    9    8     -0.73      0.00
    4    9    7     -3.56      0.00
   -4    9    7     -0.62      0.00
    4    9    6      0.60      0.00
   -4    9    6     -1.32      0.00
    4    9    5     -0.05      0.00
    4    9    4     -2.29      0.00
   -4    9    4     -0.63      0.00
    4    9    3      2.67      0.00
   -4    9    3     -2.56      0.00
    4    9    2      0.08      0.00
   -4    9    2      0.76      0.00
    4    9    1      3.70      0.00
   -4    9    1      1.32      0.00
    4    9    0     -0.84      0.00
    4    9   11      1.26      0.00
    4    9   12     -1.57      0.00
    4    9   13     -3.65      0.00
    4    9   14     -6.30      0.00
    4    9   15     -8.92      0.00
    4    9   16     -3.95      0.00
   -4    9   17      2.50      0.00
   -5    9   13     -0.80      0.00
   -5    9   12     -4.25      0.00
   -5    9   11     -0.84      0.00
   -5    9   10    -13.04      0.00
    5    9    9     -0.94      0.00
   -5    9    9     -1.64      0.00
    5    9    8      1.02      0.00
   -5    9    8     -9.35      0.00
    5    9    7     -0.64      0.00
   -5    9    7     -3.11      0.00
    5    9    6     -1.29      0.00
   -5    9    6     -1.87      0.00
   -5    9    5     -2.84      0.00
    5    9    4      4.26      0.00
   -5    9    4      2.88      0.00
   -5    9    3      0.98      0.00
    5    9    2     -0.82      0.00
   -5    9    2     -2.05      0.00
   -5    9    1      2.35      0.00
    5    9    0      1.69      0.00
    5    9    1     -1.11      0.00
    5    9    3     -2.20      0.00
    5    9    5     -3.70      0.00
    5    9   10      6.87      0.00
    5    9   11     -3.20      0.00
    5    9   12     10.51      0.00
    5    9   13      2.46      0.00
   -5    9   14      0.42      0.00
   -5    9   15     -1.62      0.00
   -6    9    9     -0.20      0.00
   -6    9    8      3.36      0.00
   -6    9    7      0.15      0.00
    6    9    6      0.55      0.00
   -6    9    6      4.41      0.00
    6    9    5     -0.12      0.00
   -6    9    5      1.27      0.00
    6    9    4      6.12      0.00
   -6    9    4      0.81      0.00
    6    9    3      0.12      0.00
   -6    9    3     -0.90      0.00
    6    9    2      3.22      0.00
   -6    9    2     -4.56      0.00
    6    9    1     -2.84      0.00
   -6    9    1     -2.01      0.00
    6    9    0      1.12      0.00
    6    9    7      0.54      0.00
    6    9    8     -6.64      0.00
    6    9    9      3.32      0.00
   -6    9   10      9.96      0.00
    0   10   21     -1.59      0.00
    0   10   20      0.93      0.00
    0   10   19     -1.91      0.00
    0   10   18     -0.82      0.00
    0   10   17     -3.68      0.00
    0   10   16      0.65      0.00
    0   10   15     -3.24      0.00
    0   10   14      0.45      0.00
    0   10   13     -1.91      0.00
    0   10   12     -0.32      0.00
    0   10   11      1.42      0.00
    0   10   10     -0.42      0.00
    0   10    9     -0.44      0.00
    0   10    8      2.46      0.00
    0   10    7      2.73      0.00
    0   10    6      0.85      0.00
    0   10    5     -2.11      0.00
    0   10    4      6.62      0.00
    0   10    3     -0.81      0.00
    0   10    2      0.46      0.00
    0   10    1      3.94      0.00
    0   10    0     -5.74      0.00
   -1   10   21     -5.27      0.00
    1   10   21      0.26      0.00
   -1   10   20     -1.61      0.00
    1   10   20      2.03      0.00
   -1   10   19     -7.04      0.00
    1   10   19     -1.60      0.00
   -1   10   18     -1.18      0.00
    1   10   18     -0.27      0.00
   -1   10   17     -5.37      0.00
    1   10   17     -0.40      0.00
   -1   10   16      0.75      0.00
    1   10   15     -0.33      0.00
   -1   10   15     -2.95      0.00
   -1   10   14     -0.24      0.00
    1   10   14     -1.25      0.00
    1   10   13     -0.07      0.00
   -1   10   13     -0.51      0.00
   -1   10   12     -1.34      0.00
    1   10   12     -0.53      0.00
    1   10   11      0.04      0.00
   -1   10   11      1.63      0.00
    1   10   10     -0.06      0.00
   -1   10   10      0.10      0.00
    1   10    9      3.46      0.00
   -1   10    9      0.95      0.00
    1   10    8     -2.14      0.00
   -1   10    8     -2.46      0.00
    1   10    7     -0.53      0.00
   -1   10    7     -1.49      0.00
    1   10    6     -0.40      0.00
   -1   10    6      2.51      0.00
    1   10    5      3.65      0.00
   -1   10    5      1.18      0.00
    1   10    4     -9.49      0.00
   -1   10    4      4.15      0.00
    1   10    3      3.32      0.00
   -1   10    3      3.06      0.00
    1   10    2     -5.41      0.00
    1   10    1      0.12      0.00
   -1   10    1     -5.56      0.00
    1   10    0      1.51      0.00
    2   10   20     -4.92      0.00
   -2   10   20     -1.95      0.00
    2   10   19     -3.79      0.00
   -2   10   19      1.86      0.00
    2   10   18     -2.30      0.00
   -2   10   18     -2.78      0.00
    2   10   17     -1.08      0.00
   -2   10   17      2.00      0.00
    2   10   16     -0.79      0.00
   -2   10   16     -3.12      0.00
    2   10   15     -1.21      0.00
   -2   10   15      1.67      0.00
    2   10   14     -0.69      0.00
   -2   10   14      0.09      0.00
    2   10   13     -4.46      0.00
   -2   10   13      0.25      0.00
    2   10   12     -0.97      0.00
   -2   10   12      1.31      0.00
    2   10   11     -5.41      0.00
   -2   10   11     -1.41      0.00
   -2   10   10      0.50      0.00
    2   10   10     -0.09      0.00
   -2   10    9      0.82      0.00
    2   10    9     -0.50      0.00
   -2   10    8      0.69      0.00
    2   10    8      2.60      0.00
    2   10    7     -0.18      0.00
   -2   10    7     -2.47      0.00
    2   10    6     -1.45      0.00
   -2   10    6     -3.11      0.00
    2   10    5      0.05      0.00
    2   10    4      1.96      0.00
    2   10    3     -0.67      0.00
    2   10    2      3.14      0.00
    2   10    1      2.71      0.00
   -2   10    1      0.77      0.00
    2   10    0     -1.36      0.00
   -2   10    2     -0.59      0.00
   -2   10    4     -2.49      0.00
   -3   10   18      2.30      0.00
   -3   10   17     -1.87      0.00
   -3   10   16      1.05      0.00
   -3   10   15     -4.94      0.00
   -3   10   14      1.60      0.00
   -3   10   13     -2.55      0.00
    3   10   12      0.49      0.00
   -3   10   12     -0.87      0.00
    3   10   11     -0.76      0.00
   -3   10   11      3.37      0.00
    3   10   10      1.08      0.00
    3   10    9     -2.35      0.00
   -3   10    9      2.85      0.00
    3   10    8      1.19      0.00
    3   10    7     -0.47      0.00
   -3   10    7     -2.98      0.00
    3   10    6      2.01      0.00
   -3   10    6      3.62      0.00
    3   10    5      0.68      0.00
   -3   10    5     -3.26      0.00
    3   10    4      0.61      0.00
   -3   10    4     -0.15      0.00
    3   10    3      1.42      0.00
   -3   10    3     -0.78      0.00
    3   10    2     -3.43      0.00
   -3   10    2     -0.48      0.00
    3   10    1     -2.79      0.00
   -3   10    1      2.91      0.00
    3   10    0     -0.94      0.00
    3   10   13     -0.22      0.00
    3   10   14      0.99      0.00
    3   10   15     -0.29      0.00
    3   10   16     -0.51      0.00
    3   10   17     -2.06      0.00
    3   10   18     -0.51      0.00
   -3   10   19     -1.30      0.00
   -4   10   16     -4.47      0.00
   -4   10   15     -2.65      0.00
   -4   10   14     -0.38      0.00
   -4   10   13      0.39      0.00
   -4   10   12      0.64      0.00
   -4   10   11      0.63      0.00
   -4   10   10     -1.62      0.00
    4   10    9      0.21      0.00
   -4   10    9      1.48      0.00
    4   10    8      0.99      0.00
   -4   10    8     -0.16      0.00
    4   10    7     -0.68      0.00
   -4   10    7      0.24      0.00
    4   10    6     -0.57      0.00
   -4   10    6      3.89      0.00
    4   10    5      2.42      0.00
   -4   10    5     -0.54      0.00
    4   10    4     -2.34      0.00
   -4   10    4      3.81      0.00
    4   10    3     -0.37      0.00
   -4   10    3      0.43      0.00
    4   10    2     -5.11      0.00
   -4   10    2     -1.40      0.00
    4   10    1     -0.89      0.00
   -4   10    1     -0.12      0.00
    4   10    0     -7.90      0.00
    4   10   10     -0.87      0.00
    4   10   11      2.06      0.00
    4   10   12      3.08      0.00
    4   10   13      5.69      0.00
    4   10   14      8.66      0.00
    4   10   15      3.89      0.00
    4   10   16      3.78      0.00
   -4   10   17      1.53      0.00
   -5   10   13      0.17      0.00
   -5   10   12     -0.39      0.00
   -5   10   11      7.55      0.00
   -5   10   10      1.11      0.00
    5   10    9     -0.95      0.00
   -5   10    9      8.67      0.00
    5   10    8     -0.62      0.00
   -5   10    8      4.36      0.00
    5   10    7      1.23      0.00
   -5   10    7      3.47      0.00
    5   10    6      3.02      0.00
   -5   10    6      3.88      0.00
    5   10    5     -0.56      0.00
   -5   10    5     -1.68      0.00
    5   10    4      3.00      0.00
   -5   10    4      0.11      0.00
    5   10    3     -0.97      0.00
   -5   10    3      0.13      0.00
    5   10    1     -1.26      0.00
   -5   10    1      4.13      0.00
    5   10    0      4.75      0.00
   -5   10    2     -3.45      0.00
    5   10    2      2.70      0.00
    5   10   11     -4.61      0.00
    5   10   12     -0.51      0.00
    5   10   13     -8.01      0.00
   -5   10   14      2.57      0.00
   -6   10    8     -0.84      0.00
   -6   10    7     -3.71      0.00
    6   10    6      2.53      0.00
   -6   10    6     -2.52      0.00
    6   10    5     -4.34      0.00
   -6   10    5     -8.35      0.00
    6   10    4     -0.28      0.00
   -6   10    4     -0.98      0.00
    6   10    3     -5.52      0.00
   -6   10    3      0.02      0.00
    6   10    2     -0.22      0.00
   -6   10    2      4.76      0.00
    6   10    1     -0.60      0.00
   -6   10    1      0.10      0.00
    6   10    0      3.70      0.00
    6   10    7      3.02      0.00
    6   10    8      0.30      0.00
   -6   10    9     -7.61      0.00
   -6   10   10      2.01      0.00
    0   11   21     -2.86      0.00
    0   11   20      0.99      0.00
    0   11   19     -0.69      0.00
    0   11   18      1.61      0.00
    0   11   17     -0.19      0.00
    0   11   16      2.23      0.00
    0   11   15     -1.34      0.00
    0   11   14      1.94      0.00
    0   11   13     -1.67      0.00
    0   11   12     -0.42      0.00
    0   11   11      0.64      0.00
    0   11   10      0.11      0.00
    0   11    9     -0.27      0.00
    0   11    8     -1.54      0.00
    0   11    7      1.00      0.00
    0   11    6     -3.64      0.00
    0   11    5     -0.55      0.00
    0   11    4     -0.08      0.00
    0   11    3      0.23      0.00
    0   11    2     -4.93      0.00
    0   11    1      3.81      0.00
    1   11   21      2.60      0.00
   -1   11   21      1.19      0.00
   -1   11   20      6.45      0.00
    1   11   20      0.50      0.00
   -1   11   19      0.47      0.00
    1   11   18     -0.75      0.00
   -1   11   18      6.21      0.00
    1   11   17      1.52      0.00
   -1   11   17     -0.90      0.00
    1   11   16     -1.13      0.00
   -1   11   16      2.79      0.00
   -1   11   15     -0.54      0.00
   -1   11   14      0.04      0.00
    1   11   14      2.23      0.00
    1   11   13      0.29      0.00
   -1   11   13      0.42      0.00
   -1   11   12      0.87      0.00
    1   11   12      1.10      0.00
    1   11   10     -1.95      0.00
   -1   11   10     -1.26      0.00
    1   11    9      2.58      0.00
   -1   11    9      2.52      0.00
    1   11    8     -0.88      0.00
   -1   11    8      2.89      0.00
    1   11    7     -0.56      0.00
    1   11    6      1.60      0.00
    1   11    5      3.54      0.00
   -1   11    5     -4.22      0.00
    1   11    4     -3.91      0.00
    1   11    3      5.63      0.00
   -1   11    3     -5.50      0.00
    1   11    2      5.08      0.00
   -1   11    2     -0.98      0.00
    1   11    1     -1.44      0.00
   -1   11    1     -4.77      0.00
    1   11    0      1.37      0.00
   -1   11    4     -1.91      0.00
   -1   11    7      0.61      0.00
    1   11   19      0.02      0.00
    2   11   20      4.06      0.00
   -2   11   20     -0.66      0.00
    2   11   19      4.91      0.00
   -2   11   19      2.29      0.00
    2   11   18      2.90      0.00
   -2   11   18     -1.93      0.00
    2   11   17     -1.00      0.00
   -2   11   17      2.61      0.00
    2   11   16      2.20      0.00
   -2   11   16     -1.79      0.00
    2   11   15     -0.68      0.00
   -2   11   15      1.37      0.00
    2   11   14      1.99      0.00
   -2   11   14      0.11      0.00
    2   11   13      0.01      0.00
   -2   11   13     -1.88      0.00
    2   11   12      3.71      0.00
   -2   11   12     -0.52      0.00
    2   11   11      0.99      0.00
   -2   11   11     -0.20      0.00
    2   11   10      0.74      0.00
   -2   11   10     -1.36      0.00
    2   11    9     -1.43      0.00
   -2   11    9     -0.08      0.00
    2   11    8     -0.74      0.00
   -2   11    8     -1.07      0.00
    2   11    6     -0.80      0.00
   -2   11    6      4.27      0.00
    2   11    5      1.50      0.00
    2   11    4      1.36      0.00
   -2   11    4      3.67      0.00
    2   11    3     -1.48      0.00
    2   11    2     -4.49      0.00
    2   11    1      3.22      0.00
   -2   11    1     -0.10      0.00
    2   11    0     -6.67      0.00
   -2   11    3     -2.65      0.00
   -3   11   18     -0.24      0.00
   -3   11   17     -1.52      0.00
   -3   11   16      1.87      0.00
   -3   11   15     -1.71      0.00
   -3   11   14      2.81      0.00
   -3   11   13     -0.21      0.00
    3   11   12      0.01      0.00
   -3   11   12      0.54      0.00
    3   11   11      0.50      0.00
   -3   11   11      0.78      0.00
    3   11   10      3.99      0.00
   -3   11   10     -1.40      0.00
    3   11    9     -0.57      0.00
   -3   11    8      1.28      0.00
    3   11    8      1.53      0.00
    3   11    7     -0.38      0.00
   -3   11    7     -5.06      0.00
   -3   11    6      2.20      0.00
    3   11    6     -0.57      0.00
    3   11    5     -0.80      0.00
    3   11    4     -3.09      0.00
   -3   11    4      0.58      0.00
    3   11    3      0.14      0.00
    3   11    2     -0.64      0.00
   -3   11    2     -0.76      0.00
    3   11    1     -0.91      0.00
    3   11    0      4.46      0.00
   -3   11    1      0.09      0.00
   -3   11    3      0.71      0.00
   -3   11    5     -3.31      0.00
    3   11   13     -0.33      0.00
    3   11   14     -0.31      0.00
    3   11   15     -0.85      0.00
    3   11   16      0.57      0.00
    3   11   17      1.54      0.00
    3   11   18      3.69      0.00
   -3   11   19     -3.89      0.00
   -4   11   16      1.20      0.00
   -4   11   15      1.42      0.00
   -4   11   14      2.33      0.00
   -4   11   13     -0.20      0.00
   -4   11   12     -1.79      0.00
   -4   11   11      1.67      0.00
   -4   11   10     -2.43      0.00
   -4   11    9      1.88      0.00
    4   11    8      1.97      0.00
   -4   11    8     -0.75      0.00
    4   11    7      2.17      0.00
   -4   11    7     -3.34      0.00
    4   11    6     -1.91      0.00
   -4   11    6      2.07      0.00
    4   11    5      2.51      0.00
   -4   11    5     -2.44      0.00
    4   11    4     -0.91      0.00
   -4   11    4     -0.32      0.00
    4   11    3      1.66      0.00
   -4   11    3      0.74      0.00
    4   11    2     -0.23      0.00
   -4   11    2     -1.98      0.00
   -4   11    1      6.64      0.00
    4   11    0      0.16      0.00
    4   11    1      8.40      0.00
    4   11    9      1.36      0.00
    4   11   10     -0.04      0.00
    4   11   11     -0.64      0.00
    4   11   12     -3.78      0.00
    4   11   13     -5.29      0.00
    4   11   14     -2.26      0.00
    4   11   15     -3.96      0.00
    4   11   16      4.04      0.00
   -4   11   17      2.41      0.00
   -5   11   13     -0.17      0.00
   -5   11   12      0.77      0.00
   -5   11   11      0.00      0.00
    5   11   10     -0.88      0.00
   -5   11   10     -1.18      0.00
    5   11    9      0.06      0.00
   -5   11    9     -3.67      0.00
    5   11    8     -0.35      0.00
   -5   11    8     -0.25      0.00
    5   11    7      0.50      0.00
   -5   11    7     -0.45      0.00
    5   11    6      1.43      0.00
   -5   11    6      0.72      0.00
    5   11    5     -3.18      0.00
    5   11    4     -0.02      0.00
   -5   11    4      0.25      0.00
   -5   11    3      3.53      0.00
    5   11    2      2.94      0.00
   -5   11    2     -0.67      0.00
    5   11    0      2.82      0.00
   -5   11    1     -2.11      0.00
    5   11    1     -6.36      0.00
    5   11    3     -0.63      0.00
   -5   11    5      1.65      0.00
    5   11   11      0.90      0.00
    5   11   12      2.94      0.00
    5   11   13      0.26      0.00
   -5   11   14     -1.65      0.00
   -6   11    8     -0.52      0.00
    6   11    7     -2.29      0.00
   -6   11    7     -1.38      0.00
    6   11    6      1.18      0.00
   -6   11    6      4.59      0.00
    6   11    5      0.01      0.00
   -6   11    5      0.38      0.00
    6   11    4      3.53      0.00
   -6   11    4      7.18      0.00
    6   11    3      2.59      0.00
   -6   11    3     -1.50      0.00
    6   11    2      1.70      0.00
   -6   11    2      1.50      0.00
    6   11    1      0.89      0.00
   -6   11    1     -5.77      0.00
    6   11    0     -2.01      0.00
    6   11    8     -1.20      0.00
   -6   11    9     -1.40      0.00
   -6   11   10      4.98      0.00
    0   12   21     -1.47      0.00
    0   12   20      0.97      0.00
    0   12   19      0.35      0.00
    0   12   18     -0.14      0.00
    0   12   17      0.05      0.00
    0   12   16     -1.00      0.00
    0   12   15     -0.83      0.00
    0   12   14      1.94      0.00
    0   12   13     -1.44      0.00
    0   12   12      1.22      0.00
    0   12   11      1.36      0.00
    0   12   10     -0.25      0.00
    0   12    9      0.73      0.00
    0   12    8     -2.46      0.00
    0   12    7      4.08      0.00
    0   12    6     -1.74      0.00
    0   12    5      1.18      0.00
    0   12    4     -0.76      0.00
    0   12    3      2.23      0.00
    0   12    2     -2.88      0.00
    0   12    1      2.86      0.00
    0   12    0     -3.45      0.00
    1   12   21     -1.35      0.00
   -1   12   21     -4.59      0.00
   -1   12   20     -0.40      0.00
    1   12   20     -2.29      0.00
    1   12   19     -0.14      0.00
   -1   12   19     -6.38      0.00
    1   12   18     -0.85      0.00
   -1   12   18      0.87      0.00
   -1   12   17     -1.57      0.00
    1   12   17      1.31      0.00
   -1   12   16     -0.64      0.00
    1   12   16      0.75      0.00
   -1   12   15      1.69      0.00
    1   12   15     -0.98      0.00
   -1   12   14      0.05      0.00
   -1   12   13     -0.41      0.00
    1   12   13     -2.46      0.00
   -1   12   12      1.15      0.00
    1   12   12      1.25      0.00
    1   12   11     -0.90      0.00
   -1   12   11     -0.16      0.00
    1   12    9      1.30      0.00
   -1   12    9      0.54      0.00
    1   12    8     -0.87      0.00
    1   12    7     -3.42      0.00
   -1   12    7     -4.54      0.00
    1   12    6      2.11      0.00
    1   12    5     -0.05      0.00
    1   12    4      0.46      0.00
    1   12    3     -5.32      0.00
    1   12    1     -9.30      0.00
   -1   12    1      2.70      0.00
    1   12    0      2.47      0.00
   -1   12    2      1.26      0.00
   -1   12    3      2.70      0.00
   -1   12    4      0.38      0.00
   -1   12    5     -0.98      0.00
   -1   12    8     -2.56      0.00
   -2   12   20      0.42      0.00
   -2   12   19      0.83      0.00
   -2   12   18     -0.38      0.00
    2   12   17     -2.06      0.00
   -2   12   17      1.64      0.00
    2   12   16      2.74      0.00
   -2   12   16     -1.02      0.00
    2   12   15     -1.95      0.00
   -2   12   15     -0.90      0.00
    2   12   14      0.22      0.00
   -2   12   14      0.32      0.00
   -2   12   13     -0.20      0.00
    2   12   13     -1.39      0.00
    2   12   12     -0.84      0.00
   -2   12   12      1.72      0.00
    2   12   11      0.37      0.00
   -2   12   11      2.33      0.00
    2   12   10      0.34      0.00
   -2   12   10     -1.66      0.00
    2   12    9      1.20      0.00
   -2   12    9      2.51      0.00
    2   12    8      1.02      0.00
   -2   12    8     -1.27      0.00
    2   12    7      1.89      0.00
   -2   12    7      0.24      0.00
    2   12    6     -4.33      0.00
   -2   12    6     -0.04      0.00
    2   12    5      0.15      0.00
   -2   12    5     -3.47      0.00
    2   12    4     -1.12      0.00
   -2   12    4      2.67      0.00
    2   12    3      0.85      0.00
   -2   12    3     -1.09      0.00
    2   12    2     -4.92      0.00
   -2   12    2      4.75      0.00
    2   12    1      5.12      0.00
   -2   12    1     -1.73      0.00
    2   12    0     -2.16      0.00
    2   12   18     -0.71      0.00
    2   12   19     -0.59      0.00
   -3   12   18     -0.83      0.00
   -3   12   17      1.35      0.00
   -3   12   16      0.13      0.00
   -3   12   15     -0.40      0.00
   -3   12   14      1.34      0.00
   -3   12   13      0.20      0.00
   -3   12   12      0.17      0.00
   -3   12   11      0.44      0.00
   -3   12   10      0.41      0.00
   -3   12    9      0.28      0.00
    3   12    9     -3.67      0.00
    3   12    8     -0.98      0.00
    3   12    7     -0.18      0.00
   -3   12    7     -1.63      0.00
    3   12    6      0.18      0.00
    3   12    5      0.59      0.00
   -3   12    5      0.84      0.00
    3   12    4     -1.09      0.00
    3   12    3      2.57      0.00
   -3   12    3      1.24      0.00
    3   12    2      1.00      0.00
   -3   12    2     -1.18      0.00
    3   12    1     -0.82      0.00
   -3   12    1      1.25      0.00
    3   12    0      0.98      0.00
   -3   12    4      1.21      0.00
    3   12   10     -0.07      0.00
    3   12   11     -2.03      0.00
    3   12   12      0.30      0.00
    3   12   13      2.75      0.00
    3   12   14      0.90      0.00
    3   12   15      1.79      0.00
    3   12   16      1.32      0.00
    3   12   17      0.84      0.00
    3   12   18     -2.38      0.00
   -3   12   19      1.24      0.00
   -4   12   16      2.62      0.00
   -4   12   15     -1.64      0.00
   -4   12   14     -1.29      0.00
   -4   12   13      0.06      0.00
   -4   12   12     -2.97      0.00
   -4   12   11      2.77      0.00
   -4   12   10     -3.71      0.00
   -4   12    9      0.02      0.00
    4   12    8     -3.14      0.00
   -4   12    8      1.42      0.00
    4   12    7     -1.19      0.00
   -4   12    7     -2.48      0.00
    4   12    6     -3.43      0.00
   -4   12    6      1.73      0.00
    4   12    5      0.46      0.00
   -4   12    5     -0.87      0.00
    4   12    4      0.54      0.00
   -4   12    4     -2.35      0.00
    4   12    3      1.63      0.00
   -4   12    3      1.95      0.00
    4   12    1      2.71      0.00
   -4   12    1      2.28      0.00
    4   12    0     -5.52      0.00
    4   12    2     -2.25      0.00
    4   12    9     -2.94      0.00
    4   12   10     -1.56      0.00
    4   12   11      1.88      0.00
    4   12   12      1.49      0.00
    4   12   13      2.36      0.00
    4   12   14      1.59      0.00
    4   12   15     -5.08      0.00
    4   12   16      0.50      0.00
   -4   12   17      1.38      0.00
   -5   12   12     -0.95      0.00
   -5   12   11     -6.68      0.00
    5   12   10     -1.21      0.00
   -5   12   10      3.36      0.00
    5   12    9      1.97      0.00
   -5   12    9     -4.51      0.00
    5   12    8     -1.52      0.00
   -5   12    8     -0.33      0.00
    5   12    7     -2.60      0.00
   -5   12    7     -0.77      0.00
    5   12    6      0.11      0.00
   -5   12    6     -6.09      0.00
    5   12    5     -1.32      0.00
   -5   12    5      0.41      0.00
   -5   12    4     -3.64      0.00
    5   12    3     -1.58      0.00
   -5   12    3     -0.21      0.00
   -5   12    2     -1.08      0.00
    5   12    1     -3.97      0.00
   -5   12    1     -2.32      0.00
    5   12    0      2.45      0.00
    5   12    2      1.51      0.00
    5   12    4      0.66      0.00
    5   12   11     -0.22      0.00
    5   12   12      0.43      0.00
   -5   12   13     -4.05      0.00
   -5   12   14      1.08      0.00
    6   12    7     -0.99      0.00
   -6   12    7      3.03      0.00
    6   12    6     -0.91      0.00
   -6   12    6      6.23      0.00
    6   12    5     -0.92      0.00
   -6   12    5     -1.49      0.00
    6   12    4     -3.40      0.00
   -6   12    4     -0.83      0.00
    6   12    3     -1.35      0.00
   -6   12    3     -4.44      0.00
    6   12    2     -3.28      0.00
   -6   12    2      3.08      0.00
    6   12    1     -0.56      0.00
   -6   12    1     -1.51      0.00
    6   12    0      1.87      0.00
   -6   12    8      3.09      0.00
   -6   12    9      2.70      0.00
    0   13   21      1.54      0.00
    0   13   20      0.96      0.00
    0   13   19      1.22      0.00
    0   13   18     -1.12      0.00
    0   13   17      2.73      0.00
    0   13   16     -0.74      0.00
    0   13   15      1.55      0.00
    0   13   14      3.07      0.00
    0   13   13     -1.23      0.00
    0   13   12      0.56      0.00
    0   13   11     -1.07      0.00
    0   13   10     -2.51      0.00
    0   13    9      0.89      0.00
    0   13    8     -3.06      0.00
    0   13    7      1.97      0.00
    0   13    6     -0.16      0.00
    0   13    5     -1.11      0.00
    0   13    4      3.09      0.00
    0   13    3     -0.36      0.00
    0   13    2     -0.69      0.00
    0   13    1      0.39      0.00
    1   13   20     -0.04      0.00
   -1   13   20      5.57      0.00
    1   13   19     -0.22      0.00
   -1   13   19     -0.61      0.00
    1   13   18     -0.28      0.00
   -1   13   18      1.37      0.00
    1   13   17     -0.77      0.00
   -1   13   17      0.75      0.00
   -1   13   16     -2.86      0.00
    1   13   16      0.81      0.00
   -1   13   15      1.60      0.00
    1   13   15     -1.07      0.00
   -1   13   14     -1.33      0.00
    1   13   14      0.39      0.00
   -1   13   13     -1.43      0.00
    1   13   13      0.46      0.00
    1   13   12      2.70      0.00
   -1   13   12      0.43      0.00
    1   13   11     -2.02      0.00
   -1   13   11      0.25      0.00
    1   13   10      0.25      0.00
   -1   13   10     -1.77      0.00
    1   13    9      1.57      0.00
   -1   13    9      1.61      0.00
    1   13    8      2.40      0.00
   -1   13    8     -0.28      0.00
    1   13    7     -0.73      0.00
    1   13    6      1.46      0.00
   -1   13    6      0.90      0.00
    1   13    5     -2.29      0.00
   -1   13    5      3.29      0.00
    1   13    4      0.15      0.00
   -1   13    4     -2.85      0.00
    1   13    3     -5.87      0.00
   -1   13    3      4.40      0.00
    1   13    2      6.92      0.00
   -1   13    2     -1.70      0.00
   -1   13    1      4.82      0.00
    1   13    0      3.05      0.00
   -2   13   19     -3.47      0.00
   -2   13   18     -0.34      0.00
   -2   13   17     -0.68      0.00
   -2   13   16     -0.06      0.00
   -2   13   15      0.71      0.00
    2   13   14      1.40      0.00
   -2   13   14      2.27      0.00
    2   13   13      0.95      0.00
   -2   13   13     -1.71      0.00
    2   13   12     -0.88      0.00
   -2   13   12     -0.99      0.00
    2   13   11      1.32      0.00
   -2   13   11     -1.11      0.00
    2   13   10     -0.97      0.00
   -2   13   10     -2.29      0.00
    2   13    9     -3.01      0.00
   -2   13    9      3.15      0.00
    2   13    8     -1.65      0.00
   -2   13    8     -0.68      0.00
    2   13    7      1.27      0.00
   -2   13    7      1.21      0.00
    2   13    6     -2.34      0.00
   -2   13    6      0.63      0.00
    2   13    5      1.56      0.00
   -2   13    5      0.13      0.00
    2   13    4      0.19      0.00
   -2   13    4      0.70      0.00
   -2   13    3     -0.80      0.00
    2   13    2     -0.13      0.00
   -2   13    2     -2.10      0.00
    2   13    1      3.95      0.00
   -2   13    1     -0.86      0.00
    2   13    0      2.43      0.00
    2   13    3      0.65      0.00
    2   13   15     -0.80      0.00
    2   13   16      1.51      0.00
    2   13   17     -1.49      0.00
    2   13   18     -1.27      0.00
    2   13   19      4.69      0.00
   -2   13   20      0.87      0.00
   -3   13   18     -2.78      0.00
   -3   13   17      2.43      0.00
   -3   13   16     -0.45      0.00
   -3   13   15     -0.55      0.00
   -3   13   14     -0.23      0.00
   -3   13   13     -1.35      0.00
   -3   13   12     -2.10      0.00
   -3   13   11     -0.11      0.00
   -3   13   10     -2.17      0.00
   -3   13    9      0.62      0.00
    3   13    9      0.64      0.00
    3   13    8      1.67      0.00
   -3   13    8      0.27      0.00
   -3   13    7      1.01      0.00
    3   13    6      1.17      0.00
   -3   13    6      1.43      0.00
    3   13    5     -0.04      0.00
    3   13    4     -0.10      0.00
   -3   13    4     -2.62      0.00
    3   13    3      2.60      0.00
   -3   13    3     -0.32      0.00
    3   13    2     -0.50      0.00
   -3   13    2     -1.44      0.00
    3   13    1     -0.03      0.00
    3   13    0      0.04      0.00
   -3   13    1      0.19      0.00
    3   13   10      2.56      0.00
    3   13   11     -2.98      0.00
    3   13   12     -1.39      0.00
    3   13   13     -0.40      0.00
    3   13   14     -2.96      0.00
    3   13   15     -2.54      0.00
    3   13   16     -4.88      0.00
    3   13   17     -3.05      0.00
   -4   13   15     -2.07      0.00
   -4   13   14     -1.55      0.00
   -4   13   13      4.99      0.00
   -4   13   12     -0.87      0.00
   -4   13   11      4.63      0.00
   -4   13   10      1.07      0.00
    4   13    9      2.52      0.00
   -4   13    9      1.22      0.00
    4   13    8      2.49      0.00
   -4   13    8      4.13      0.00
    4   13    7      3.23      0.00
   -4   13    7     -1.47      0.00
    4   13    6      1.50      0.00
   -4   13    6      0.66      0.00
    4   13    5     -0.05      0.00
   -4   13    5      1.94      0.00
    4   13    4      0.18      0.00
   -4   13    4     -0.43      0.00
   -4   13    3      2.23      0.00
   -4   13    2     -2.14      0.00
    4   13    1      0.68      0.00
   -4   13    1      1.27      0.00
    4   13    0     -0.58      0.00
    4   13    2     -4.81      0.00
    4   13    3     -1.23      0.00
    4   13   10     -0.70      0.00
    4   13   11      1.07      0.00
    4   13   12     -3.58      0.00
    4   13   13     -1.21      0.00
    4   13   14      0.92      0.00
    4   13   15      0.35      0.00
   -4   13   16     -2.92      0.00
    4   13   16      7.24      0.00
   -5   13   12      8.83      0.00
    5   13   11     -0.69      0.00
   -5   13   11     -0.80      0.00
    5   13   10     -1.33      0.00
   -5   13   10      8.15      0.00
    5   13    9      1.85      0.00
   -5   13    9     -1.61      0.00
    5   13    8     -1.18      0.00
   -5   13    8      1.17      0.00
    5   13    7      1.41      0.00
   -5   13    7      4.53      0.00
    5   13    6      2.93      0.00
   -5   13    6     -1.62      0.00
    5   13    5      0.46      0.00
   -5   13    5      3.97      0.00
    5   13    4      0.36      0.00
   -5   13    4     -0.67      0.00
   -5   13    3      0.32      0.00
    5   13    2      3.06      0.00
   -5   13    2      2.54      0.00
    5   13    1      2.25      0.00
   -5   13    1      2.62      0.00
    5   13    0     -1.66      0.00
    5   13    3     -0.99      0.00
    5   13   12     -1.14      0.00
   -5   13   13      1.19      0.00
    5   13   13     -7.66      0.00
    6   13    8      2.82      0.00
    6   13    7      0.20      0.00
    6   13    6     -0.59      0.00
   -6   13    6     -4.98      0.00
    6   13    5      2.46      0.00
   -6   13    5     -3.07      0.00
    6   13    4      0.16      0.00
   -6   13    4     -1.91      0.00
    6   13    3      1.72      0.00
   -6   13    3      0.91      0.00
    6   13    2      2.93      0.00
   -6   13    2      3.15      0.00
    6   13    1     -0.47      0.00
   -6   13    1     -2.36      0.00
    6   13    0      3.07      0.00
   -6   13    7     -5.54      0.00
   -6   13    8     -0.59      0.00
   -6   13    9     -5.90      0.00
    0   14   20     -2.71      0.00
    0   14   19     -0.19      0.00
    0   14   18     -3.11      0.00
    0   14   17      1.08      0.00
    0   14   16     -3.48      0.00
    0   14   15     -2.58      0.00
    0   14   14     -1.27      0.00
    0   14   13     -3.95      0.00
    0   14   12     -0.12      0.00
    0   14   11      0.76      0.00
    0   14   10      0.94      0.00
    0   14    9      3.70      0.00
    0   14    8     -1.38      0.00
    0   14    7      1.17      0.00
    0   14    6      1.15      0.00
    0   14    5     -4.60      0.00
    0   14    4      1.77      0.00
    0   14    3     -3.53      0.00
    0   14    2      0.82      0.00
    0   14    1      0.51      0.00
    0   14    0      1.33      0.00
   -1   14   20      1.73      0.00
    1   14   19      2.52      0.00
   -1   14   19     -1.91      0.00
    1   14   18      1.79      0.00
   -1   14   18      0.70      0.00
    1   14   17     -0.20      0.00
   -1   14   17      2.68      0.00
   -1   14   16     -0.94      0.00
    1   14   16      0.81      0.00
   -1   14   15      1.77      0.00
    1   14   15      0.38      0.00
    1   14   14     -1.05      0.00
   -1   14   14      0.41      0.00
    1   14   13     -0.39      0.00
   -1   14   13      0.91      0.00
    1   14   12      0.72      0.00
   -1   14   12      0.15      0.00
    1   14   11     -2.41      0.00
   -1   14   11      1.28      0.00
    1   14   10      0.14      0.00
   -1   14   10     -1.99      0.00
    1   14    9     -1.65      0.00
   -1   14    9      2.18      0.00
    1   14    8     -1.24      0.00
    1   14    7     -2.99      0.00
   -1   14    7      0.55      0.00
    1   14    6     -2.13      0.00
    1   14    5      4.10      0.00
   -1   14    5      1.16      0.00
    1   14    4      0.80      0.00
   -1   14    4     -1.94      0.00
   -1   14    3      2.72      0.00
   -1   14    1     -1.49      0.00
    1   14    0     -5.46      0.00
   -1   14    8     -2.31      0.00
    1   14   20      1.28      0.00
   -2   14   19     -1.72      0.00
   -2   14   18      3.03      0.00
   -2   14   17      0.29      0.00
   -2   14   16     -0.50      0.00
   -2   14   15     -1.74      0.00
   -2   14   14      0.26      0.00
   -2   14   13     -2.77      0.00
   -2   14   12      2.90      0.00
    2   14   12     -2.62      0.00
   -2   14   11      2.05      0.00
   -2   14   10     -0.23      0.00
    2   14    9     -0.49      0.00
   -2   14    9     -0.03      0.00
    2   14    8      2.28      0.00
   -2   14    8     -2.19      0.00
    2   14    7      2.93      0.00
   -2   14    7     -1.44      0.00
    2   14    6      0.26      0.00
   -2   14    6     -0.30      0.00
    2   14    5     -0.46      0.00
   -2   14    5      0.64      0.00
    2   14    4      5.46      0.00
   -2   14    4     -3.59      0.00
    2   14    3     -0.72      0.00
   -2   14    3      1.50      0.00
    2   14    2      2.56      0.00
   -2   14    2     -4.42      0.00
    2   14    1     -2.12      0.00
   -2   14    1      3.03      0.00
    2   14    0     -1.90      0.00
    2   14   10      0.45      0.00
    2   14   11      0.78      0.00
    2   14   13     -0.20      0.00
    2   14   14     -1.09      0.00
    2   14   15     -1.62      0.00
    2   14   16     -0.65      0.00
    2   14   17     -0.10      0.00
    2   14   18     -3.04      0.00
    2   14   19      5.60      0.00
   -3   14   18     -4.01      0.00
   -3   14   17      1.30      0.00
   -3   14   16      0.51      0.00
   -3   14   15     -1.17      0.00
   -3   14   14      0.46      0.00
   -3   14   13      0.88      0.00
   -3   14   12      0.69      0.00
   -3   14   11      3.52      0.00
   -3   14   10     -0.52      0.00
    3   14    9     -1.11      0.00
   -3   14    9      1.52      0.00
    3   14    8     -0.23      0.00
   -3   14    8     -1.26      0.00
    3   14    7     -2.32      0.00
   -3   14    7     -3.15      0.00
    3   14    6      2.15      0.00
   -3   14    6     -3.05      0.00
    3   14    5     -0.70      0.00
   -3   14    5     -1.39      0.00
    3   14    4     -1.23      0.00
   -3   14    4     -0.46      0.00
    3   14    3      0.12      0.00
   -3   14    3      1.98      0.00
    3   14    2     -2.13      0.00
    3   14    1     -0.99      0.00
   -3   14    1      0.55      0.00
    3   14    0      0.49      0.00
    3   14   10      3.11      0.00
    3   14   11     -0.52      0.00
    3   14   12      2.69      0.00
    3   14   13     -0.34      0.00
    3   14   14      0.58      0.00
    3   14   15      4.52      0.00
    3   14   16      6.98      0.00
    3   14   17      8.02      0.00
   -4   14   15      6.31      0.00
   -4   14   14     -2.13      0.00
   -4   14   13      1.11      0.00
   -4   14   12     -5.06      0.00
   -4   14   11     -2.51      0.00
    4   14   10     -2.19      0.00
   -4   14   10     -2.12      0.00
    4   14    9      1.59      0.00
   -4   14    9     -5.06      0.00
    4   14    8     -1.74      0.00
   -4   14    8     -0.06      0.00
    4   14    7     -0.58      0.00
   -4   14    7     -1.51      0.00
    4   14    6      0.32      0.00
   -4   14    6      0.70      0.00
    4   14    5     -1.41      0.00
   -4   14    5      1.43      0.00
    4   14    4      1.02      0.00
   -4   14    4      0.29      0.00
    4   14    3      2.10      0.00
   -4   14    3     -0.04      0.00
    4   14    2      0.58      0.00
   -4   14    2     -1.09      0.00
    4   14    1      3.83      0.00
   -4   14    1      0.68      0.00
    4   14    0     -0.05      0.00
    4   14   11      4.88      0.00
    4   14   12      0.48      0.00
    4   14   13      2.77      0.00
    4   14   14      2.62      0.00
    4   14   15     -3.91      0.00
   -4   14   16      4.95      0.00
    4   14   16     -0.53      0.00
   -5   14   12     -0.88      0.00
    5   14   11      2.81      0.00
   -5   14   11     -6.98      0.00
    5   14   10     -0.54      0.00
   -5   14   10      0.91      0.00
    5   14    9      3.00      0.00
   -5   14    9     -3.25      0.00
    5   14    8     -0.88      0.00
   -5   14    8     -0.34      0.00
    5   14    7      0.28      0.00
   -5   14    7      1.48      0.00
    5   14    6     -0.72      0.00
   -5   14    6     -0.06      0.00
    5   14    5     -1.46      0.00
   -5   14    5      0.72      0.00
    5   14    4      1.61      0.00
   -5   14    4      1.33      0.00
    5   14    3     -0.85      0.00
   -5   14    3     -0.10      0.00
    5   14    2     -0.26      0.00
   -5   14    2     -1.50      0.00
    5   14    1      0.41      0.00
   -5   14    1     -2.27      0.00
    5   14    0     -6.10      0.00
    5   14   12      5.95      0.00
   -5   14   13     -4.53      0.00
    5   14   13      2.65      0.00
    6   14    8      1.12      0.00
    6   14    7      0.08      0.00
    6   14    6      1.30      0.00
    6   14    5      2.26      0.00
   -6   14    5      6.83      0.00
    6   14    4      0.78      0.00
   -6   14    4      0.74      0.00
    6   14    3     -2.61      0.00
   -6   14    3      0.21      0.00
    6   14    2      3.01      0.00
   -6   14    2     -0.45      0.00
    6   14    1     -6.05      0.00
   -6   14    1      1.48      0.00
    6   14    0      1.30      0.00
   -6   14    6      0.49      0.00
   -6   14    7     -2.90      0.00
   -6   14    8      3.41      0.00
    0   15   20     -2.12      0.00
    0   15   19      2.41      0.00
    0   15   18     -1.14      0.00
    0   15   17      1.99      0.00
    0   15   16      1.05      0.00
    0   15   15      1.38      0.00
    0   15   14      3.07      0.00
    0   15   13      1.61      0.00
    0   15   12      2.06      0.00
    0   15   11      0.17      0.00
    0   15   10     -1.46      0.00
    0   15    9      0.93      0.00
    0   15    8     -2.44      0.00
    0   15    7      1.40      0.00
    0   15    6      1.01      0.00
    0   15    5     -0.72      0.00
    0   15    4      2.30      0.00
    0   15    3      1.13      0.00
    0   15    2     -1.37      0.00
    0   15    1     -0.18      0.00
   -1   15   20      2.01      0.00
   -1   15   19     -2.38      0.00
   -1   15   18     -0.56      0.00
   -1   15   17     -1.46      0.00
    1   15   16     -0.66      0.00
   -1   15   16     -1.76      0.00
    1   15   15      0.96      0.00
   -1   15   15     -0.93      0.00
   -1   15   14     -0.53      0.00
    1   15   13      0.39      0.00
   -1   15   13     -0.58      0.00
    1   15   12      1.60      0.00
   -1   15   12     -2.18      0.00
    1   15   11      0.42      0.00
   -1   15   11      0.77      0.00
    1   15   10      2.10      0.00
   -1   15   10     -1.09      0.00
    1   15    9     -0.19      0.00
    1   15    8      4.40      0.00
   -1   15    8     -1.18      0.00
    1   15    7      2.33      0.00
    1   15    6     -1.71      0.00
   -1   15    6      1.10      0.00
    1   15    5      5.54      0.00
    1   15    4     -5.57      0.00
   -1   15    4     -1.26      0.00
    1   15    3      1.49      0.00
    1   15    2     -2.69      0.00
   -1   15    2     -1.18      0.00
   -1   15    1      1.22      0.00
    1   15    0     -2.98      0.00
    1   15    1      2.97      0.00
   -1   15    3     -2.21      0.00
   -1   15    7      0.53      0.00
   -1   15    9      1.48      0.00
    1   15   14     -1.73      0.00
    1   15   17     -0.66      0.00
    1   15   18     -4.64      0.00
    1   15   19     -1.65      0.00
   -2   15   19     -3.58      0.00
   -2   15   18      0.34      0.00
   -2   15   17     -1.00      0.00
   -2   15   16      0.59      0.00
   -2   15   15     -0.24      0.00
   -2   15   14      4.29      0.00
   -2   15   13     -1.15      0.00
   -2   15   12      0.63      0.00
   -2   15   11     -1.19      0.00
    2   15   10      1.37      0.00
   -2   15   10     -1.85      0.00
    2   15    9     -0.53      0.00
   -2   15    9      0.31      0.00
    2   15    8     -1.46      0.00
   -2   15    8      2.43      0.00
    2   15    7     -0.58      0.00
   -2   15    7     -1.33      0.00
    2   15    6     -0.19      0.00
   -2   15    6      0.58      0.00
    2   15    5     -5.13      0.00
   -2   15    5     -0.09      0.00
    2   15    4      3.15      0.00
   -2   15    4     -2.85      0.00
   -2   15    3      5.39      0.00
    2   15    2     -2.21      0.00
   -2   15    2     -0.21      0.00
    2   15    1     -2.11      0.00
   -2   15    1      3.81      0.00
    2   15    0     -2.04      0.00
    2   15    3     -7.38      0.00
    2   15   11      2.94      0.00
    2   15   12     -0.75      0.00
    2   15   14      1.26      0.00
    2   15   15      2.35      0.00
    2   15   16      1.47      0.00
    2   15   17      2.49      0.00
    2   15   18     -1.62      0.00
   -3   15   17     -0.72      0.00
   -3   15   16     -0.32      0.00
   -3   15   15     -0.98      0.00
   -3   15   14      0.27      0.00
   -3   15   13      0.75      0.00
   -3   15   12     -0.96      0.00
   -3   15   11     -0.47      0.00
    3   15   10     -0.39      0.00
   -3   15   10     -1.82      0.00
    3   15    9     -0.46      0.00
   -3   15    9     -0.70      0.00
    3   15    8      1.52      0.00
   -3   15    8      2.60      0.00
    3   15    7     -0.52      0.00
   -3   15    7      0.51      0.00
    3   15    6      1.81      0.00
   -3   15    6      4.27      0.00
    3   15    5     -0.79      0.00
   -3   15    5      0.99      0.00
    3   15    4     -1.92      0.00
   -3   15    4      1.53      0.00
    3   15    3     -0.60      0.00
    3   15    2      0.61      0.00
   -3   15    2      0.51      0.00
    3   15    1     -1.16      0.00
   -3   15    1     -2.24      0.00
    3   15    0      0.70      0.00
    3   15   11     -2.55      0.00
    3   15   12      3.01      0.00
    3   15   13     -0.06      0.00
    3   15   14      0.02      0.00
    3   15   15     -6.07      0.00
    3   15   16     -6.83      0.00
    3   15   17     -6.99      0.00
   -4   15   15     -0.50      0.00
   -4   15   14     -3.98      0.00
   -4   15   13      2.20      0.00
    4   15   12     -4.70      0.00
   -4   15   12      2.40      0.00
    4   15   11      1.92      0.00
   -4   15   11      2.32      0.00
    4   15   10     -4.51      0.00
   -4   15   10      3.96      0.00
    4   15    9      1.38      0.00
   -4   15    9      0.99      0.00
    4   15    8     -2.54      0.00
   -4   15    8      2.62      0.00
    4   15    7     -0.86      0.00
   -4   15    7     -0.86      0.00
    4   15    6     -1.13      0.00
   -4   15    6     -1.85      0.00
    4   15    5     -2.11      0.00
   -4   15    5     -4.96      0.00
    4   15    4      0.20      0.00
   -4   15    4     -0.17      0.00
    4   15    3      0.52      0.00
   -4   15    3     -1.55      0.00
    4   15    2     -2.00      0.00
   -4   15    2      0.26      0.00
    4   15    1      0.59      0.00
   -4   15    1      1.82      0.00
    4   15    0     -2.06      0.00
    4   15   13     -3.52      0.00
    4   15   14      2.15      0.00
    4   15   15     -1.98      0.00
   -4   15   16     -5.61      0.00
    5   15   11     -2.27      0.00
   -5   15   11     -0.96      0.00
    5   15   10     -3.61      0.00
   -5   15   10      2.23      0.00
    5   15    9      0.15      0.00
   -5   15    9     -1.15      0.00
    5   15    8     -1.51      0.00
   -5   15    8      1.20      0.00
    5   15    7     -1.53      0.00
   -5   15    7     -2.36      0.00
    5   15    6      1.12      0.00
   -5   15    6      0.85      0.00
    5   15    5     -1.25      0.00
   -5   15    5     -3.89      0.00
    5   15    4      1.09      0.00
   -5   15    4      0.31      0.00
    5   15    3     -3.51      0.00
   -5   15    3      0.01      0.00
    5   15    2     -1.01      0.00
   -5   15    2      0.56      0.00
    5   15    1      2.37      0.00
   -5   15    1      4.22      0.00
    5   15    0     -1.87      0.00
   -5   15   12     -0.58      0.00
   -5   15   13     -0.30      0.00
    6   15    7     -3.22      0.00
    6   15    6     -3.94      0.00
    6   15    5     -2.98      0.00
    6   15    4     -0.34      0.00
   -6   15    4     -4.80      0.00
    6   15    3     -4.01      0.00
   -6   15    3     -0.96      0.00
    6   15    2      4.09      0.00
   -6   15    2     -2.32      0.00
    6   15    1     -2.23      0.00
   -6   15    1      2.64      0.00
    6   15    0      3.88      0.00
   -6   15    5      0.91      0.00
   -6   15    6      1.77      0.00
   -6   15    7      2.51      0.00
    0   16   20     -0.92      0.00
    0   16   19      5.25      0.00
    0   16   18      0.70      0.00
    0   16   17      1.27      0.00
    0   16   16      1.18      0.00
    0   16   15      0.31      0.00
    0   16   14     -0.24      0.00
    0   16   13      0.27      0.00
    0   16   12     -0.31      0.00
    0   16   11     -0.59      0.00
    0   16   10     -0.42      0.00
    0   16    9      0.78      0.00
    0   16    8     -2.31      0.00
    0   16    7      0.11      0.00
    0   16    6     -1.29      0.00
    0   16    5      0.27      0.00
    0   16    4     -1.24      0.00
    0   16    3      3.37      0.00
    0   16    2     -1.37      0.00
    0   16    1      3.30      0.00
    0   16    0      1.62      0.00
   -1   16   19     -1.39      0.00
   -1   16   18      1.34      0.00
   -1   16   17      0.28      0.00
   -1   16   16      1.92      0.00
   -1   16   15      0.13      0.00
   -1   16   14      0.37      0.00
    1   16   13      1.23      0.00
   -1   16   13      0.81      0.00
    1   16   12     -0.73      0.00
   -1   16   12      0.67      0.00
    1   16   11     -1.50      0.00
   -1   16   11      1.24      0.00
    1   16   10     -0.85      0.00
   -1   16   10      0.56      0.00
    1   16    9     -4.26      0.00
   -1   16    9      0.46      0.00
    1   16    8      1.61      0.00
   -1   16    8      1.07      0.00
    1   16    7     -1.91      0.00
   -1   16    7     -0.01      0.00
    1   16    6     -4.23      0.00
    1   16    5      4.09      0.00
   -1   16    5     -0.30      0.00
    1   16    4     -2.33      0.00
    1   16    3      0.71      0.00
   -1   16    3      2.13      0.00
    1   16    2     -0.10      0.00
   -1   16    2      3.85      0.00
    1   16    1      0.05      0.00
   -1   16    1      0.66      0.00
    1   16    0      0.72      0.00
   -1   16    6      2.11      0.00
    1   16   14     -0.20      0.00
    1   16   15      1.47      0.00
    1   16   16     -0.20      0.00
    1   16   17      3.32      0.00
    1   16   18     -1.28      0.00
    1   16   19      4.14      0.00
   -2   16   19     -0.41      0.00
   -2   16   18      2.00      0.00
   -2   16   17      0.38      0.00
   -2   16   16      2.12      0.00
   -2   16   15     -2.85      0.00
   -2   16   14      1.10      0.00
   -2   16   13     -2.56      0.00
    2   16   12     -3.55      0.00
   -2   16   12     -1.14      0.00
    2   16   11     -0.16      0.00
   -2   16   11      1.59      0.00
    2   16   10     -2.11      0.00
   -2   16   10     -0.42      0.00
    2   16    9     -0.45      0.00
   -2   16    9     -0.65      0.00
    2   16    8     -1.12      0.00
   -2   16    8      2.06      0.00
    2   16    7      2.56      0.00
   -2   16    7     -2.85      0.00
    2   16    5     -3.59      0.00
   -2   16    5      2.26      0.00
    2   16    3      0.40      0.00
   -2   16    3      2.61      0.00
    2   16    2      1.69      0.00
   -2   16    2      0.53      0.00
    2   16    1      5.75      0.00
   -2   16    1     -3.19      0.00
    2   16    0      1.90      0.00
    2   16   13      0.39      0.00
    2   16   14     -1.82      0.00
    2   16   15     -1.05      0.00
    2   16   16     -1.88      0.00
    2   16   17     -0.39      0.00
    2   16   18      0.62      0.00
   -3   16   17      0.85      0.00
   -3   16   16      0.95      0.00
   -3   16   15      2.57      0.00
   -3   16   14     -0.50      0.00
   -3   16   13     -0.24      0.00
    3   16   12     -1.44      0.00
   -3   16   12     -0.46      0.00
    3   16   11     -1.29      0.00
   -3   16   11     -0.96      0.00
    3   16   10     -1.20      0.00
   -3   16   10      1.31      0.00
    3   16    9      0.62      0.00
   -3   16    9     -1.65      0.00
    3   16    8     -0.84      0.00
   -3   16    8      1.70      0.00
    3   16    7     -1.83      0.00
   -3   16    7     -3.23      0.00
    3   16    6     -0.72      0.00
   -3   16    6      0.73      0.00
    3   16    5      0.79      0.00
   -3   16    5     -2.49      0.00
    3   16    4      0.97      0.00
   -3   16    4      3.31      0.00
    3   16    3      1.80      0.00
   -3   16    3     -1.82      0.00
    3   16    2      4.80      0.00
   -3   16    2      2.26      0.00
    3   16    1      0.52      0.00
   -3   16    1     -1.82      0.00
    3   16    0      0.66      0.00
    3   16   13     -2.64      0.00
    3   16   14      4.14      0.00
    3   16   15      3.08      0.00
    3   16   16      6.62      0.00
    3   16   17      1.81      0.00
    4   16   14      2.86      0.00
   -4   16   14     -0.59      0.00
    4   16   13      0.07      0.00
   -4   16   13     -0.21      0.00
    4   16   12      0.12      0.00
   -4   16   12     -1.17      0.00
    4   16   11      2.89      0.00
   -4   16   11     -1.77      0.00
    4   16   10     -1.74      0.00
   -4   16   10     -1.24      0.00
    4   16    9      2.15      0.00
   -4   16    9     -1.15      0.00
    4   16    8     -0.02      0.00
   -4   16    8     -0.42      0.00
    4   16    7      3.01      0.00
   -4   16    7      0.30      0.00
    4   16    6      1.92      0.00
   -4   16    6      4.94      0.00
    4   16    5      1.64      0.00
   -4   16    5      0.67      0.00
    4   16    4      1.42      0.00
   -4   16    4      6.57      0.00
    4   16    3     -1.53      0.00
   -4   16    3     -0.85      0.00
    4   16    2     -1.92      0.00
   -4   16    2     -0.26      0.00
    4   16    1      0.76      0.00
   -4   16    1     -1.31      0.00
    4   16    0     -1.35      0.00
   -4   16   15      2.66      0.00
    4   16   15     -7.07      0.00
    5   16   12     -0.86      0.00
    5   16   11      4.05      0.00
   -5   16   11      4.13      0.00
    5   16   10      0.57      0.00
   -5   16   10      2.58      0.00
    5   16    9      0.22      0.00
   -5   16    9     -0.12      0.00
    5   16    8      2.44      0.00
   -5   16    8      1.66      0.00
    5   16    7     -2.21      0.00
   -5   16    7     -2.39      0.00
    5   16    6      2.44      0.00
   -5   16    6      2.90      0.00
    5   16    5     -2.07      0.00
   -5   16    5     -1.77      0.00
    5   16    4      2.36      0.00
   -5   16    4      1.02      0.00
    5   16    3      0.98      0.00
   -5   16    3     -1.21      0.00
    5   16    2      2.64      0.00
   -5   16    2     -2.67      0.00
    5   16    1      3.61      0.00
   -5   16    1     -2.92      0.00
    5   16    0     -2.44      0.00
   -5   16   12      2.85      0.00
    6   16    6      1.15      0.00
    6   16    5      3.89      0.00
    6   16    4      3.02      0.00
    6   16    3     -0.90      0.00
   -6   16    3      7.72      0.00
    6   16    2      1.42      0.00
   -6   16    2     -2.33      0.00
    6   16    1     -0.09      0.00
   -6   16    1      3.46      0.00
    6   16    0     -2.30      0.00
   -6   16    4      1.13      0.00
   -6   16    5      1.54      0.00
   -6   16    6     -2.69      0.00
    0   17   19     -0.93      0.00
    0   17   18     -4.97      0.00
    0   17   17     -3.42      0.00
    0   17   16     -3.36      0.00
    0   17   15     -1.23      0.00
    0   17   14     -3.43      0.00
    0   17   13     -1.17      0.00
    0   17   12     -1.32      0.00
    0   17   11     -1.22      0.00
    0   17   10      0.47      0.00
    0   17    9     -0.16      0.00
    0   17    8      0.80      0.00
    0   17    7      0.63      0.00
    0   17    6      1.37      0.00
    0   17    5     -0.32      0.00
    0   17    4     -1.10      0.00
    0   17    3      0.54      0.00
    0   17    2     -4.23      0.00
    0   17    1     -2.16      0.00
   -1   17   19     -0.56      0.00
   -1   17   18      1.48      0.00
   -1   17   17      0.85      0.00
    1   17   16     -0.15      0.00
   -1   17   16      0.17      0.00
    1   17   15     -0.26      0.00
   -1   17   15     -0.33      0.00
    1   17   14     -2.47      0.00
   -1   17   14      0.50      0.00
    1   17   13     -0.07      0.00
   -1   17   13      1.12      0.00
    1   17   12     -1.16      0.00
   -1   17   12      0.53      0.00
    1   17   11      1.59      0.00
   -1   17   11     -1.71      0.00
    1   17   10      2.40      0.00
   -1   17   10     -0.52      0.00
    1   17    9     -1.43      0.00
   -1   17    9     -1.83      0.00
    1   17    8      2.37      0.00
   -1   17    8     -0.53      0.00
    1   17    7      0.03      0.00
   -1   17    7     -3.01      0.00
    1   17    6     -3.03      0.00
   -1   17    6     -1.89      0.00
    1   17    5      0.81      0.00
   -1   17    5     -1.22      0.00
    1   17    4     -0.71      0.00
   -1   17    4     -2.59      0.00
   -1   17    3     -0.81      0.00
    1   17    2      1.98      0.00
   -1   17    2     -0.96      0.00
    1   17    1     -2.30      0.00
   -1   17    1     -2.36      0.00
    1   17    0     -0.06      0.00
    1   17   17      0.60      0.00
    1   17   18      0.08      0.00
    1   17   19      5.09      0.00
   -2   17   18     -1.56      0.00
   -2   17   17     -2.65      0.00
   -2   17   16     -0.11      0.00
   -2   17   15     -2.99      0.00
    2   17   14      0.07      0.00
   -2   17   14      0.91      0.00
    2   17   13      0.82      0.00
   -2   17   13      0.72      0.00
    2   17   12     -1.62      0.00
   -2   17   12     -0.44      0.00
    2   17   11      2.24      0.00
   -2   17   11      1.85      0.00
    2   17   10      1.70      0.00
   -2   17   10      0.11      0.00
    2   17    9      1.17      0.00
   -2   17    9      0.35      0.00
    2   17    8     -2.26      0.00
   -2   17    8      3.11      0.00
    2   17    7      0.29      0.00
    2   17    6     -1.27      0.00
   -2   17    6      1.05      0.00
    2   17    5      0.47      0.00
    2   17    4      1.21      0.00
   -2   17    4     -2.97      0.00
    2   17    2     -1.94      0.00
   -2   17    2     -0.42      0.00
    2   17    1     -1.21      0.00
    2   17    0     -1.28      0.00
   -2   17    3     -6.97      0.00
   -2   17    7     -4.82      0.00
    2   17   15     -0.46      0.00
    2   17   16     -0.92      0.00
    2   17   17     -2.09      0.00
    2   17   18      0.60      0.00
   -3   17   17     -0.34      0.00
   -3   17   16     -2.14      0.00
    3   17   15     -5.97      0.00
   -3   17   15      0.60      0.00
    3   17   14     -1.80      0.00
   -3   17   14     -2.43      0.00
    3   17   13     -0.81      0.00
   -3   17   13     -0.25      0.00
    3   17   12      1.97      0.00
   -3   17   12      2.09      0.00
    3   17   11      4.26      0.00
   -3   17   11      0.08      0.00
    3   17   10      0.09      0.00
    3   17    9      2.38      0.00
   -3   17    9     -1.17      0.00
    3   17    8      0.64      0.00
   -3   17    8      0.96      0.00
    3   17    7     -0.51      0.00
   -3   17    7     -0.84      0.00
    3   17    6      0.15      0.00
   -3   17    6      0.55      0.00
    3   17    5      1.29      0.00
   -3   17    5     -2.39      0.00
    3   17    4     -0.27      0.00
   -3   17    4     -0.11      0.00
    3   17    3     -3.68      0.00
   -3   17    3     -2.77      0.00
    3   17    2     -1.43      0.00
   -3   17    2     -0.11      0.00
    3   17    1     -2.41      0.00
   -3   17    1      1.98      0.00
    3   17    0     -2.79      0.00
   -3   17   10      2.27      0.00
    3   17   16      1.65      0.00
    4   17   15     -1.83      0.00
    4   17   14      3.64      0.00
   -4   17   14      0.27      0.00
    4   17   13     -0.07      0.00
   -4   17   13      1.04      0.00
    4   17   12     -0.81      0.00
   -4   17   12     -0.28      0.00
    4   17   11      0.31      0.00
   -4   17   11      1.00      0.00
    4   17   10      0.58      0.00
   -4   17   10     -1.34      0.00
    4   17    9      0.38      0.00
   -4   17    9      0.22      0.00
    4   17    8     -2.37      0.00
   -4   17    8     -0.71      0.00
    4   17    7      0.94      0.00
   -4   17    7     -0.84      0.00
    4   17    6     -3.16      0.00
   -4   17    6      0.48      0.00
    4   17    5     -2.10      0.00
   -4   17    5     -6.55      0.00
    4   17    4      0.53      0.00
   -4   17    4      1.16      0.00
    4   17    3      0.33      0.00
   -4   17    3     -3.44      0.00
    4   17    2      3.36      0.00
   -4   17    2      1.19      0.00
    4   17    1      2.03      0.00
   -4   17    1     -0.19      0.00
    4   17    0      0.35      0.00
   -4   17   15      3.10      0.00
    5   17   11      1.32      0.00
    5   17   10     -0.35      0.00
   -5   17   10     -3.81      0.00
    5   17    9     -1.20      0.00
   -5   17    9     -1.11      0.00
    5   17    8      4.11      0.00
   -5   17    8     -0.86      0.00
    5   17    7     -3.21      0.00
   -5   17    7     -0.58      0.00
    5   17    6      3.23      0.00
   -5   17    6      1.72      0.00
    5   17    5     -0.34      0.00
   -5   17    5     -0.08      0.00
    5   17    4      0.72      0.00
   -5   17    4      1.18      0.00
    5   17    3     -1.15      0.00
   -5   17    3      1.11      0.00
    5   17    2     -4.46      0.00
   -5   17    2      3.89      0.00
    5   17    1      0.07      0.00
   -5   17    1      2.85      0.00
    5   17    0     -6.34      0.00
   -5   17   11     -2.42      0.00
    6   17    5      0.03      0.00
    6   17    4     -2.24      0.00
    6   17    3      0.06      0.00
    6   17    2     -2.50      0.00
    6   17    1      1.42      0.00
    6   17    0     -1.76      0.00
   -6   17    1      0.80      0.00
   -6   17    2     -8.23      0.00
   -6   17    3      0.87      0.00
   -6   17    4     -9.27      0.00
   -6   17    5      0.56      0.00
    0   18   18      1.63      0.00
    0   18   17      5.07      0.00
    0   18   16      1.27      0.00
    0   18   15      4.35      0.00
    0   18   14      0.47      0.00
    0   18   13      1.76      0.00
    0   18   12      1.52      0.00
    0   18   11     -0.22      0.00
    0   18   10      1.82      0.00
    0   18    9     -0.74      0.00
    0   18    8      1.61      0.00
    0   18    7     -0.93      0.00
    0   18    6      1.91      0.00
    0   18    5     -2.43      0.00
    0   18    4      0.84      0.00
    0   18    3      0.13      0.00
    0   18    2     -0.30      0.00
    0   18    1      1.28      0.00
    0   18    0      2.23      0.00
    0   18   19      3.48      0.00
   -1   18   19      0.10      0.00
    1   18   18     -2.31      0.00
   -1   18   18     -2.72      0.00
    1   18   17     -5.69      0.00
   -1   18   17     -1.12      0.00
    1   18   16      0.33      0.00
   -1   18   16     -1.47      0.00
    1   18   15      1.92      0.00
   -1   18   15      0.57      0.00
    1   18   14     -0.79      0.00
   -1   18   14     -1.57      0.00
    1   18   13      2.68      0.00
   -1   18   13     -1.84      0.00
    1   18   12     -0.26      0.00
   -1   18   12     -0.89      0.00
    1   18   11      0.01      0.00
   -1   18   11     -0.61      0.00
   -1   18   10      2.07      0.00
    1   18    9     -1.02      0.00
   -1   18    9      0.59      0.00
    1   18    8      1.32      0.00
   -1   18    8      2.53      0.00
    1   18    7      3.58      0.00
   -1   18    7      0.82      0.00
    1   18    6     -0.87      0.00
   -1   18    6      2.27      0.00
    1   18    5      3.03      0.00
   -1   18    5      3.74      0.00
    1   18    4      3.48      0.00
   -1   18    4     -0.78      0.00
    1   18    3     -0.80      0.00
   -1   18    3      1.69      0.00
   -1   18    2     -0.56      0.00
    1   18    1      1.04      0.00
   -1   18    1     -2.28      0.00
    1   18    0      1.69      0.00
    1   18   19     -7.71      0.00
   -2   18   18     -0.28      0.00
    2   18   17      1.39      0.00
   -2   18   17      2.89      0.00
    2   18   16      1.97      0.00
   -2   18   16      2.01      0.00
    2   18   15     -1.17      0.00
   -2   18   15      2.31      0.00
    2   18   14      2.82      0.00
   -2   18   14      1.28      0.00
    2   18   13      1.64      0.00
   -2   18   13      1.43      0.00
    2   18   12      0.61      0.00
   -2   18   12      0.15      0.00
    2   18   11     -0.43      0.00
   -2   18   11     -0.31      0.00
    2   18   10      0.65      0.00
   -2   18   10     -1.25      0.00
    2   18    9     -1.57      0.00
   -2   18    9     -1.84      0.00
   -2   18    8     -0.21      0.00
    2   18    7      2.97      0.00
   -2   18    7     -2.52      0.00
    2   18    6      1.49      0.00
    2   18    5      1.69      0.00
   -2   18    5      0.64      0.00
    2   18    4     -3.53      0.00
   -2   18    4      6.57      0.00
    2   18    3      0.26      0.00
   -2   18    3     -0.63      0.00
   -2   18    2      9.32      0.00
    2   18    1     -3.90      0.00
   -2   18    1      2.24      0.00
    2   18    0      5.28      0.00
    2   18    2     -2.94      0.00
    2   18    8      0.07      0.00
    2   18   18      1.94      0.00
   -3   18   17      0.60      0.00
    3   18   16     -1.55      0.00
   -3   18   16     -0.16      0.00
    3   18   15     -0.12      0.00
   -3   18   15      0.82      0.00
    3   18   14      4.23      0.00
   -3   18   14      0.33      0.00
    3   18   13      0.58      0.00
   -3   18   13     -0.10      0.00
    3   18   12     -2.18      0.00
   -3   18   12      0.57      0.00
    3   18   11     -2.56      0.00
   -3   18   11     -2.42      0.00
    3   18   10     -3.97      0.00
   -3   18   10     -0.47      0.00
    3   18    9     -1.54      0.00
   -3   18    9     -0.32      0.00
    3   18    8      1.16      0.00
   -3   18    8      0.36      0.00
    3   18    7     -0.44      0.00
   -3   18    7      1.55      0.00
    3   18    6      2.05      0.00
   -3   18    6      0.27      0.00
    3   18    5      0.42      0.00
   -3   18    5      0.99      0.00
    3   18    4     -0.17      0.00
   -3   18    4      1.13      0.00
    3   18    3     -1.87      0.00
   -3   18    3      3.83      0.00
    3   18    2      2.06      0.00
   -3   18    2     -0.54      0.00
    3   18    1      1.94      0.00
   -3   18    1      1.82      0.00
    3   18    0     -1.32      0.00
    4   18   14     -1.03      0.00
   -4   18   14     -3.07      0.00
    4   18   13      0.98      0.00
   -4   18   13      0.29      0.00
    4   18   12      0.11      0.00
   -4   18   12     -1.00      0.00
    4   18   11      0.32      0.00
   -4   18   11      2.02      0.00
    4   18   10      0.53      0.00
   -4   18   10      0.45      0.00
    4   18    9      2.35      0.00
   -4   18    9      2.68      0.00
    4   18    8     -1.89      0.00
   -4   18    8     -0.76      0.00
    4   18    7      5.25      0.00
   -4   18    7     -0.05      0.00
    4   18    6     -0.88      0.00
   -4   18    6      0.89      0.00
    4   18    5      1.81      0.00
   -4   18    5     -2.24      0.00
    4   18    4      1.84      0.00
    4   18    3     -1.89      0.00
   -4   18    3     -0.58      0.00
    4   18    2     -2.50      0.00
   -4   18    2      1.37      0.00
    4   18    1     -4.38      0.00
   -4   18    1      0.98      0.00
    4   18    0     -0.79      0.00
   -4   18    4      4.33      0.00
    5   18   11      0.47      0.00
    5   18   10     -1.08      0.00
   -5   18   10     -2.05      0.00
    5   18    9     -2.72      0.00
   -5   18    9      2.32      0.00
    5   18    8      2.21      0.00
   -5   18    8     -0.51      0.00
    5   18    7     -3.87      0.00
   -5   18    7      1.85      0.00
    5   18    6      1.06      0.00
   -5   18    6      0.08      0.00
    5   18    5     -1.37      0.00
   -5   18    5      0.07      0.00
    5   18    4     -1.70      0.00
   -5   18    4     -0.44      0.00
    5   18    3      1.20      0.00
   -5   18    3     -1.41      0.00
    5   18    2     -1.40      0.00
   -5   18    2     -1.23      0.00
    5   18    1      6.51      0.00
   -5   18    1     -5.15      0.00
    5   18    0     -2.84      0.00
   -5   18   11      4.10      0.00
    6   18    4      0.03      0.00
    6   18    3      4.27      0.00
    6   18    2     -1.51      0.00
    6   18    1      3.26      0.00
    6   18    0      2.61      0.00
   -6   18    1      1.09      0.00
   -6   18    2      2.48      0.00
   -6   18    3      9.62      0.00
   -6   18    4     -1.78      0.00
    0   19   18     -1.16      0.00
    0   19   17      1.06      0.00
    0   19   16     -4.71      0.00
    0   19   15      0.82      0.00
    0   19   14     -0.57      0.00
    0   19   13      1.02      0.00
    0   19   12      1.33      0.00
    0   19   11      0.06      0.00
    0   19   10      1.29      0.00
    0   19    9     -0.48      0.00
    0   19    8     -1.23      0.00
    0   19    7     -0.86      0.00
    0   19    6     -0.15      0.00
    0   19    5     -1.11      0.00
    0   19    4      1.60      0.00
    0   19    3      2.78      0.00
    0   19    2      0.48      0.00
    0   19    1      1.89      0.00
    0   19   19      3.43      0.00
   -1   19   18     -0.44      0.00
    1   19   17     -0.02      0.00
   -1   19   17      1.84      0.00
    1   19   16      0.68      0.00
   -1   19   16     -0.53      0.00
    1   19   15      2.21      0.00
   -1   19   15      0.54      0.00
    1   19   14     -3.41      0.00
   -1   19   14     -0.71      0.00
    1   19   13      0.15      0.00
   -1   19   13      0.70      0.00
    1   19   12     -0.01      0.00
   -1   19   12      1.84      0.00
    1   19   11     -0.63      0.00
   -1   19   11     -0.87      0.00
    1   19   10      0.39      0.00
   -1   19   10     -1.20      0.00
   -1   19    9     -3.21      0.00
    1   19    8     -2.79      0.00
   -1   19    8      0.39      0.00
   -1   19    7     -2.33      0.00
    1   19    6     -4.74      0.00
   -1   19    6      0.44      0.00
   -1   19    5     -0.55      0.00
    1   19    4     -0.39      0.00
   -1   19    4     -2.20      0.00
   -1   19    3      1.77      0.00
    1   19    2      0.48      0.00
   -1   19    2      0.40      0.00
    1   19    1     -1.69      0.00
   -1   19    1     -0.09      0.00
    1   19    0     -1.86      0.00
    1   19    7      0.11      0.00
    1   19    9     -1.74      0.00
    1   19   18     11.47      0.00
   -2   19   18     -3.71      0.00
    2   19   17      2.26      0.00
   -2   19   17      1.38      0.00
    2   19   16      3.29      0.00
   -2   19   16     -4.29      0.00
    2   19   15     -2.92      0.00
   -2   19   15     -0.13      0.00
    2   19   14      3.87      0.00
   -2   19   14     -2.80      0.00
    2   19   13     -2.34      0.00
   -2   19   13     -1.49      0.00
    2   19   12     -0.86      0.00
   -2   19   12      0.39      0.00
   -2   19   11     -1.37      0.00
    2   19   10      3.05      0.00
   -2   19   10     -0.04      0.00
   -2   19    9      1.93      0.00
    2   19    8     -0.08      0.00
   -2   19    8      0.78      0.00
    2   19    7     -1.69      0.00
    2   19    6     -1.30      0.00
   -2   19    6     -0.65      0.00
    2   19    5     -1.43      0.00
    2   19    4     -1.78      0.00
   -2   19    4      2.19      0.00
    2   19    3      1.48      0.00
   -2   19    3     -5.48      0.00
    2   19    2      2.35      0.00
   -2   19    2      1.61      0.00
   -2   19    1     -2.87      0.00
    2   19    0      5.00      0.00
    2   19    1     -0.48      0.00
    2   19    9     -0.80      0.00
    2   19   11     -3.65      0.00
   -3   19   16      0.84      0.00
    3   19   15      0.14      0.00
   -3   19   15     -0.44      0.00
    3   19   14     -1.03      0.00
   -3   19   14      1.45      0.00
    3   19   13     -2.87      0.00
   -3   19   13     -1.02      0.00
    3   19   12      3.27      0.00
   -3   19   12      0.77      0.00
    3   19   11      2.60      0.00
   -3   19   11     -0.25      0.00
    3   19   10      2.53      0.00
   -3   19   10      0.90      0.00
    3   19    9      0.62      0.00
   -3   19    9     -0.05      0.00
    3   19    8      2.12      0.00
   -3   19    8     -1.88      0.00
    3   19    7     -3.32      0.00
   -3   19    7     -0.73      0.00
    3   19    6     -1.38      0.00
   -3   19    6     -1.54      0.00
    3   19    5     -1.60      0.00
   -3   19    5      1.04      0.00
    3   19    4      1.73      0.00
   -3   19    4     -1.40      0.00
    3   19    3      0.78      0.00
   -3   19    3      0.59      0.00
    3   19    2      2.40      0.00
   -3   19    2     -5.12      0.00
    3   19    1     -0.11      0.00
   -3   19    1     -0.55      0.00
    3   19    0      2.09      0.00
    3   19   16      4.96      0.00
    4   19   14     -4.63      0.00
    4   19   13      2.18      0.00
   -4   19   13      1.04      0.00
    4   19   12     -3.57      0.00
   -4   19   12     -1.64      0.00
    4   19   11     -0.31      0.00
   -4   19   11     -0.19      0.00
    4   19   10     -4.77      0.00
   -4   19   10     -2.31      0.00
    4   19    9      1.93      0.00
   -4   19    9      0.08      0.00
    4   19    8     -8.53      0.00
   -4   19    8     -2.32      0.00
    4   19    7      1.68      0.00
    4   19    6     -4.72      0.00
   -4   19    6      2.93      0.00
    4   19    5     -1.29      0.00
   -4   19    5     -0.74      0.00
    4   19    4     -1.72      0.00
   -4   19    4      0.54      0.00
    4   19    3      0.27      0.00
   -4   19    3     -1.49      0.00
    4   19    2      2.28      0.00
   -4   19    2     -2.53      0.00
    4   19    1      2.65      0.00
   -4   19    1      0.17      0.00
    4   19    0      4.82      0.00
   -4   19   14      0.43      0.00
    5   19   10      0.56      0.00
    5   19    9     -0.73      0.00
   -5   19    9      4.43      0.00
    5   19    8      3.17      0.00
   -5   19    8     -0.55      0.00
    5   19    7     -2.35      0.00
   -5   19    7     -1.32      0.00
    5   19    6      0.26      0.00
   -5   19    6     -2.61      0.00
    5   19    5     -0.76      0.00
   -5   19    5     -0.89      0.00
    5   19    4      0.45      0.00
   -5   19    4     -0.88      0.00
    5   19    3      1.84      0.00
   -5   19    3      0.14      0.00
    5   19    2     -1.48      0.00
   -5   19    2     -0.16      0.00
    5   19    1      3.17      0.00
   -5   19    1      2.00      0.00
    5   19    0     -2.89      0.00
   -5   19   10      1.94      0.00
    6   19    1     -2.05      0.00
    6   19    0      0.29      0.00
   -6   19    1     -6.04      0.00
    0   20   18     -4.29      0.00
    0   20   17      2.41      0.00
    0   20   16     -1.52      0.00
    0   20   15      2.10      0.00
    0   20   14     -2.14      0.00
    0   20   13     -1.09      0.00
    0   20   12     -2.90      0.00
    0   20   11     -1.70      0.00
    0   20   10     -2.02      0.00
    0   20    9      0.52      0.00
    0   20    8     -2.59      0.00
    0   20    7      2.66      0.00
    0   20    6     -0.82      0.00
    0   20    5      1.27      0.00
    0   20    4     -2.46      0.00
    0   20    3     -0.26      0.00
    0   20    2     -3.52      0.00
    0   20    1     -1.17      0.00
    0   20    0     -0.94      0.00
   -1   20   18      1.84      0.00
    1   20   17     -2.27      0.00
   -1   20   17      0.84      0.00
    1   20   16     -2.75      0.00
   -1   20   16      0.24      0.00
    1   20   15      4.23      0.00
   -1   20   15      1.38      0.00
    1   20   14      0.33      0.00
   -1   20   14      2.29      0.00
    1   20   13     -0.65      0.00
   -1   20   13     -0.05      0.00
    1   20   12      1.49      0.00
   -1   20   12      1.96      0.00
    1   20   11     -1.03      0.00
   -1   20   11      0.68      0.00
    1   20   10      1.46      0.00
   -1   20   10      3.77      0.00
    1   20    9      0.39      0.00
   -1   20    9      3.02      0.00
   -1   20    8      3.60      0.00
    1   20    7      3.43      0.00
   -1   20    7     -1.70      0.00
   -1   20    6      0.54      0.00
    1   20    5      1.43      0.00
   -1   20    5     -1.99      0.00
   -1   20    4     -1.98      0.00
    1   20    3     -2.53      0.00
   -1   20    3      1.44      0.00
    1   20    2      0.68      0.00
   -1   20    2     -1.14      0.00
    1   20    1     -3.07      0.00
   -1   20    1      1.52      0.00
    1   20    0      0.18      0.00
    1   20    4      0.28      0.00
    1   20    6     -0.49      0.00
    1   20   18      0.46      0.00
   -2   20   17      3.74      0.00
    2   20   16     -0.16      0.00
   -2   20   16     -0.78      0.00
    2   20   15     -9.81      0.00
   -2   20   15      3.16      0.00
    2   20   14     -0.15      0.00
   -2   20   14     -0.03      0.00
    2   20   13     -4.76      0.00
   -2   20   13     -0.83      0.00
    2   20   12      3.14      0.00
   -2   20   12      1.30      0.00
    2   20   11     -2.65      0.00
   -2   20   11     -0.75      0.00
    2   20   10      3.01      0.00
   -2   20   10      0.24      0.00
    2   20    9     -0.88      0.00
   -2   20    9      1.25      0.00
    2   20    8     -0.86      0.00
    2   20    7     -0.47      0.00
   -2   20    7      1.82      0.00
    2   20    6      1.61      0.00
    2   20    5     -0.51      0.00
   -2   20    5      0.14      0.00
    2   20    4     -0.19      0.00
   -2   20    4      2.03      0.00
    2   20    3      1.55      0.00
   -2   20    3     -3.49      0.00
    2   20    2     -0.07      0.00
   -2   20    2     -0.93      0.00
    2   20    1     -1.04      0.00
   -2   20    1      1.45      0.00
    2   20    0     -2.67      0.00
    2   20   17     -5.23      0.00
   -3   20   16      4.52      0.00
    3   20   15     -1.81      0.00
   -3   20   15     -1.64      0.00
    3   20   14      1.73      0.00
   -3   20   14      0.53      0.00
    3   20   13     -1.34      0.00
   -3   20   13     -1.14      0.00
    3   20   12      1.15      0.00
   -3   20   12      1.59      0.00
    3   20   11     -1.84      0.00
   -3   20   11      0.10      0.00
    3   20   10     -2.15      0.00
   -3   20   10      0.60      0.00
    3   20    9      0.53      0.00
   -3   20    9      0.20      0.00
    3   20    8      0.77      0.00
   -3   20    8      1.19      0.00
    3   20    7     -0.43      0.00
   -3   20    7      2.40      0.00
    3   20    6      1.10      0.00
   -3   20    6      0.58      0.00
    3   20    5      0.45      0.00
   -3   20    5      0.10      0.00
    3   20    4     -0.30      0.00
   -3   20    4     -1.06      0.00
    3   20    3     -4.09      0.00
   -3   20    3     -0.34      0.00
    3   20    2     -1.64      0.00
   -3   20    2      0.60      0.00
    3   20    1     -2.98      0.00
   -3   20    1      2.86      0.00
    3   20    0      1.53      0.00
    4   20   13      4.90      0.00
   -4   20   13      1.51      0.00
    4   20   12     -2.92      0.00
   -4   20   12      0.24      0.00
    4   20   11      7.00      0.00
   -4   20   11      2.08      0.00
    4   20   10     -2.49      0.00
   -4   20   10     -0.32      0.00
    4   20    9      8.96      0.00
   -4   20    9      1.81      0.00
    4   20    8     -2.10      0.00
    4   20    7      6.70      0.00
   -4   20    7     -1.17      0.00
    4   20    6      1.70      0.00
    4   20    5      2.15      0.00
   -4   20    5     -2.68      0.00
    4   20    4      1.05      0.00
   -4   20    4     -0.81      0.00
    4   20    3      2.29      0.00
   -4   20    3      3.59      0.00
    4   20    2     -0.95      0.00
   -4   20    2      0.25      0.00
    4   20    1     -3.63      0.00
   -4   20    1      4.66      0.00
    4   20    0     -1.01      0.00
   -4   20    8     -1.05      0.00
    5   20    9     -3.14      0.00
    5   20    8      2.35      0.00
   -5   20    8     -1.96      0.00
    5   20    7     -1.01      0.00
   -5   20    7      0.32      0.00
    5   20    6      3.15      0.00
   -5   20    6      3.36      0.00
    5   20    5      1.89      0.00
   -5   20    5      2.62      0.00
    5   20    4      2.80      0.00
    5   20    3     -0.61      0.00
   -5   20    3      2.05      0.00
    5   20    2     -1.43      0.00
   -5   20    2     -1.28      0.00
    5   20    1     -1.28      0.00
   -5   20    1      3.04      0.00
    5   20    0     -2.04      0.00
   -5   20    4      0.55      0.00
   -5   20    9     -5.49      0.00
    0   21   17      2.14      0.00
    0   21   16     -3.64      0.00
    0   21   15      0.77      0.00
    0   21   14     -2.59      0.00
    0   21   13      3.13      0.00
    0   21   12     -1.05      0.00
    0   21   11      2.12      0.00
    0   21   10     -0.34      0.00
    0   21    9      2.57      0.00
    0   21    8     -0.85      0.00
    0   21    7      2.09      0.00
    0   21    6     -0.83      0.00
    0   21    5      1.11      0.00
    0   21    4     -0.90      0.00
    0   21    3      1.30      0.00
    0   21    2      2.29      0.00
    0   21    1     -2.24      0.00
    1   21   17      2.24      0.00
   -1   21   17     -2.84      0.00
    1   21   16     -4.26      0.00
   -1   21   16      0.19      0.00
    1   21   15     -1.40      0.00
   -1   21   15     -2.10      0.00
    1   21   14      0.95      0.00
   -1   21   14     -0.09      0.00
    1   21   13     -4.46      0.00
   -1   21   13     -4.24      0.00
    1   21   12      1.02      0.00
   -1   21   12     -0.77      0.00
    1   21   11     -1.35      0.00
   -1   21   11     -3.26      0.00
    1   21   10     -0.34      0.00
   -1   21   10     -4.17      0.00
    1   21    9     -1.02      0.00
   -1   21    9     -3.37      0.00
    1   21    8     -0.94      0.00
   -1   21    8     -4.68      0.00
   -1   21    7     -1.07      0.00
    1   21    6     -1.50      0.00
   -1   21    6      1.98      0.00
    1   21    5     -0.54      0.00
   -1   21    5      2.55      0.00
    1   21    4      0.98      0.00
   -1   21    4      0.95      0.00
    1   21    3     -1.33      0.00
   -1   21    3      1.67      0.00
    1   21    2      4.28      0.00
   -1   21    2     -2.07      0.00
    1   21    1      0.45      0.00
   -1   21    1     -0.18      0.00
    1   21    0      4.45      0.00
    1   21    7      0.56      0.00
   -2   21   17     -0.95      0.00
    2   21   16      9.29      0.00
   -2   21   16     -1.83      0.00
    2   21   15      0.45      0.00
   -2   21   15     -1.17      0.00
    2   21   14      8.99      0.00
   -2   21   14     -0.36      0.00
    2   21   13      2.59      0.00
   -2   21   13      0.19      0.00
    2   21   12      6.91      0.00
   -2   21   12      2.71      0.00
    2   21   11     -3.51      0.00
   -2   21   11      0.36      0.00
    2   21   10      0.71      0.00
   -2   21   10      0.73      0.00
    2   21    9      1.54      0.00
   -2   21    9     -0.64      0.00
    2   21    8     -1.27      0.00
   -2   21    8     -0.85      0.00
   -2   21    7      2.56      0.00
    2   21    6      1.82      0.00
   -2   21    6     -1.40      0.00
    2   21    5      1.87      0.00
   -2   21    5     -0.25      0.00
    2   21    4     -0.60      0.00
   -2   21    4      1.60      0.00
    2   21    3      1.69      0.00
   -2   21    3      0.92      0.00
    2   21    2     -3.92      0.00
   -2   21    2     -0.55      0.00
    2   21    1      0.69      0.00
   -2   21    1      4.53      0.00
    2   21    0     -0.60      0.00
    2   21    7      0.92      0.00
    2   21   17      0.94      0.00
   -3   21   15     -2.23      0.00
    3   21   14      1.25      0.00
   -3   21   14      0.94      0.00
    3   21   13     -1.38      0.00
   -3   21   13     -1.19      0.00
    3   21   12     -1.31      0.00
   -3   21   12     -1.06      0.00
    3   21   11      3.00      0.00
   -3   21   11     -1.74      0.00
    3   21   10     -4.96      0.00
   -3   21   10     -0.20      0.00
    3   21    9      0.75      0.00
   -3   21    9     -0.18      0.00
    3   21    8     -2.70      0.00
   -3   21    8     -0.69      0.00
    3   21    7      0.80      0.00
   -3   21    7     -0.64      0.00
    3   21    6      0.70      0.00
   -3   21    6     -2.45      0.00
    3   21    5      0.84      0.00
   -3   21    5     -1.65      0.00
    3   21    4      3.09      0.00
   -3   21    4      2.17      0.00
    3   21    3      2.03      0.00
   -3   21    3     -0.59      0.00
    3   21    2      3.88      0.00
   -3   21    2      2.17      0.00
    3   21    1      1.24      0.00
   -3   21    1     -0.09      0.00
    3   21    0      0.25      0.00
    3   21   15      4.72      0.00
    4   21   13      5.89      0.00
   -4   21   13     -0.11      0.00
    4   21   12     -4.96      0.00
   -4   21   12     -3.32      0.00
    4   21   11      3.75      0.00
   -4   21   11      0.41      0.00
    4   21   10     -7.44      0.00
   -4   21   10     -0.57      0.00
    4   21    9      2.57      0.00
   -4   21    9      0.14      0.00
    4   21    8     -3.84      0.00
   -4   21    8      0.66      0.00
    4   21    7     -1.27      0.00
   -4   21    7     -1.28      0.00
    4   21    6      0.42      0.00
   -4   21    6      2.31      0.00
    4   21    5     -1.29      0.00
   -4   21    5      2.15      0.00
    4   21    4     -1.47      0.00
   -4   21    4     -1.39      0.00
    4   21    3     -0.24      0.00
   -4   21    3      1.17      0.00
    4   21    2     -0.63      0.00
   -4   21    2     -2.92      0.00
   -4   21    1     -0.68      0.00
    4   21    0      3.02      0.00
    4   21    1     -0.51      0.00
    5   21    8      3.68      0.00
   -5   21    8      4.57      0.00
    5   21    7     -0.98      0.00
   -5   21    7     -1.26      0.00
    5   21    6     -1.23      0.00
   -5   21    6     -1.00      0.00
    5   21    5     -3.74      0.00
   -5   21    5     -3.42      0.00
    5   21    4     -2.60      0.00
   -5   21    4     -2.15      0.00
    5   21    3     -2.72      0.00
   -5   21    3      1.21      0.00
    5   21    2      0.69      0.00
   -5   21    2     -3.18      0.00
    5   21    1      0.89      0.00
   -5   21    1      1.66      0.00
    5   21    0      3.59      0.00
    0   22   17      3.11      0.00
    0   22   16      0.39      0.00
    0   22   15      4.84      0.00
    0   22   14     -1.21      0.00
    0   22   13      4.18      0.00
    0   22   12     -1.32      0.00
    0   22   11      2.87      0.00
    0   22   10      0.37      0.00
    0   22    9      0.30      0.00
    0   22    8      0.56      0.00
    0   22    7     -1.88      0.00
    0   22    6      0.85      0.00
    0   22    5     -0.89      0.00
    0   22    4      0.99      0.00
    0   22    3     -1.58      0.00
    0   22    2      3.42      0.00
    0   22    1     -2.61      0.00
    0   22    0      4.99      0.00
   -1   22   17      0.34      0.00
    1   22   16      1.59      0.00
   -1   22   16      1.90      0.00
    1   22   15     -3.34      0.00
   -1   22   15     -2.64      0.00
    1   22   14      6.06      0.00
   -1   22   14      1.90      0.00
    1   22   13     -1.88      0.00
   -1   22   13      1.25      0.00
    1   22   12      2.96      0.00
   -1   22   12      2.71      0.00
    1   22   11      2.70      0.00
   -1   22   11      2.49      0.00
    1   22   10      1.25      0.00
   -1   22   10     -0.02      0.00
    1   22    9      2.35      0.00
   -1   22    9      6.44      0.00
    1   22    8     -1.40      0.00
   -1   22    8     -0.81      0.00
    1   22    7      1.25      0.00
   -1   22    7      3.90      0.00
    1   22    6     -1.40      0.00
   -1   22    6     -1.99      0.00
    1   22    5      0.63      0.00
   -1   22    5     -0.68      0.00
    1   22    4      2.08      0.00
   -1   22    4     -1.24      0.00
    1   22    3      0.16      0.00
   -1   22    3     -0.92      0.00
    1   22    2      0.25      0.00
   -1   22    2      2.28      0.00
    1   22    1     -2.46      0.00
   -1   22    1      1.99      0.00
    1   22    0     -1.09      0.00
    1   22   17      4.07      0.00
   -2   22   16      3.08      0.00
    2   22   15     -2.89      0.00
   -2   22   15      0.82      0.00
    2   22   14     -3.63      0.00
   -2   22   14      2.24      0.00
    2   22   13     -7.22      0.00
   -2   22   13     -0.42      0.00
   -2   22   12     -0.87      0.00
    2   22   11     -3.90      0.00
   -2   22   11     -2.69      0.00
    2   22   10     -0.22      0.00
   -2   22   10      0.89      0.00
    2   22    9      3.21      0.00
   -2   22    9     -2.42      0.00
    2   22    8     -2.15      0.00
   -2   22    8      1.05      0.00
    2   22    7      0.34      0.00
   -2   22    7     -0.55      0.00
    2   22    6     -1.38      0.00
   -2   22    6      0.39      0.00
    2   22    5     -0.15      0.00
   -2   22    5     -1.12      0.00
    2   22    4     -3.74      0.00
   -2   22    4      0.77      0.00
    2   22    3      3.54      0.00
   -2   22    3     -0.04      0.00
    2   22    2      1.04      0.00
   -2   22    2     -3.72      0.00
    2   22    1      4.70      0.00
   -2   22    1     -0.63      0.00
    2   22    0      1.22      0.00
    2   22   12     -0.70      0.00
    2   22   16      3.03      0.00
    3   22   14     -4.79      0.00
   -3   22   14      0.50      0.00
    3   22   13      1.87      0.00
   -3   22   13      0.87      0.00
    3   22   12     -2.98      0.00
   -3   22   12      0.81      0.00
    3   22   11      6.77      0.00
   -3   22   11      1.87      0.00
    3   22   10     -2.85      0.00
   -3   22   10      0.32      0.00
    3   22    9      5.75      0.00
   -3   22    9     -1.22      0.00
    3   22    8      1.77      0.00
   -3   22    8     -1.95      0.00
    3   22    7      0.52      0.00
   -3   22    7      1.66      0.00
    3   22    6     -1.02      0.00
   -3   22    6      0.83      0.00
    3   22    5     -2.92      0.00
   -3   22    5      0.96      0.00
    3   22    4     -0.42      0.00
   -3   22    4      3.48      0.00
    3   22    3     -4.17      0.00
   -3   22    3     -1.62      0.00
    3   22    2     -2.42      0.00
   -3   22    2     -0.27      0.00
    3   22    1      0.11      0.00
   -3   22    1     -3.04      0.00
    3   22    0     -1.81      0.00
    4   22   12     -6.03      0.00
   -4   22   12     -1.63      0.00
    4   22   11      3.91      0.00
   -4   22   11      1.00      0.00
    4   22   10     -1.74      0.00
   -4   22   10      0.16      0.00
    4   22    9      2.03      0.00
   -4   22    9     -1.78      0.00
    4   22    8      0.23      0.00
   -4   22    8      2.43      0.00
    4   22    7     -4.23      0.00
   -4   22    7     -0.40      0.00
    4   22    6      0.49      0.00
   -4   22    6      1.14      0.00
    4   22    5     -2.60      0.00
   -4   22    5      1.54      0.00
    4   22    4     -1.64      0.00
   -4   22    4     -2.56      0.00
    4   22    3      1.82      0.00
   -4   22    3     -0.16      0.00
   -4   22    2      0.61      0.00
    4   22    1      0.81      0.00
   -4   22    1     -0.97      0.00
    4   22    0      0.67      0.00
    4   22    2      1.18      0.00
    5   22    7     -1.14      0.00
   -5   22    7     -2.96      0.00
    5   22    6     -2.46      0.00
   -5   22    6      3.36      0.00
    5   22    5      2.09      0.00
   -5   22    5      1.31      0.00
    5   22    4      1.54      0.00
   -5   22    4      1.84      0.00
    5   22    3      3.27      0.00
   -5   22    3      2.19      0.00
    5   22    2      0.38      0.00
   -5   22    2     -2.06      0.00
    5   22    1      0.28      0.00
   -5   22    1      1.63      0.00
    5   22    0     -1.33      0.00
    0   23   16     -2.50      0.00
    0   23   15     -0.69      0.00
    0   23   14     -3.25      0.00
    0   23   13      1.05      0.00
    0   23   12     -3.09      0.00
    0   23   11     -0.42      0.00
    0   23   10     -1.74      0.00
    0   23    9     -2.16      0.00
    0   23    8      1.21      0.00
    0   23    7     -2.82      0.00
    0   23    6      1.77      0.00
    0   23    5     -1.94      0.00
    0   23    4      0.03      0.00
    0   23    3     -2.24      0.00
    0   23    2      0.44      0.00
    0   23    1     -2.40      0.00
   -1   23   16      2.84      0.00
    1   23   15     -3.29      0.00
   -1   23   15      0.81      0.00
    1   23   14      5.78      0.00
   -1   23   14     -0.12      0.00
    1   23   13     -0.85      0.00
   -1   23   13     -0.18      0.00
    1   23   12     -2.43      0.00
   -1   23   12     -3.16      0.00
    1   23   11     -1.62      0.00
   -1   23   11      0.73      0.00
    1   23   10     -4.34      0.00
   -1   23   10     -2.35      0.00
    1   23    9     -1.06      0.00
   -1   23    9      4.55      0.00
    1   23    8     -3.49      0.00
   -1   23    8     -3.48      0.00
    1   23    7      2.22      0.00
   -1   23    7      3.30      0.00
    1   23    6     -0.81      0.00
   -1   23    6     -2.46      0.00
    1   23    5      0.71      0.00
   -1   23    5      1.38      0.00
    1   23    4     -1.98      0.00
   -1   23    4      0.74      0.00
    1   23    3     -1.02      0.00
   -1   23    3     -4.45      0.00
    1   23    2     -2.67      0.00
   -1   23    2      1.74      0.00
    1   23    1      2.67      0.00
   -1   23    1     -0.67      0.00
    1   23    0      0.12      0.00
    1   23   16      5.09      0.00
   -2   23   15     -1.89      0.00
    2   23   14     -2.82      0.00
   -2   23   14     -0.65      0.00
    2   23   13      2.32      0.00
   -2   23   13     -1.65      0.00
    2   23   12      4.30      0.00
   -2   23   12     -1.14      0.00
    2   23   11      0.74      0.00
   -2   23   11     -0.07      0.00
    2   23   10     -2.47      0.00
   -2   23   10      2.73      0.00
    2   23    9      1.51      0.00
   -2   23    9     -1.80      0.00
    2   23    8     -1.60      0.00
   -2   23    8      2.28      0.00
    2   23    7     -0.42      0.00
   -2   23    7     -1.19      0.00
    2   23    6     -0.25      0.00
   -2   23    6      1.96      0.00
    2   23    5      1.22      0.00
   -2   23    5     -2.36      0.00
    2   23    4     -1.86      0.00
   -2   23    4      0.94      0.00
    2   23    3      0.38      0.00
   -2   23    3      1.92      0.00
    2   23    2     -3.90      0.00
   -2   23    2      2.87      0.00
    2   23    1     -5.00      0.00
   -2   23    1     -0.13      0.00
    2   23    0     -5.12      0.00
    2   23   15      0.01      0.00
   -3   23   14      0.41      0.00
    3   23   13      4.62      0.00
   -3   23   13      2.35      0.00
    3   23   12     -4.97      0.00
   -3   23   12     -1.19      0.00
    3   23   11      2.44      0.00
   -3   23   11      0.29      0.00
    3   23   10     -2.81      0.00
   -3   23   10      0.96      0.00
    3   23    9     -3.02      0.00
   -3   23    9      1.95      0.00
    3   23    8      0.19      0.00
   -3   23    8      1.48      0.00
    3   23    7     -2.30      0.00
   -3   23    7      3.14      0.00
    3   23    6      1.83      0.00
   -3   23    6     -0.76      0.00
    3   23    5     -1.13      0.00
   -3   23    5     -2.28      0.00
    3   23    4      2.95      0.00
   -3   23    4     -0.89      0.00
    3   23    3     -1.29      0.00
   -3   23    3     -1.86      0.00
    3   23    2      1.94      0.00
   -3   23    2      0.14      0.00
    3   23    1      1.73      0.00
   -3   23    1      0.05      0.00
    3   23    0     -3.15      0.00
    3   23   14      1.54      0.00
    4   23   11      3.76      0.00
   -4   23   11      1.01      0.00
    4   23   10     -2.09      0.00
   -4   23   10      1.78      0.00
    4   23    9     -0.58      0.00
   -4   23    9     -1.00      0.00
    4   23    8      2.52      0.00
   -4   23    8      0.59      0.00
    4   23    7      0.04      0.00
   -4   23    7     -2.64      0.00
    4   23    6      4.84      0.00
   -4   23    6     -3.49      0.00
    4   23    5      3.45      0.00
   -4   23    5     -0.12      0.00
    4   23    4     -0.16      0.00
   -4   23    4     -0.69      0.00
    4   23    3      1.21      0.00
   -4   23    3     -0.17      0.00
    4   23    2     -3.80      0.00
   -4   23    2      3.98      0.00
    4   23    1     -0.91      0.00
   -4   23    1      0.51      0.00
    4   23    0     -3.78      0.00
    5   23    6     -0.42      0.00
   -5   23    6      1.87      0.00
    5   23    5      4.88      0.00
   -5   23    5     -2.85      0.00
    5   23    4     -1.79      0.00
   -5   23    4     -2.96      0.00
    5   23    3      1.45      0.00
    5   23    2     -3.98      0.00
   -5   23    2     -1.17      0.00
    5   23    1      1.25      0.00
   -5   23    1      1.46      0.00
    5   23    0     -2.11      0.00
   -5   23    3     -0.10      0.00
    0   24   15     -1.50      0.00
    0   24   14      0.08      0.00
    0   24   13      0.00      0.00
    0   24   12     -1.69      0.00
    0   24   11      0.50      0.00
    0   24   10     -0.25      0.00
    0   24    9      0.49      0.00
    0   24    8      1.00      0.00
    0   24    7      0.52      0.00
    0   24    6      2.20      0.00
    0   24    5      1.75      0.00
    0   24    4      0.61      0.00
    0   24    3      4.21      0.00
    0   24    2      0.07      0.00
    0   24    1      2.52      0.00
    0   24    0     -0.53      0.00
    0   24   16      0.67      0.00
   -1   24   16      1.51      0.00
    1   24   15     -6.77      0.00
   -1   24   15     -0.88      0.00
    1   24   14     -6.14      0.00
   -1   24   14     -2.56      0.00
    1   24   13     -0.87      0.00
   -1   24   13      3.72      0.00
    1   24   12     -3.27      0.00
   -1   24   12      1.36      0.00
    1   24   11      1.93      0.00
   -1   24   11      1.75      0.00
    1   24   10      2.23      0.00
   -1   24   10     -2.84      0.00
    1   24    9      2.99      0.00
   -1   24    9     -1.76      0.00
    1   24    8      1.57      0.00
   -1   24    8     -4.14      0.00
    1   24    7      2.10      0.00
   -1   24    7      0.52      0.00
    1   24    6     -1.66      0.00
   -1   24    6     -3.72      0.00
    1   24    5      0.52      0.00
   -1   24    5      2.43      0.00
    1   24    4     -0.53      0.00
   -1   24    4      2.32      0.00
    1   24    3      3.23      0.00
   -1   24    3     -1.62      0.00
    1   24    2     -1.30      0.00
   -1   24    2      2.27      0.00
    1   24    1      3.25      0.00
   -1   24    1     -1.05      0.00
    1   24    0     -3.94      0.00
   -2   24   15     -6.28      0.00
    2   24   14     -0.50      0.00
   -2   24   14     -1.88      0.00
    2   24   13      1.28      0.00
   -2   24   13      1.78      0.00
    2   24   12     -1.22      0.00
   -2   24   12     -0.07      0.00
    2   24   11      0.40      0.00
   -2   24   11      1.97      0.00
    2   24   10     -1.37      0.00
   -2   24   10      1.00      0.00
    2   24    9      1.70      0.00
   -2   24    9     -1.27      0.00
    2   24    8      0.82      0.00
   -2   24    8      0.58      0.00
    2   24    7     -1.55      0.00
   -2   24    7     -1.50      0.00
    2   24    6      2.49      0.00
   -2   24    6      1.53      0.00
    2   24    5      0.67      0.00
   -2   24    5     -0.51      0.00
    2   24    4      0.13      0.00
   -2   24    4      0.89      0.00
    2   24    3      0.66      0.00
   -2   24    3     -1.87      0.00
    2   24    2      1.54      0.00
   -2   24    2     -1.97      0.00
    2   24    1      3.26      0.00
   -2   24    1     -7.15      0.00
    2   24    0      0.98      0.00
    2   24   15      7.95      0.00
    3   24   13     -0.22      0.00
   -3   24   13     -1.62      0.00
    3   24   12     -0.13      0.00
   -3   24   12     -3.70      0.00
    3   24   11      0.66      0.00
   -3   24   11     -1.67      0.00
    3   24   10      4.24      0.00
   -3   24   10     -0.48      0.00
    3   24    9     -5.02      0.00
   -3   24    9     -1.99      0.00
    3   24    8      3.92      0.00
   -3   24    8     -4.18      0.00
    3   24    7     -2.25      0.00
   -3   24    7     -0.96      0.00
    3   24    6      0.13      0.00
   -3   24    6     -1.37      0.00
    3   24    5     -1.05      0.00
   -3   24    5     -0.85      0.00
    3   24    4      4.71      0.00
   -3   24    4      0.58      0.00
    3   24    3     -1.66      0.00
   -3   24    3      1.36      0.00
    3   24    2      1.40      0.00
   -3   24    2      1.95      0.00
    3   24    1      0.21      0.00
   -3   24    1     -1.34      0.00
    3   24    0      0.43      0.00
    4   24   10     -2.40      0.00
   -4   24   10     -0.78      0.00
    4   24    9      1.67      0.00
   -4   24    9     -0.52      0.00
    4   24    8      0.48      0.00
   -4   24    8      0.64      0.00
    4   24    7     -1.80      0.00
   -4   24    7      1.46      0.00
    4   24    6     -2.29      0.00
   -4   24    6      1.78      0.00
    4   24    5     -1.03      0.00
   -4   24    5      2.71      0.00
    4   24    4     -3.28      0.00
   -4   24    4      1.41      0.00
    4   24    3      2.51      0.00
   -4   24    3     -2.03      0.00
    4   24    2      1.18      0.00
   -4   24    2     -0.64      0.00
    4   24    1      5.04      0.00
   -4   24    1     -3.71      0.00
    4   24    0     -0.16      0.00
    5   24    4     -4.38      0.00
   -5   24    4      0.65      0.00
    5   24    3      1.78      0.00
   -5   24    3      3.76      0.00
    5   24    2     -1.70      0.00
   -5   24    2      0.57      0.00
    5   24    1      3.86      0.00
   -5   24    1     -0.89      0.00
    5   24    0     -0.21      0.00
    0   25   15      0.09      0.00
    0   25   14      3.08      0.00
    0   25   13      1.14      0.00
    0   25   12      1.64      0.00
    0   25   11      1.78      0.00
    0   25   10      0.52      0.00
    0   25    9      1.52      0.00
    0   25    8     -1.99      0.00
    0   25    7     -0.87      0.00
    0   25    6     -3.27      0.00
    0   25    5     -1.26      0.00
    0   25    4     -5.51      0.00
    0   25    3      1.09      0.00
    0   25    2     -6.05      0.00
    0   25    1     -0.41      0.00
   -1   25   15      1.22      0.00
    1   25   14      0.72      0.00
   -1   25   14     -0.60      0.00
    1   25   13     10.66      0.00
   -1   25   13     -1.84      0.00
    1   25   12      1.01      0.00
   -1   25   12     -2.63      0.00
    1   25   11      2.00      0.00
   -1   25   11     -2.52      0.00
    1   25   10      1.55      0.00
   -1   25   10      1.89      0.00
    1   25    9     -2.23      0.00
   -1   25    9      0.82      0.00
    1   25    8     -0.39      0.00
   -1   25    8      3.57      0.00
    1   25    7     -0.53      0.00
   -1   25    7      2.94      0.00
    1   25    6     -0.65      0.00
   -1   25    6     -2.62      0.00
    1   25    5      1.74      0.00
   -1   25    5      2.67      0.00
    1   25    4      0.06      0.00
   -1   25    4     -1.05      0.00
    1   25    3     -0.27      0.00
   -1   25    3     -0.78      0.00
    1   25    2     -4.33      0.00
   -1   25    2      1.07      0.00
    1   25    1      2.57      0.00
   -1   25    1      4.37      0.00
    1   25    0     -3.73      0.00
   -2   25   14      6.64      0.00
    2   25   13     -0.35      0.00
   -2   25   13      6.48      0.00
    2   25   12      2.10      0.00
   -2   25   12     -1.69      0.00
    2   25   11      2.61      0.00
   -2   25   11     -0.52      0.00
    2   25   10      0.59      0.00
   -2   25   10     -0.77      0.00
    2   25    9      0.76      0.00
   -2   25    9     -1.08      0.00
    2   25    8      3.38      0.00
   -2   25    8      0.76      0.00
    2   25    7     -1.98      0.00
   -2   25    7      0.41      0.00
    2   25    6      1.89      0.00
   -2   25    6      0.25      0.00
    2   25    5     -2.64      0.00
   -2   25    5      0.07      0.00
    2   25    4      0.37      0.00
   -2   25    4     -2.04      0.00
    2   25    3      0.78      0.00
   -2   25    3      0.14      0.00
    2   25    2      1.84      0.00
   -2   25    2      2.90      0.00
    2   25    1      3.57      0.00
   -2   25    1      4.34      0.00
    2   25    0     -3.47      0.00
    2   25   14     -2.61      0.00
    3   25   12     -0.52      0.00
    3   25   11     -5.67      0.00
    3   25   10      3.27      0.00
   -3   25   10      0.63      0.00
    3   25    9     -4.93      0.00
   -3   25    9      2.14      0.00
    3   25    8      2.45      0.00
   -3   25    8     -0.65      0.00
    3   25    7      2.06      0.00
   -3   25    7      3.07      0.00
    3   25    6     -0.71      0.00
   -3   25    6      1.80      0.00
    3   25    5     -0.96      0.00
   -3   25    5      0.40      0.00
    3   25    4     -0.20      0.00
   -3   25    4      1.30      0.00
    3   25    3     -4.85      0.00
   -3   25    3      0.15      0.00
    3   25    2      0.28      0.00
   -3   25    2      0.82      0.00
    3   25    1      1.16      0.00
   -3   25    1     -2.36      0.00
    3   25    0      0.65      0.00
   -3   25   11      1.63      0.00
   -3   25   12      3.54      0.00
    4   25    9      1.77      0.00
   -4   25    9      0.33      0.00
    4   25    8     -1.35      0.00
   -4   25    8      0.94      0.00
    4   25    7     -0.09      0.00
   -4   25    7     -1.15      0.00
    4   25    6      0.17      0.00
   -4   25    6      0.24      0.00
    4   25    5      1.58      0.00
   -4   25    5     -1.21      0.00
    4   25    4      0.75      0.00
   -4   25    4     -0.18      0.00
    4   25    3     -0.29      0.00
   -4   25    3      0.58      0.00
    4   25    2     -0.66      0.00
    4   25    1     -2.51      0.00
   -4   25    1      1.23      0.00
    4   25    0     -1.93      0.00
   -4   25    2      0.51      0.00
    5   25    1     -1.10      0.00
   -5   25    1     -2.62      0.00
    5   25    0     -1.13      0.00
    0   26   14     -0.81      0.00
    0   26   13     -0.98      0.00
    0   26   12      1.15      0.00
    0   26   11     -1.74      0.00
    0   26   10      0.70      0.00
    0   26    9      1.14      0.00
    0   26    8      0.78      0.00
    0   26    7      3.01      0.00
    0   26    6      2.76      0.00
    0   26    5      4.79      0.00
    0   26    4     -0.04      0.00
    0   26    3      4.71      0.00
    0   26    2      0.10      0.00
    0   26    1      2.00      0.00
    0   26    0      2.48      0.00
   -1   26   14      1.70      0.00
    1   26   13     -0.48      0.00
   -1   26   13     -2.21      0.00
    1   26   12     -5.99      0.00
   -1   26   12      4.33      0.00
    1   26   11     -2.85      0.00
   -1   26   11      1.44      0.00
    1   26   10     -1.17      0.00
   -1   26   10      1.93      0.00
    1   26    9     -3.17      0.00
   -1   26    9     -3.50      0.00
    1   26    8     -0.49      0.00
   -1   26    8      0.75      0.00
    1   26    7     -0.06      0.00
   -1   26    7      0.71      0.00
    1   26    6     -1.91      0.00
   -1   26    6     -2.60      0.00
    1   26    5     -1.51      0.00
   -1   26    5      1.33      0.00
    1   26    4     -0.09      0.00
   -1   26    4     -2.08      0.00
    1   26    3      0.15      0.00
   -1   26    3     -0.94      0.00
    1   26    2      0.62      0.00
   -1   26    2     -3.22      0.00
    1   26    1      6.53      0.00
   -1   26    1     -3.71      0.00
    1   26    0     -2.59      0.00
   -2   26   13     -5.75      0.00
    2   26   12     -1.99      0.00
   -2   26   12     -4.14      0.00
    2   26   11     -5.36      0.00
   -2   26   11     -1.84      0.00
    2   26   10     -4.37      0.00
   -2   26   10      3.57      0.00
    2   26    9     -4.67      0.00
   -2   26    9     -1.27      0.00
    2   26    8     -2.51      0.00
   -2   26    8      1.13      0.00
    2   26    7     -4.52      0.00
   -2   26    7     -1.20      0.00
    2   26    6      0.53      0.00
   -2   26    6     -2.61      0.00
    2   26    5      0.05      0.00
   -2   26    5      1.87      0.00
    2   26    4      1.36      0.00
   -2   26    4     -0.57      0.00
    2   26    3     -2.30      0.00
   -2   26    3      3.14      0.00
    2   26    2     -3.35      0.00
   -2   26    2     -2.01      0.00
    2   26    1     -1.61      0.00
   -2   26    1     -0.01      0.00
    2   26    0     -7.37      0.00
    3   26   11      3.33      0.00
    3   26   10      4.68      0.00
    3   26    9      3.02      0.00
    3   26    8     -1.12      0.00
   -3   26    8     -2.23      0.00
    3   26    7      6.10      0.00
   -3   26    7      0.16      0.00
    3   26    6     -3.16      0.00
   -3   26    6      0.28      0.00
    3   26    5      2.18      0.00
   -3   26    5     -1.74      0.00
    3   26    4      2.56      0.00
   -3   26    4     -0.68      0.00
    3   26    3      2.98      0.00
   -3   26    3     -2.41      0.00
    3   26    2     -0.81      0.00
   -3   26    2      1.07      0.00
    3   26    1     -1.85      0.00
   -3   26    1      1.62      0.00
    3   26    0     -1.63      0.00
   -3   26    9      4.90      0.00
   -3   26   10     -0.87      0.00
   -3   26   11      0.03      0.00
    4   26    8     -0.18      0.00
   -4   26    8      2.09      0.00
    4   26    7     -0.08      0.00
   -4   26    7     -3.30      0.00
    4   26    6      1.34      0.00
   -4   26    6      0.46      0.00
    4   26    5     -1.19      0.00
   -4   26    5     -1.15      0.00
    4   26    4      0.75      0.00
   -4   26    4     -1.11      0.00
    4   26    3     -4.41      0.00
   -4   26    3      0.58      0.00
    4   26    2      1.83      0.00
    4   26    1     -3.06      0.00
   -4   26    1      0.90      0.00
    4   26    0      0.21      0.00
   -4   26    2     -2.65      0.00
    0   27   13     -3.34      0.00
    0   27   12     -0.18      0.00
    0   27   11     -6.38      0.00
    0   27   10     -0.24      0.00
    0   27    9     -3.74      0.00
    0   27    8     -1.79      0.00
    0   27    7     -3.34      0.00
    0   27    6     -2.85      0.00
    0   27    5     -1.47      0.00
    0   27    4     -3.35      0.00
    0   27    3      0.83      0.00
    0   27    2     -0.26      0.00
    0   27    1     -0.60      0.00
    0   27   14      1.29      0.00
   -1   27   14      7.97      0.00
    1   27   13      3.29      0.00
   -1   27   13     -2.82      0.00
    1   27   12      1.49      0.00
   -1   27   12      0.64      0.00
    1   27   11      2.24      0.00
   -1   27   11     -1.44      0.00
    1   27   10      2.18      0.00
   -1   27   10     -0.58      0.00
    1   27    9      2.27      0.00
   -1   27    9     -0.85      0.00
    1   27    8      1.53      0.00
   -1   27    8      1.40      0.00
    1   27    7      2.88      0.00
   -1   27    7     -0.39      0.00
    1   27    6      1.30      0.00
   -1   27    6     -0.36      0.00
    1   27    5     -0.01      0.00
   -1   27    5      0.98      0.00
    1   27    4      4.16      0.00
   -1   27    4      3.31      0.00
    1   27    3     -0.42      0.00
   -1   27    3      2.48      0.00
    1   27    2     -1.43      0.00
   -1   27    2      2.09      0.00
    1   27    1      0.11      0.00
   -1   27    1      0.48      0.00
    1   27    0     -4.62      0.00
   -2   27   13      6.26      0.00
    2   27   12      5.05      0.00
   -2   27   12      6.88      0.00
    2   27   11      6.01      0.00
   -2   27   11     -2.59      0.00
    2   27   10      5.20      0.00
   -2   27   10      3.09      0.00
    2   27    9      7.37      0.00
   -2   27    9     -4.69      0.00
    2   27    8      4.28      0.00
   -2   27    8      1.33      0.00
    2   27    7      6.31      0.00
   -2   27    7      0.75      0.00
    2   27    6      0.51      0.00
   -2   27    6      0.23      0.00
    2   27    5      0.60      0.00
   -2   27    5      2.86      0.00
    2   27    4     -1.54      0.00
   -2   27    4     -1.80      0.00
    2   27    3     -1.60      0.00
   -2   27    3     -0.78      0.00
    2   27    2      1.27      0.00
   -2   27    2     -3.11      0.00
    2   27    1      3.17      0.00
   -2   27    1      2.73      0.00
    2   27    0      0.35      0.00
    3   27   10     -7.81      0.00
    3   27    9      0.63      0.00
    3   27    8    -11.48      0.00
   -3   27    8     -4.07      0.00
    3   27    7      1.68      0.00
   -3   27    7     -0.90      0.00
    3   27    6     -7.91      0.00
   -3   27    6      1.60      0.00
    3   27    5     -0.41      0.00
   -3   27    5     -0.58      0.00
    3   27    4     -4.79      0.00
   -3   27    4      1.15      0.00
    3   27    3      0.56      0.00
   -3   27    3      0.07      0.00
    3   27    2     -3.23      0.00
   -3   27    2      0.44      0.00
    3   27    1      2.37      0.00
   -3   27    1      0.78      0.00
    3   27    0      5.93      0.00
   -3   27    9      0.24      0.00
   -3   27   10     -6.40      0.00
   -3   27   11     -0.18      0.00
    3   27   11      2.09      0.00
    4   27    7     -2.21      0.00
   -4   27    7     -1.48      0.00
    4   27    6      0.21      0.00
   -4   27    6      1.73      0.00
    4   27    5     -2.22      0.00
   -4   27    5      0.01      0.00
    4   27    4      1.80      0.00
   -4   27    4      0.14      0.00
    4   27    3     -0.66      0.00
    4   27    2      5.18      0.00
    4   27    1      1.87      0.00
   -4   27    1      3.21      0.00
    4   27    0      2.23      0.00
   -4   27    2     -0.70      0.00
   -4   27    3      0.99      0.00
    0   28   12      9.50      0.00
    0   28   11      1.95      0.00
    0   28   10      6.91      0.00
    0   28    9      1.28      0.00
    0   28    8      3.29      0.00
    0   28    7     -0.66      0.00
    0   28    6      0.88      0.00
    0   28    5      1.30      0.00
    0   28    4     -1.38      0.00
    0   28    3      0.59      0.00
    0   28    2     -1.57      0.00
    0   28    1     -0.75      0.00
    0   28    0     -0.89      0.00
    0   28   13      0.58      0.00
   -1   28   13     -5.76      0.00
    1   28   12      0.10      0.00
   -1   28   12     -0.55      0.00
    1   28   11     -0.61      0.00
   -1   28   11      1.95      0.00
    1   28   10     -1.16      0.00
   -1   28   10      0.70      0.00
    1   28    9     -0.76      0.00
   -1   28    9     -1.08      0.00
    1   28    8     -2.67      0.00
   -1   28    8     -0.73      0.00
    1   28    7     -0.73      0.00
   -1   28    7     -1.68      0.00
    1   28    6      0.90      0.00
   -1   28    6      1.36      0.00
    1   28    5     -4.29      0.00
   -1   28    5     -4.27      0.00
    1   28    4      2.17      0.00
   -1   28    4     -1.05      0.00
    1   28    3     -4.14      0.00
   -1   28    3     -2.94      0.00
    1   28    2     -1.87      0.00
   -1   28    2     -0.07      0.00
    1   28    1     -1.83      0.00
   -1   28    1      1.28      0.00
    1   28    0      0.62      0.00
   -2   28   12      2.26      0.00
    2   28   11      0.34      0.00
   -2   28   11     -3.96      0.00
    2   28   10     -8.78      0.00
   -2   28   10      3.10      0.00
    2   28    9     -0.61      0.00
   -2   28    9      0.58      0.00
    2   28    8     -9.18      0.00
   -2   28    8      2.05      0.00
    2   28    7      0.12      0.00
   -2   28    7      1.38      0.00
    2   28    6     -7.05      0.00
   -2   28    6     -1.48      0.00
    2   28    5      4.43      0.00
   -2   28    5     -0.91      0.00
    2   28    4      1.41      0.00
   -2   28    4      0.44      0.00
    2   28    3      3.01      0.00
   -2   28    3      0.17      0.00
    2   28    2      2.53      0.00
   -2   28    2      2.18      0.00
    2   28    1      1.79      0.00
   -2   28    1     -0.10      0.00
    2   28    0      1.32      0.00
    3   28    9      8.61      0.00
    3   28    8     -1.97      0.00
    3   28    7      9.92      0.00
   -3   28    7     -0.53      0.00
    3   28    6      2.44      0.00
   -3   28    6      0.29      0.00
    3   28    5      5.80      0.00
   -3   28    5     -0.53      0.00
    3   28    4     -0.63      0.00
   -3   28    4     -0.31      0.00
    3   28    3      6.36      0.00
   -3   28    3     -1.55      0.00
    3   28    2      0.08      0.00
   -3   28    2     -1.43      0.00
    3   28    1     -2.59      0.00
   -3   28    1      4.10      0.00
    3   28    0     -0.58      0.00
   -3   28    8      2.22      0.00
   -3   28    9      5.33      0.00
    4   28    5      3.41      0.00
    4   28    4      1.17      0.00
   -4   28    4      4.33      0.00
    4   28    3      1.52      0.00
   -4   28    3      1.09      0.00
    4   28    2     -2.65      0.00
    4   28    1     -0.07      0.00
    4   28    0     -5.28      0.00
   -4   28    1      0.92      0.00
   -4   28    2      0.19      0.00
   -4   28    5      0.01      0.00
    0   29   11     -7.74      0.00
    0   29   10     -3.30      0.00
    0   29    9     -2.50      0.00
    0   29    8      3.62      0.00
    0   29    7     -0.36      0.00
    0   29    6      4.21      0.00
    0   29    5      2.16      0.00
    0   29    4     -0.71      0.00
    0   29    3      2.24      0.00
    0   29    2     -0.53      0.00
    0   29    1     -0.20      0.00
   -1   29   12      1.57      0.00
    1   29   11      0.06      0.00
   -1   29   11     -1.03      0.00
    1   29   10      1.26      0.00
   -1   29   10     -0.20      0.00
    1   29    9      1.50      0.00
   -1   29    9     -0.55      0.00
    1   29    8      0.16      0.00
   -1   29    8      2.38      0.00
    1   29    7     -0.06      0.00
   -1   29    7      1.19      0.00
    1   29    6      2.26      0.00
   -1   29    6      3.62      0.00
    1   29    5     -4.78      0.00
   -1   29    5     -1.01      0.00
    1   29    4      2.86      0.00
   -1   29    4      3.12      0.00
    1   29    3     -0.12      0.00
   -1   29    3      1.28      0.00
    1   29    2      3.98      0.00
   -1   29    2     -2.80      0.00
    1   29    1      1.69      0.00
   -1   29    1     -1.32      0.00
    1   29    0      7.66      0.00
   -2   29   11     -0.05      0.00
    2   29   10     -5.19      0.00
   -2   29   10     -2.11      0.00
    2   29    9      5.53      0.00
   -2   29    9      1.28      0.00
    2   29    8     -2.33      0.00
   -2   29    8     -5.12      0.00
    2   29    7      5.59      0.00
   -2   29    7      0.27      0.00
    2   29    6     -4.80      0.00
   -2   29    6     -2.12      0.00
    2   29    5      2.77      0.00
   -2   29    5     -0.95      0.00
    2   29    4     -7.96      0.00
   -2   29    4      2.37      0.00
    2   29    3     -3.09      0.00
   -2   29    3     -1.80      0.00
    2   29    2     -3.75      0.00
   -2   29    2      1.52      0.00
    2   29    1     -3.06      0.00
   -2   29    1     -3.59      0.00
    2   29    0     -1.73      0.00
    3   29    8     -2.82      0.00
    3   29    7     -0.15      0.00
   -3   29    7     -0.93      0.00
    3   29    6     -2.45      0.00
   -3   29    6     -0.08      0.00
    3   29    5     -1.23      0.00
   -3   29    5      1.62      0.00
    3   29    4     -3.67      0.00
   -3   29    4      0.77      0.00
    3   29    3      0.21      0.00
   -3   29    3      1.14      0.00
    3   29    2     -1.52      0.00
   -3   29    2      0.86      0.00
    3   29    1     -2.88      0.00
   -3   29    1      3.53      0.00
    3   29    0      2.90      0.00
   -3   29    8     -1.27      0.00
    4   29    2     -5.98      0.00
    4   29    1      3.92      0.00
    4   29    0     -1.21      0.00
   -4   29    1      0.58      0.00
   -4   29    2     -3.88      0.00
    0   30   10      1.30      0.00
    0   30    9     -2.86      0.00
    0   30    8      0.57      0.00
    0   30    7     -9.39      0.00
    0   30    6     -1.01      0.00
    0   30    5     -1.53      0.00
    0   30    4     -2.17      0.00
    0   30    3      2.44      0.00
    0   30    2      1.23      0.00
    0   30    1     -0.02      0.00
    0   30    0      4.60      0.00
   -1   30   11     -2.97      0.00
    1   30   10     -1.27      0.00
   -1   30   10      3.04      0.00
    1   30    9     -1.63      0.00
   -1   30    9     -0.42      0.00
    1   30    8     -2.76      0.00
   -1   30    8     -1.54      0.00
    1   30    7     -1.36      0.00
   -1   30    7     -2.40      0.00
    1   30    6      2.17      0.00
   -1   30    6     -0.52      0.00
    1   30    5     -0.77      0.00
   -1   30    5     -1.41      0.00
    1   30    4      2.72      0.00
   -1   30    4     -0.16      0.00
    1   30    3      1.95      0.00
   -1   30    3      0.86      0.00
    1   30    2      0.13      0.00
   -1   30    2     -0.21      0.00
    1   30    1     -4.72      0.00
   -1   30    1      6.71      0.00
    1   30    0      1.16      0.00
   -2   30   10     -5.89      0.00
    2   30    9      2.21      0.00
   -2   30    9      4.51      0.00
    2   30    8      3.98      0.00
   -2   30    8     -4.08      0.00
    2   30    7      2.29      0.00
   -2   30    7      6.24      0.00
    2   30    6      0.49      0.00
   -2   30    6      0.35      0.00
    2   30    5      8.59      0.00
   -2   30    5      0.42      0.00
    2   30    4      1.89      0.00
   -2   30    4      0.57      0.00
    2   30    3      8.19      0.00
   -2   30    3     -1.92      0.00
    2   30    2      2.65      0.00
   -2   30    2      0.75      0.00
    2   30    1      0.94      0.00
   -2   30    1     -0.81      0.00
    2   30    0      1.90      0.00
    3   30    7     -4.72      0.00
   -3   30    7      2.71      0.00
    3   30    6      0.21      0.00
   -3   30    6     -0.82      0.00
    3   30    5     -2.25      0.00
   -3   30    5      1.27      0.00
    3   30    4     -0.60      0.00
   -3   30    4      0.31      0.00
    3   30    3     -0.69      0.00
   -3   30    3     -0.60      0.00
    3   30    2      3.22      0.00
   -3   30    2     -3.86      0.00
    3   30    1      0.69      0.00
   -3   30    1     -1.25      0.00
    3   30    0     -1.37      0.00
    0   31    9     -0.33      0.00
    0   31    8      9.52      0.00
    0   31    7     -0.13      0.00
    0   31    6      2.95      0.00
    0   31    5      1.30      0.00
    0   31    4     -5.49      0.00
    0   31    3     -1.65      0.00
    0   31    2     -0.25      0.00
    0   31    1     -4.67      0.00
   -1   31    9      0.21      0.00
    1   31    8      2.60      0.00
   -1   31    8     -0.69      0.00
    1   31    7      2.24      0.00
   -1   31    7      1.48      0.00
    1   31    6      2.56      0.00
   -1   31    6      0.10      0.00
    1   31    5     -0.51      0.00
   -1   31    5     -0.57      0.00
    1   31    4     -3.70      0.00
   -1   31    4     -1.03      0.00
    1   31    3     -1.01      0.00
   -1   31    3     -0.18      0.00
    1   31    2     -3.88      0.00
   -1   31    2     -0.61      0.00
    1   31    1     -3.61      0.00
   -1   31    1     -1.54      0.00
    1   31    0      2.06      0.00
   -1   31   10      2.57      0.00
   -2   31    8     -4.32      0.00
    2   31    7     -9.61      0.00
   -2   31    7      3.26      0.00
    2   31    6     -3.07      0.00
   -2   31    6     -3.36      0.00
    2   31    5     -3.30      0.00
    2   31    4     -8.61      0.00
   -2   31    4      0.30      0.00
    2   31    3     -4.03      0.00
   -2   31    3      1.97      0.00
    2   31    2     -4.37      0.00
   -2   31    2      0.48      0.00
    2   31    1     -1.03      0.00
   -2   31    1      0.98      0.00
    2   31    0      0.99      0.00
   -2   31    5      0.36      0.00
    3   31    5     -0.15      0.00
   -3   31    5     -2.48      0.00
    3   31    4      3.95      0.00
   -3   31    4     -2.02      0.00
    3   31    3     -1.83      0.00
   -3   31    3     -1.06      0.00
    3   31    2      0.67      0.00
   -3   31    2     -1.24      0.00
    3   31    1     -2.42      0.00
   -3   31    1      2.25      0.00
    3   31    0     -3.80      0.00
    0   32    8     -0.18      0.00
    0   32    7     -1.54      0.00
    0   32    6     -3.14      0.00
    0   32    5      8.49      0.00
    0   32    4      1.88      0.00
    0   32    3      3.68      0.00
    0   32    2      3.69      0.00
    0   32    1     -2.39      0.00
    0   32    0      0.69      0.00
   -1   32    8     -1.39      0.00
    1   32    7     -5.93      0.00
   -1   32    7      1.79      0.00
    1   32    6     -0.09      0.00
   -1   32    6      0.35      0.00
    1   32    5     -1.12      0.00
   -1   32    5      3.06      0.00
    1   32    4     -1.35      0.00
   -1   32    4      1.64      0.00
    1   32    3      4.54      0.00
   -1   32    3     -0.47      0.00
    1   32    2      2.42      0.00
   -1   32    2      0.46      0.00
    1   32    1      2.96      0.00
   -1   32    1     -2.72      0.00
    1   32    0      3.01      0.00
   -2   32    7      2.03      0.00
    2   32    6      6.20      0.00
   -2   32    6     -1.49      0.00
    2   32    5      1.54      0.00
   -2   32    5      0.15      0.00
    2   32    4      3.25      0.00
   -2   32    4     -2.97      0.00
    2   32    3      4.22      0.00
   -2   32    3     -0.62      0.00
    2   32    2      3.33      0.00
   -2   32    2     -2.09      0.00
    2   32    1      1.76      0.00
   -2   32    1      0.33      0.00
    2   32    0     -0.35      0.00
    3   32    0      4.19      0.00
    0   33    6     -9.28      0.00
    0   33    5      1.89      0.00
    0   33    4     -5.91      0.00
    0   33    3     -5.04      0.00
    0   33    2      2.05      0.00
    0   33    1      3.25      0.00
    1   33    5     -0.31      0.00
   -1   33    5     -1.45      0.00
    1   33    4     -0.27      0.00
   -1   33    4     -3.78      0.00
    1   33    3      1.33      0.00
   -1   33    3     -1.55      0.00
    1   33    2     -0.80      0.00
   -1   33    2      1.80      0.00
    1   33    1     -0.58      0.00
   -1   33    1      1.04      0.00
    1   33    0     -2.00      0.00
   -1   33    6     -4.80      0.00
    2   33    4      3.82      0.00
   -2   33    4      1.45      0.00
    2   33    3     -1.51      0.00
   -2   33    3      3.16      0.00
    2   33    2     -1.11      0.00
   -2   33    2      1.24      0.00
    2   33    1     -1.61      0.00
   -2   33    1     -0.19      0.00
    2   33    0     -1.41      0.00
    0   34    2     -0.31      0.00
    0   34    1     -1.13      0.00
    0   34    0     -9.14      0.00
    1   34    2     -2.38      0.00
    1   34    1     -2.19      0.00
    1   34    0     -3.37      0.00
   -1   34    1      1.03      0.00
   -1   34    2     -0.74      0.00
   -1   34    3      3.23      0.00
    7    0    0      9.25      0.00
    7    1    0      3.28      0.00
    7    7    0     -8.38      0.00
    7    8    0      1.11      0.00
    7    9    0      0.24      0.00
    7   10    0     -4.35      0.00
    7   11    0      1.02      0.00
    7   12    0     -1.09      0.00
    7   13    0     -0.56      0.00
    7   14    0      1.96      0.00
    7   15    0      0.02      0.00
    7   16    0      0.56      0.00
    7   17    0      0.06      0.00
    6   20    0      2.53      0.00
    6   21    0      4.31      0.00
    6   22    0     -3.00      0.00
    6   23    0      0.49      0.00
    6   24    0     -0.71      0.00
    5   26    0      3.86      0.00
    5   27    0      2.96      0.00
    5   28    0      1.01      0.00
    5   29    0      1.45      0.00
    4   30    0      0.70      0.00
    4   31    0      2.08      0.00
    4   32    0      1.40      0.00
    3   33    0     -0.70      0.00
    4   33    0      0.70      0.00
    2   34    0      1.41      0.00
    3   34    0      7.43      0.00
    1   35    0      3.28      0.00
    2   35    0     -0.66      0.00
    3   35    0      2.71      0.00
    7    1    1     -9.26      0.00
    2    3    1     -7.78      0.00
   -1    4    1     36.82      0.00
   -1    5    1     -2.71      0.00
   -1    6    1     13.48      0.00
   -7    7    1     -7.00      0.00
   -2    7    1      1.41      0.00
   -1    7    1     -8.13      0.00
    7    7    1     -1.12      0.00
   -7    8    1     -6.37      0.00
    7    8    1      2.52      0.00
   -7    9    1      1.69      0.00
   -2    9    1     -0.85      0.00
    2    9    1     -2.53      0.00
    7    9    1     -0.09      0.00
   -7   10    1      2.24      0.00
    7   10    1     -0.66      0.00
   -7   11    1      5.06      0.00
    7   11    1     -0.30      0.00
   -7   12    1      0.70      0.00
    7   12    1      0.54      0.00
   -7   13    1     -1.20      0.00
    1   13    1     -1.33      0.00
    7   13    1      0.05      0.00
   -7   14    1      0.46      0.00
    1   14    1      1.04      0.00
    7   14    1      0.31      0.00
   -7   15    1     -2.07      0.00
    7   15    1     -0.89      0.00
   -7   16    1     -0.52      0.00
    7   16    1      0.01      0.00
   -7   17    1      0.63      0.00
   -2   17    1     -7.43      0.00
    7   17    1     -0.55      0.00
   -6   20    1      0.84      0.00
    6   20    1     -1.78      0.00
   -6   21    1      2.38      0.00
    6   21    1     -1.53      0.00
   -6   22    1      2.44      0.00
    6   22    1     -2.26      0.00
   -6   23    1      4.51      0.00
    6   23    1      0.18      0.00
   -6   24    1     -0.94      0.00
    6   24    1     -0.19      0.00
   -5   26    1      2.23      0.00
    5   26    1     -0.55      0.00
   -5   27    1     -3.21      0.00
    5   27    1     -2.14      0.00
   -5   28    1      1.46      0.00
    5   28    1     -3.48      0.00
   -5   29    1      0.71      0.00
    5   29    1      1.32      0.00
   -4   30    1      4.08      0.00
    4   30    1      3.85      0.00
   -4   31    1     -2.75      0.00
    4   31    1     -1.63      0.00
   -4   32    1      1.26      0.00
   -3   32    1     -0.24      0.00
    3   32    1      2.71      0.00
    4   32    1     -3.14      0.00
   -4   33    1      1.01      0.00
   -3   33    1     -8.83      0.00
    3   33    1     -5.62      0.00
    4   33    1      0.76      0.00
   -3   34    1      1.00      0.00
   -2   34    1     -1.81      0.00
    2   34    1      0.34      0.00
    3   34    1     -2.02      0.00
   -3   35    1     -3.71      0.00
   -2   35    1     -0.59      0.00
   -1   35    1      2.60      0.00
    0   35    1      5.66      0.00
    1   35    1      3.21      0.00
    2   35    1      0.70      0.00
    3   35    1     -1.10      0.00
   -2    0    2    -20.90      0.00
   -1    0    2      2.19      0.00
    0    0    2    252.89      0.00
    7    0    2      9.64      0.00
   -2    1    2     -3.14      0.00
    1    1    2    -42.24      0.00
    7    1    2      3.85      0.00
   -2    2    2      8.22      0.00
    7    2    2      6.51      0.00
   -1    3    2    -22.99      0.00
    7    3    2      4.79      0.00
   -2    4    2     13.33      0.00
   -1    4    2      2.86      0.00
    2    4    2     -0.93      0.00
   -1    5    2    -23.78      0.00
    1    5    2     -1.27      0.00
    7    5    2     -1.32      0.00
   -3    6    2      0.75      0.00
   -1    6    2      9.91      0.00
    7    6    2     -4.99      0.00
   -7    7    2      8.19      0.00
   -1    7    2     -0.79      0.00
    7    7    2     -3.39      0.00
   -7    8    2      5.22      0.00
    7    8    2      2.32      0.00
   -7    9    2      1.71      0.00
    7    9    2     -1.06      0.00
   -7   10    2     -2.99      0.00
   -1   10    2      1.50      0.00
    7   10    2      4.08      0.00
   -7   11    2     -1.14      0.00
   -2   11    2      1.40      0.00
    7   11    2      0.76      0.00
   -7   12    2     -1.53      0.00
   -4   12    2     -2.88      0.00
    1   12    2      3.81      0.00
    7   12    2      0.95      0.00
   -7   13    2     -1.21      0.00
    7   13    2      0.49      0.00
   -7   14    2      1.97      0.00
   -3   14    2      2.14      0.00
   -1   14    2     -4.52      0.00
    1   14    2      1.25      0.00
    7   14    2     -0.65      0.00
   -7   15    2     -0.95      0.00
    7   15    2     -1.23      0.00
   -7   16    2      1.14      0.00
    7   16    2      1.05      0.00
   -7   17    2      0.05      0.00
    7   17    2      0.24      0.00
    1   18    2      4.15      0.00
   -6   19    2     -0.84      0.00
    6   19    2     -3.69      0.00
   -6   20    2      3.82      0.00
    6   20    2      2.28      0.00
   -6   21    2      1.13      0.00
    6   21    2     -0.47      0.00
   -6   22    2     -4.23      0.00
    6   22    2      1.59      0.00
   -6   23    2     -0.81      0.00
    6   23    2      2.55      0.00
   -6   24    2     -1.91      0.00
    6   24    2     -0.14      0.00
   -5   25    2     -2.46      0.00
    5   25    2     -1.73      0.00
   -5   26    2      3.07      0.00
    5   26    2      0.73      0.00
   -5   27    2     -1.28      0.00
    5   27    2      1.87      0.00
   -5   28    2      0.18      0.00
    5   28    2     -1.16      0.00
   -5   29    2      1.40      0.00
    5   29    2      2.40      0.00
   -4   30    2      4.07      0.00
    4   30    2     -0.40      0.00
   -4   31    2     -4.13      0.00
    4   31    2     -0.37      0.00
   -4   32    2     -1.96      0.00
   -3   32    2      3.35      0.00
    3   32    2      3.45      0.00
    4   32    2     -0.19      0.00
   -4   33    2      2.19      0.00
   -3   33    2     -2.66      0.00
    3   33    2      0.33      0.00
    4   33    2      2.63      0.00
   -3   34    2      6.16      0.00
   -2   34    2     -0.78      0.00
    2   34    2     -0.58      0.00
    3   34    2      1.42      0.00
   -3   35    2      1.41      0.00
   -2   35    2      2.79      0.00
   -1   35    2     -4.09      0.00
    0   35    2      0.54      0.00
    1   35    2      3.18      0.00
    2   35    2      3.65      0.00
    3   35    2      1.68      0.00
   -2    1    3      8.55      0.00
   -1    1    3     -6.23      0.00
    0    1    3    -88.31      0.00
    6    1    3     -7.68      0.00
    7    1    3     -7.10      0.00
   -2    2    3      5.08      0.00
    7    2    3     -2.05      0.00
   -2    3    3    -15.00      0.00
   -1    3    3      8.49      0.00
   -1    4    3     17.86      0.00
    1    4    3    -12.91      0.00
   -3    5    3      1.76      0.00
   -2    5    3     -1.93      0.00
   -1    5    3     -5.60      0.00
    1    5    3     11.91      0.00
    2    5    3      2.18      0.00
    7    5    3      8.42      0.00
   -7    6    3     -3.89      0.00
   -2    6    3     -2.34      0.00
   -1    6    3      6.30      0.00
    1    6    3     17.63      0.00
    7    6    3      1.99      0.00
   -7    7    3     -3.48      0.00
   -3    7    3     -2.63      0.00
   -2    7    3      5.09      0.00
   -1    7    3    -12.34      0.00
    7    7    3      0.65      0.00
   -7    8    3     -2.82      0.00
   -4    8    3      0.55      0.00
   -2    8    3      5.95      0.00
   -1    8    3     -0.16      0.00
    7    8    3      3.22      0.00
   -7    9    3     -1.88      0.00
   -1    9    3      1.57      0.00
    7    9    3     -5.38      0.00
   -7   10    3     -0.33      0.00
   -2   10    3      0.67      0.00
    7   10    3     -0.08      0.00
   -7   11    3      0.11      0.00
    7   11    3     -2.48      0.00
   -7   12    3     -0.32      0.00
    7   12    3     -2.53      0.00
   -7   13    3     -1.41      0.00
    7   13    3     -0.54      0.00
   -7   14    3      1.80      0.00
    1   14    3      1.66      0.00
    7   14    3      0.43      0.00
   -7   15    3     -0.22      0.00
   -3   15    3     -3.14      0.00
    7   15    3     -0.20      0.00
   -7   16    3      1.15      0.00
    7   16    3      1.43      0.00
    1   17    3     -3.69      0.00
    2   17    3      4.48      0.00
   -6   19    3     -2.14      0.00
    1   19    3     -2.44      0.00
    6   19    3     -0.19      0.00
   -6   20    3     -1.82      0.00
    6   20    3      5.19      0.00
   -6   21    3     -2.10      0.00
    6   21    3     -0.49      0.00
   -6   22    3     -2.01      0.00
    6   22    3     -0.43      0.00
   -6   23    3      2.38      0.00
    6   23    3      0.07      0.00
   -6   24    3     -0.13      0.00
    6   24    3     -3.35      0.00
   -5   25    3     -1.11      0.00
    5   25    3      1.99      0.00
   -5   26    3      2.03      0.00
    5   26    3     -0.24      0.00
   -5   27    3     -0.78      0.00
    5   27    3      0.75      0.00
   -5   28    3     -1.63      0.00
    5   28    3     -1.54      0.00
   -5   29    3      0.94      0.00
   -4   29    3     -6.72      0.00
    4   29    3      0.40      0.00
    5   29    3      1.44      0.00
   -4   30    3      4.11      0.00
    4   30    3      5.74      0.00
   -4   31    3     -0.57      0.00
    4   31    3     -0.62      0.00
   -4   32    3      0.10      0.00
   -3   32    3      4.29      0.00
    3   32    3     -2.43      0.00
    4   32    3     -3.26      0.00
   -4   33    3      3.25      0.00
   -3   33    3     -4.23      0.00
    3   33    3     -2.23      0.00
    4   33    3      0.63      0.00
   -3   34    3      0.26      0.00
   -2   34    3     -2.53      0.00
    0   34    3     -1.89      0.00
    1   34    3     -1.61      0.00
    2   34    3     -5.99      0.00
    3   34    3      0.17      0.00
   -3   35    3     -1.38      0.00
   -2   35    3      1.82      0.00
   -1   35    3     -1.30      0.00
    0   35    3     -1.17      0.00
    1   35    3      2.23      0.00
    2   35    3      1.76      0.00
    3   35    3      1.72      0.00
   -1    0    4     -0.67      0.00
    1    0    4     -2.02      0.00
    6    0    4     13.87      0.00
    7    0    4      3.70      0.00
   -1    1    4      6.71      0.00
    7    1    4     -1.69      0.00
   -3    2    4     -0.45      0.00
   -2    2    4      3.11      0.00
   -1    2    4    -12.50      0.00
    1    2    4     -9.76      0.00
    7    2    4      4.68      0.00
   -7    3    4      4.69      0.00
   -2    3    4      0.29      0.00
   -1    3    4     -3.14      0.00
    7    3    4      1.03      0.00
   -7    4    4      1.74      0.00
   -2    4    4      6.90      0.00
    7    4    4     -4.51      0.00
   -7    5    4      4.40      0.00
   -2    5    4      6.59      0.00
   -1    5    4    -10.11      0.00
    7    5    4      1.24      0.00
   -7    6    4      1.34      0.00
   -1    6    4     17.16      0.00
    1    6    4     -5.41      0.00
    7    6    4     -3.51      0.00
   -7    7    4      1.58      0.00
   -1    7    4      0.33      0.00
    7    7    4     -3.11      0.00
   -7    8    4      0.91      0.00
   -2    8    4     -6.18      0.00
    7    8    4      4.87      0.00
   -7    9    4     -1.20      0.00
    7    9    4     -1.50      0.00
   -7   10    4      0.94      0.00
    7   10    4      0.63      0.00
   -7   11    4      0.20      0.00
    7   11    4      0.94      0.00
   -7   12    4      3.01      0.00
    7   12    4      0.84      0.00
   -7   13    4      1.89      0.00
    7   13    4      1.73      0.00
   -7   14    4     -0.82      0.00
    7   14    4      1.55      0.00
   -7   15    4     -1.82      0.00
    7   15    4     -0.84      0.00
   -7   16    4     -1.02      0.00
   -2   16    4      1.93      0.00
   -1   16    4      2.38      0.00
    2   16    4      2.68      0.00
    7   16    4     -0.48      0.00
   -6   19    4     -7.54      0.00
    6   19    4     -4.13      0.00
   -6   20    4      2.17      0.00
    6   20    4     -0.72      0.00
   -6   21    4      3.27      0.00
    6   21    4     -2.73      0.00
   -6   22    4      1.80      0.00
    6   22    4     -1.96      0.00
   -6   23    4      2.03      0.00
    6   23    4      1.34      0.00
   -6   24    4     -1.16      0.00
    6   24    4     -0.06      0.00
   -5   25    4     -3.45      0.00
    5   25    4      0.83      0.00
   -5   26    4     -0.49      0.00
    5   26    4     -0.48      0.00
   -5   27    4      0.79      0.00
    5   27    4     -0.01      0.00
   -5   28    4     -0.43      0.00
    5   28    4     -0.53      0.00
   -5   29    4      1.38      0.00
   -4   29    4     -0.97      0.00
    4   29    4     -7.03      0.00
    5   29    4      0.15      0.00
   -4   30    4      6.72      0.00
    4   30    4      0.88      0.00
   -4   31    4     -0.68      0.00
    4   31    4     -0.70      0.00
   -4   32    4     -2.87      0.00
   -3   32    4      4.08      0.00
    3   32    4      2.00      0.00
    4   32    4      0.82      0.00
   -3   33    4     -2.96      0.00
    3   33    4      0.36      0.00
   -3   34    4      1.63      0.00
   -2   34    4     -3.74      0.00
   -1   34    4      2.47      0.00
    0   34    4      3.01      0.00
    1   34    4     -0.97      0.00
    2   34    4     -0.54      0.00
    3   34    4     -0.15      0.00
   -3   35    4      0.60      0.00
   -2   35    4      0.64      0.00
   -1   35    4     -3.09      0.00
    0   35    4      3.74      0.00
    1   35    4      0.72      0.00
    2   35    4      6.48      0.00
    3   35    4     -1.27      0.00
   -7    1    5     -0.26      0.00
   -3    1    5      5.42      0.00
   -2    1    5     -3.22      0.00
   -1    1    5     12.02      0.00
    7    1    5     -1.95      0.00
   -7    2    5     -3.32      0.00
   -2    2    5      1.95      0.00
   -1    2    5     -2.66      0.00
    1    2    5      0.64      0.00
    7    2    5      2.24      0.00
   -7    3    5      0.20      0.00
   -3    3    5     -0.45      0.00
   -2    3    5      0.46      0.00
   -1    3    5     13.46      0.00
    7    3    5      0.45      0.00
   -7    4    5     -4.35      0.00
   -2    4    5     -4.43      0.00
   -1    4    5      9.34      0.00
    7    4    5     -1.87      0.00
   -7    5    5     -2.45      0.00
   -2    5    5     -0.44      0.00
    7    5    5      3.72      0.00
   -7    6    5     -4.59      0.00
    7    6    5      1.59      0.00
   -7    7    5     -2.08      0.00
   -2    7    5      4.64      0.00
   -1    7    5     -8.70      0.00
    1    7    5      3.19      0.00
    7    7    5     -4.48      0.00
   -7    8    5      1.08      0.00
   -2    8    5      3.30      0.00
    2    8    5      2.38      0.00
    7    8    5      0.71      0.00
   -7    9    5      1.46      0.00
   -4    9    5     -3.74      0.00
    2    9    5      2.26      0.00
    7    9    5     -0.29      0.00
   -7   10    5      3.69      0.00
   -2   10    5     -3.79      0.00
    7   10    5      0.81      0.00
   -7   11    5     -1.67      0.00
   -2   11    5      0.62      0.00
    7   11    5      2.82      0.00
   -7   12    5     -2.29      0.00
    7   12    5      0.88      0.00
   -7   13    5      0.35      0.00
   -3   13    5      0.89      0.00
    7   13    5     -1.50      0.00
   -7   14    5     -2.83      0.00
    7   14    5     -1.46      0.00
   -7   15    5      2.70      0.00
   -1   15    5     -0.78      0.00
    7   15    5     -0.65      0.00
   -2   17    5     -6.54      0.00
   -6   18    5      9.43      0.00
    6   18    5      2.08      0.00
   -6   19    5      1.34      0.00
   -2   19    5     -1.60      0.00
    1   19    5      0.11      0.00
    6   19    5      1.51      0.00
   -6   20    5      4.37      0.00
    6   20    5      0.12      0.00
   -6   21    5     -2.52      0.00
    6   21    5      1.46      0.00
   -6   22    5     -3.38      0.00
    6   22    5      1.12      0.00
   -6   23    5     -0.49      0.00
    6   23    5      1.05      0.00
   -5   24    5      1.50      0.00
    5   24    5     -0.57      0.00
   -5   25    5      0.85      0.00
    5   25    5      2.39      0.00
   -5   26    5      1.40      0.00
    5   26    5      0.22      0.00
   -5   27    5      0.54      0.00
    5   27    5     -1.51      0.00
   -5   28    5     -1.26      0.00
    5   28    5     -0.01      0.00
   -4   29    5     -6.74      0.00
    4   29    5     -1.66      0.00
   -4   30    5     -1.01      0.00
    4   30    5      5.59      0.00
   -4   31    5     -2.31      0.00
    4   31    5     -0.75      0.00
   -4   32    5     -0.47      0.00
   -3   32    5      3.38      0.00
    3   32    5     -3.75      0.00
    4   32    5     -1.06      0.00
   -3   33    5     -3.83      0.00
   -2   33    5      2.50      0.00
    2   33    5     -1.55      0.00
    3   33    5     -1.65      0.00
   -3   34    5      1.18      0.00
   -2   34    5     -0.82      0.00
   -1   34    5      5.80      0.00
    0   34    5      4.13      0.00
    1   34    5     -1.54      0.00
    2   34    5     -5.68      0.00
    3   34    5      1.43      0.00
   -2   35    5      1.88      0.00
   -1   35    5     -1.05      0.00
    0   35    5     -0.72      0.00
    1   35    5     -1.02      0.00
    2   35    5     -1.67      0.00
   -7    0    6      2.74      0.00
   -3    0    6    -10.55      0.00
   -2    0    6      9.96      0.00
    1    0    6     -4.84      0.00
    6    0    6     12.27      0.00
    7    0    6     -1.57      0.00
   -7    1    6      2.22      0.00
    7    1    6     -2.40      0.00
   -7    2    6     -0.50      0.00
   -4    2    6     -1.78      0.00
   -3    2    6     -1.65      0.00
   -2    2    6     -1.33      0.00
   -1    2    6     -9.21      0.00
    1    2    6     -6.32      0.00
    7    2    6      0.35      0.00
   -7    3    6      1.41      0.00
    7    3    6      0.31      0.00
   -7    4    6     -0.86      0.00
   -2    4    6     -3.50      0.00
    2    4    6      5.66      0.00
    5    4    6      1.63      0.00
    7    4    6     -1.95      0.00
   -7    5    6      3.82      0.00
    7    5    6     -0.94      0.00
   -7    6    6      5.33      0.00
   -2    6    6     -0.60      0.00
   -1    6    6      1.38      0.00
    1    6    6     -4.02      0.00
    2    6    6      5.49      0.00
    7    6    6      1.71      0.00
   -7    7    6      3.88      0.00
   -2    7    6     -2.01      0.00
   -1    7    6      0.16      0.00
    2    7    6     -0.53      0.00
    7    7    6     -1.08      0.00
   -7    8    6      0.13      0.00
    7    8    6      2.04      0.00
   -7    9    6     -3.50      0.00
    7    9    6      1.54      0.00
   -7   10    6     -2.04      0.00
    7   10    6     -4.15      0.00
   -7   11    6     -1.84      0.00
   -1   11    6      4.34      0.00
    7   11    6     -3.54      0.00
   -7   12    6     -1.47      0.00
   -3   12    6      2.59      0.00
   -1   12    6     -0.76      0.00
    7   12    6     -1.13      0.00
   -7   13    6      4.17      0.00
    7   13    6     -0.16      0.00
   -7   14    6     -3.24      0.00
   -1   14    6     -2.88      0.00
    7   14    6      0.32      0.00
   -2   16    6      5.21      0.00
    2   16    6      1.40      0.00
   -6   17    6     -0.40      0.00
    6   17    6     -4.26      0.00
   -6   18    6     -0.09      0.00
   -2   18    6      3.80      0.00
    6   18    6     -4.93      0.00
   -6   19    6     -8.36      0.00
    6   19    6      1.29      0.00
   -6   20    6     -0.55      0.00
   -4   20    6     -1.30      0.00
   -2   20    6     -2.93      0.00
    6   20    6     -0.93      0.00
   -6   21    6     -0.84      0.00
    6   21    6      1.24      0.00
   -6   22    6      1.66      0.00
    6   22    6      0.73      0.00
   -6   23    6      1.43      0.00
    6   23    6     -1.44      0.00
   -5   24    6      2.14      0.00
    5   24    6     -6.12      0.00
   -5   25    6     -0.76      0.00
    5   25    6     -1.74      0.00
   -5   26    6     -0.13      0.00
    5   26    6      1.56      0.00
   -5   27    6     -0.72      0.00
    5   27    6      0.02      0.00
   -5   28    6      0.21      0.00
   -4   28    6      1.61      0.00
    4   28    6      3.07      0.00
    5   28    6      1.64      0.00
   -4   29    6      0.01      0.00
    4   29    6     -4.36      0.00
   -4   30    6      3.59      0.00
    4   30    6      1.63      0.00
   -4   31    6      1.76      0.00
   -3   31    6     -4.22      0.00
    3   31    6      6.83      0.00
    4   31    6     -2.14      0.00
   -4   32    6      0.09      0.00
   -3   32    6      3.63      0.00
    3   32    6      0.69      0.00
    4   32    6     -0.56      0.00
   -3   33    6     -1.81      0.00
   -2   33    6      0.84      0.00
    1   33    6      5.64      0.00
    2   33    6      1.97      0.00
    3   33    6      1.56      0.00
   -3   34    6      1.42      0.00
   -2   34    6     -0.90      0.00
   -1   34    6     -0.42      0.00
    0   34    6     -4.48      0.00
    1   34    6      4.47      0.00
    2   34    6      0.85      0.00
    3   34    6      0.96      0.00
   -2   35    6      0.36      0.00
   -1   35    6     -3.35      0.00
    0   35    6     -3.24      0.00
    1   35    6      0.22      0.00
    2   35    6      0.94      0.00
   -7    1    7     -2.53      0.00
   -3    1    7      6.31      0.00
   -2    1    7     -5.58      0.00
    1    1    7     -0.60      0.00
    7    1    7      2.52      0.00
   -7    2    7     -2.32      0.00
   -3    2    7      1.77      0.00
    7    2    7      2.40      0.00
   -7    3    7      2.13      0.00
   -4    3    7      1.12      0.00
   -2    3    7      5.02      0.00
   -1    3    7      6.07      0.00
    1    3    7     -2.37      0.00
    7    3    7     -0.85      0.00
   -7    4    7      0.80      0.00
    7    4    7     -0.82      0.00
   -7    5    7     -2.15      0.00
   -4    5    7     -2.31      0.00
   -1    5    7      5.07      0.00
    1    5    7      2.51      0.00
    2    5    7     -4.77      0.00
    7    5    7      0.51      0.00
   -7    6    7     -4.23      0.00
    7    6    7      2.76      0.00
   -7    7    7     -4.35      0.00
    2    7    7     -1.58      0.00
    7    7    7     -0.26      0.00
   -7    8    7     -1.53      0.00
    7    8    7     -1.52      0.00
   -7    9    7      3.02      0.00
    7    9    7      2.79      0.00
   -7   10    7      2.62      0.00
    7   10    7      1.15      0.00
   -7   11    7      2.13      0.00
   -2   11    7      0.39      0.00
    2   11    7      1.17      0.00
    7   11    7      1.92      0.00
   -7   12    7     -1.20      0.00
    7   12    7      2.78      0.00
   -7   13    7      3.25      0.00
   -1   13    7      3.33      0.00
    3   13    7     -0.31      0.00
    7   13    7      0.25      0.00
   -6   16    7     -7.00      0.00
    6   16    7      3.28      0.00
   -6   17    7      0.13      0.00
    6   17    7      4.01      0.00
   -6   18    7      2.34      0.00
    6   18    7      2.33      0.00
   -6   19    7      1.00      0.00
   -4   19    7      2.29      0.00
   -2   19    7      1.92      0.00
    6   19    7      5.11      0.00
   -6   20    7      4.36      0.00
    6   20    7     -1.83      0.00
   -6   21    7     -0.47      0.00
    6   21    7     -2.18      0.00
   -6   22    7     -0.07      0.00
    6   22    7      0.01      0.00
   -5   23    7     -3.15      0.00
    5   23    7      6.32      0.00
   -5   24    7     -1.66      0.00
    5   24    7      3.54      0.00
   -5   25    7     -3.50      0.00
    5   25    7      2.23      0.00
   -5   26    7      1.61      0.00
    5   26    7      2.32      0.00
   -5   27    7     -0.41      0.00
    5   27    7     -2.08      0.00
   -4   28    7     -0.51      0.00
    4   28    7     -0.15      0.00
   -4   29    7      0.06      0.00
    4   29    7     -3.38      0.00
   -4   30    7     -0.31      0.00
    4   30    7      1.81      0.00
   -4   31    7     -0.44      0.00
   -3   31    7      0.10      0.00
    3   31    7      2.29      0.00
    4   31    7     -0.50      0.00
   -3   32    7      2.84      0.00
    2   32    7     -2.72      0.00
    3   32    7     -5.38      0.00
   -3   33    7     -1.76      0.00
   -2   33    7      2.26      0.00
   -1   33    7      0.35      0.00
    0   33    7      5.18      0.00
    1   33    7     -3.90      0.00
    2   33    7     -4.87      0.00
    3   33    7     -1.51      0.00
   -3   34    7     -1.01      0.00
   -2   34    7     -2.31      0.00
   -1   34    7      3.32      0.00
    0   34    7      8.93      0.00
    1   34    7     -5.74      0.00
    2   34    7      0.82      0.00
    3   34    7     -0.30      0.00
   -2   35    7      0.25      0.00
   -1   35    7      1.74      0.00
    0   35    7      1.74      0.00
    1   35    7     -4.25      0.00
    2   35    7      1.23      0.00
   -7    0    8      1.75      0.00
   -3    0    8     -5.38      0.00
   -2    0    8      5.76      0.00
    6    0    8     12.12      0.00
    7    0    8     -3.94      0.00
   -7    1    8      2.56      0.00
   -2    1    8      2.61      0.00
    7    1    8     -4.30      0.00
   -7    2    8      1.11      0.00
   -3    2    8     -1.36      0.00
    3    2    8     -0.85      0.00
    7    2    8     -0.19      0.00
   -7    3    8      0.04      0.00
    7    3    8     -0.23      0.00
   -7    4    8     -0.70      0.00
   -4    4    8      0.01      0.00
   -1    4    8     -4.17      0.00
    1    4    8      2.01      0.00
    7    4    8      0.64      0.00
   -7    5    8     -0.26      0.00
    1    5    8     -0.68      0.00
    7    5    8      0.31      0.00
   -7    6    8      3.43      0.00
   -3    6    8     -0.39      0.00
    1    6    8     -3.54      0.00
    2    6    8      0.64      0.00
    7    6    8     -2.17      0.00
   -7    7    8      3.48      0.00
   -3    7    8     -0.73      0.00
    7    7    8     -2.01      0.00
   -7    8    8     -1.00      0.00
    7    8    8     -3.08      0.00
   -7    9    8     -0.54      0.00
    7    9    8      0.61      0.00
   -7   10    8     -2.83      0.00
   -3   10    8      2.28      0.00
    7   10    8     -1.74      0.00
   -7   11    8     -0.29      0.00
    7   11    8     -2.55      0.00
   -7   12    8     -0.13      0.00
   -3   12    8      2.29      0.00
    6   12    8      0.87      0.00
    7   12    8      0.56      0.00
   -6   15    8      8.79      0.00
    6   15    8      1.00      0.00
   -6   16    8      0.24      0.00
    6   16    8      1.70      0.00
   -6   17    8      4.51      0.00
    6   17    8     -2.51      0.00
   -6   18    8     -1.38      0.00
    6   18    8     -4.96      0.00
   -6   19    8     -1.69      0.00
    6   19    8     -1.42      0.00
   -6   20    8     -0.73      0.00
   -2   20    8     -2.69      0.00
    1   20    8      1.41      0.00
    6   20    8     -1.05      0.00
   -6   21    8     -1.73      0.00
    6   21    8      0.03      0.00
   -5   22    8      0.30      0.00
    5   22    8     -1.79      0.00
   -5   23    8      1.33      0.00
    5   23    8     -0.78      0.00
   -5   24    8      5.64      0.00
    5   24    8     -4.38      0.00
   -5   25    8     -0.67      0.00
    5   25    8     -5.73      0.00
   -5   26    8      2.47      0.00
    5   26    8     -0.01      0.00
   -5   27    8     -0.50      0.00
   -4   27    8      2.79      0.00
    4   27    8      1.69      0.00
    5   27    8      0.40      0.00
   -4   28    8      0.98      0.00
    4   28    8      2.12      0.00
   -4   29    8     -0.35      0.00
    4   29    8      0.32      0.00
   -4   30    8     -2.07      0.00
   -3   30    8     -0.78      0.00
    3   30    8     -4.41      0.00
    4   30    8      2.37      0.00
   -3   31    8     -2.12      0.00
    2   31    8      3.27      0.00
    3   31    8      5.68      0.00
   -3   32    8     -1.56      0.00
   -2   32    8     -6.34      0.00
    1   32    8     -1.63      0.00
    2   32    8     11.76      0.00
    3   32    8     -1.67      0.00
   -3   33    8      1.07      0.00
   -2   33    8      1.09      0.00
   -1   33    8     -0.96      0.00
    0   33    8     -0.83      0.00
    1   33    8      7.11      0.00
    2   33    8      3.06      0.00
    3   33    8      1.51      0.00
   -2   34    8     -2.09      0.00
   -1   34    8     -2.49      0.00
    0   34    8     -3.31      0.00
    1   34    8      5.37      0.00
    2   34    8     -0.31      0.00
   -2   35    8      2.24      0.00
   -1   35    8      0.12      0.00
    0   35    8     -6.18      0.00
    1   35    8      2.55      0.00
    2   35    8     -2.25      0.00
   -7    1    9     -0.21      0.00
   -3    1    9      2.86      0.00
    1    1    9     -2.86      0.00
    6    1    9     -1.47      0.00
    7    1    9      1.63      0.00
   -7    2    9     -1.78      0.00
    7    2    9      4.65      0.00
   -7    3    9     -1.65      0.00
    7    3    9      0.32      0.00
   -7    4    9      0.75      0.00
    7    4    9     -3.00      0.00
   -7    5    9     -0.58      0.00
   -2    5    9     -1.82      0.00
    7    5    9      1.42      0.00
   -7    6    9     -1.00      0.00
   -3    6    9     -2.15      0.00
    7    6    9      1.33      0.00
   -7    7    9     -0.64      0.00
    1    7    9     -3.09      0.00
    7    7    9      3.22      0.00
   -7    8    9     -0.92      0.00
    7    8    9      1.35      0.00
   -7    9    9      3.04      0.00
   -3    9    9      2.54      0.00
    1    9    9     -1.04      0.00
    7    9    9      1.93      0.00
   -7   10    9      1.30      0.00
    6   10    9      4.93      0.00
    7   10    9      0.72      0.00
   -3   11    9     -2.31      0.00
    6   11    9     -1.04      0.00
    6   12    9     -2.73      0.00
    6   13    9     -0.11      0.00
   -6   14    9     -2.89      0.00
    6   14    9     -3.30      0.00
   -6   15    9     -5.19      0.00
    6   15    9     -1.27      0.00
   -6   16    9     -6.60      0.00
    6   16    9      0.17      0.00
   -6   17    9      1.74      0.00
    6   17    9     -1.15      0.00
   -6   18    9     -2.31      0.00
    6   18    9      1.89      0.00
   -6   19    9      2.39      0.00
    6   19    9      1.60      0.00
   -6   20    9      1.22      0.00
    6   20    9      1.12      0.00
   -5   21    9      2.93      0.00
    5   21    9     -1.24      0.00
   -5   22    9     -2.31      0.00
    5   22    9     -3.88      0.00
   -5   23    9     -3.34      0.00
    5   23    9      1.69      0.00
   -5   24    9      1.95      0.00
    5   24    9      4.42      0.00
   -5   25    9     -4.08      0.00
    5   25    9      1.37      0.00
   -5   26    9      0.11      0.00
   -4   26    9     -0.47      0.00
    4   26    9     -0.21      0.00
    5   26    9      2.99      0.00
   -4   27    9     -3.08      0.00
    4   27    9      0.30      0.00
   -4   28    9     -1.18      0.00
    4   28    9     -1.42      0.00
   -4   29    9      0.90      0.00
   -3   29    9     -0.30      0.00
    3   29    9      4.55      0.00
    4   29    9     -1.31      0.00
   -4   30    9      1.18      0.00
   -3   30    9      0.26      0.00
    3   30    9     -3.15      0.00
    4   30    9      0.09      0.00
   -3   31    9      4.12      0.00
   -2   31    9      7.83      0.00
    1   31    9      3.63      0.00
    2   31    9     -9.47      0.00
    3   31    9      3.80      0.00
   -3   32    9      0.17      0.00
   -2   32    9     -0.70      0.00
   -1   32    9      0.01      0.00
    0   32    9     -6.84      0.00
    1   32    9     -4.12      0.00
    2   32    9     -6.46      0.00
    3   32    9     -1.11      0.00
   -2   33    9      5.03      0.00
   -1   33    9      4.66      0.00
    0   33    9      0.67      0.00
    1   33    9     -1.37      0.00
    2   33    9     -6.01      0.00
   -2   34    9     -0.95      0.00
   -1   34    9     -1.99      0.00
    0   34    9      0.27      0.00
    1   34    9     -5.23      0.00
    2   34    9      0.14      0.00
   -1   35    9      2.14      0.00
    0   35    9      0.97      0.00
    1   35    9     -1.57      0.00
   -7    0   10     -2.39      0.00
   -4    0   10      1.45      0.00
   -3    0   10     -2.95      0.00
   -2    0   10     -0.35      0.00
    3    0   10      1.49      0.00
    6    0   10     -5.64      0.00
    7    0   10     -0.01      0.00
   -7    1   10     -0.04      0.00
    6    1   10      3.43      0.00
    7    1   10     -3.38      0.00
   -7    2   10      1.61      0.00
   -4    2   10      1.25      0.00
    1    2   10     -0.08      0.00
    7    2   10     -1.91      0.00
   -7    3   10      0.51      0.00
    7    3   10      0.14      0.00
   -7    4   10      1.24      0.00
    7    4   10     -1.57      0.00
   -7    5   10     -0.34      0.00
   -3    5   10      2.13      0.00
    7    5   10      1.81      0.00
   -7    6   10      0.10      0.00
    7    6   10     -1.31      0.00
   -7    7   10      0.27      0.00
    7    7   10     -2.38      0.00
   -7    8   10     -0.86      0.00
   -3    8   10     -2.30      0.00
    1    9   10     -0.15      0.00
    6    9   10     -4.39      0.00
   -3   10   10     -1.12      0.00
    5   10   10      2.01      0.00
    6   10   10     -3.35      0.00
    6   11   10     -1.02      0.00
   -6   12   10      7.77      0.00
   -1   12   10     -0.65      0.00
    1   12   10     -0.34      0.00
    6   12   10      2.60      0.00
   -6   13   10     -3.36      0.00
    6   13   10      4.13      0.00
   -6   14   10      9.20      0.00
    6   14   10     -1.03      0.00
   -6   15   10      2.77      0.00
    6   15   10      0.76      0.00
   -6   16   10      1.41      0.00
    6   16   10      1.71      0.00
   -6   17   10      3.62      0.00
    6   17   10     -1.49      0.00
   -6   18   10     -3.92      0.00
    1   18   10      0.18      0.00
    6   18   10      1.83      0.00
   -6   19   10      0.12      0.00
    6   19   10     -0.21      0.00
   -5   20   10     -5.52      0.00
    5   20   10     -0.42      0.00
   -5   21   10      5.91      0.00
    5   21   10      3.55      0.00
   -5   22   10      1.15      0.00
    5   22   10      0.35      0.00
   -5   23   10     -2.00      0.00
    5   23   10      0.36      0.00
   -5   24   10      2.52      0.00
    5   24   10      0.25      0.00
   -5   25   10     -1.16      0.00
   -4   25   10     -0.62      0.00
    4   25   10     -1.47      0.00
    5   25   10     -3.93      0.00
   -4   26   10      0.86      0.00
    4   26   10     -2.43      0.00
   -4   27   10     -0.91      0.00
    4   27   10      1.48      0.00
   -4   28   10      2.20      0.00
   -3   28   10      0.00      0.00
    3   28   10     -3.99      0.00
    4   28   10      1.08      0.00
   -4   29   10      0.14      0.00
   -3   29   10     -2.41      0.00
    3   29   10     -0.71      0.00
    4   29   10     -0.28      0.00
   -3   30   10     -2.69      0.00
    2   30   10     -0.64      0.00
    3   30   10     -2.78      0.00
   -3   31   10      0.00      0.00
   -2   31   10     -0.86      0.00
    0   31   10      1.33      0.00
    1   31   10      3.52      0.00
    2   31   10      0.16      0.00
    3   31   10      2.20      0.00
   -3   32   10     -2.55      0.00
   -2   32   10     -5.04      0.00
   -1   32   10     -3.91      0.00
    0   32   10     -1.61      0.00
    1   32   10     -1.14      0.00
    2   32   10      7.64      0.00
    3   32   10     -1.30      0.00
   -2   33   10      1.69      0.00
   -1   33   10      2.46      0.00
    0   33   10      6.45      0.00
    1   33   10      4.45      0.00
    2   33   10      3.67      0.00
   -2   34   10     -1.43      0.00
   -1   34   10     -4.74      0.00
    0   34   10     -0.77      0.00
    1   34   10      1.22      0.00
    2   34   10      1.18      0.00
   -1   35   10      1.60      0.00
    0   35   10      1.14      0.00
    1   35   10      1.69      0.00
   -7    1   11      0.94      0.00
   -2    1   11      0.60      0.00
    6    1   11      8.39      0.00
    7    1   11      0.77      0.00
   -7    2   11      1.14      0.00
    7    2   11      0.97      0.00
   -7    3   11     -1.88      0.00
   -4    3   11      0.23      0.00
    7    3   11      2.39      0.00
   -3    7   11     -0.11      0.00
    1    7   11     -4.52      0.00
    3    7   11     -0.03      0.00
    6    7   11     -3.27      0.00
    6    8   11      1.03      0.00
   -6    9   11      4.23      0.00
    6    9   11      4.96      0.00
   -6   10   11    -10.03      0.00
    6   10   11      4.23      0.00
   -6   11   11     -8.98      0.00
   -1   11   11     -0.16      0.00
    1   11   11     -0.67      0.00
    6   11   11     -0.39      0.00
   -6   12   11      0.43      0.00
    6   12   11     -1.24      0.00
   -6   13   11    -11.04      0.00
    6   13   11     -1.52      0.00
   -6   14   11      2.10      0.00
    6   14   11     -2.42      0.00
   -6   15   11     -4.98      0.00
    6   15   11      1.13      0.00
   -6   16   11     -1.94      0.00
    6   16   11      1.66      0.00
   -6   17   11      2.64      0.00
    6   17   11     -1.89      0.00
   -6   18   11     -0.81      0.00
    6   18   11      0.29      0.00
   -5   19   11      5.37      0.00
    5   19   11      1.68      0.00
   -5   20   11     -5.03      0.00
    5   20   11     -0.09      0.00
   -5   21   11      0.92      0.00
    5   21   11      1.23      0.00
   -5   22   11     -2.63      0.00
    5   22   11     -1.90      0.00
   -5   23   11     -2.06      0.00
    5   23   11     -0.78      0.00
   -5   24   11      2.04      0.00
   -4   24   11     -1.84      0.00
    4   24   11      1.26      0.00
    5   24   11      1.75      0.00
   -4   25   11      0.85      0.00
    4   25   11      4.22      0.00
   -4   26   11      2.18      0.00
    4   26   11      0.62      0.00
   -4   27   11     -2.16      0.00
    4   27   11     -1.14      0.00
   -4   28   11      0.62      0.00
   -3   28   11      5.24      0.00
    3   28   11      5.29      0.00
    4   28   11     -1.27      0.00
   -3   29   11     -0.10      0.00
    2   29   11      6.12      0.00
    3   29   11      4.86      0.00
   -3   30   11      0.56      0.00
   -2   30   11      3.38      0.00
    0   30   11      4.07      0.00
    1   30   11     -2.69      0.00
    2   30   11      8.19      0.00
    3   30   11     -2.97      0.00
   -3   31   11      1.41      0.00
   -2   31   11      3.82      0.00
   -1   31   11     -0.37      0.00
    0   31   11      1.60      0.00
    1   31   11      0.61      0.00
    2   31   11     -1.55      0.00
    3   31   11     -1.28      0.00
   -2   32   11     -0.93      0.00
   -1   32   11     -4.34      0.00
    0   32   11     -3.62      0.00
    1   32   11     -3.63      0.00
    2   32   11     -1.57      0.00
   -2   33   11      0.66      0.00
   -1   33   11      4.52      0.00
    0   33   11      3.18      0.00
    1   33   11     -0.83      0.00
    2   33   11     -3.72      0.00
   -1   34   11     -0.69      0.00
    0   34   11     -5.16      0.00
    1   34   11     -3.05      0.00
   -3    0   12     -5.25      0.00
   -2    0   12      0.30      0.00
    2    0   12      2.06      0.00
    6    0   12    -10.45      0.00
   -3    2   12     -3.13      0.00
    6    4   12      1.12      0.00
   -6    5   12     -0.10      0.00
    6    5   12      1.64      0.00
   -6    6   12     -3.78      0.00
   -3    6   12     -0.93      0.00
    6    6   12      4.20      0.00
   -6    7   12      2.76      0.00
    6    7   12     -0.18      0.00
   -6    8   12     -9.43      0.00
   -3    8   12      0.68      0.00
    6    8   12      0.61      0.00
   -6    9   12      6.13      0.00
    6    9   12     -2.34      0.00
   -6   10   12      3.00      0.00
    6   10   12     -3.75      0.00
   -6   11   12      3.91      0.00
    6   11   12     -3.33      0.00
   -6   12   12     10.46      0.00
    6   12   12      2.01      0.00
   -6   13   12     -1.54      0.00
    6   13   12      1.63      0.00
   -6   14   12      5.80      0.00
    6   14   12     -0.75      0.00
   -6   15   12     -0.51      0.00
    5   15   12     -5.01      0.00
    6   15   12      0.02      0.00
   -6   16   12     -0.19      0.00
    6   16   12      0.27      0.00
   -5   17   12     -8.36      0.00
    5   17   12     -2.19      0.00
   -5   18   12     -1.45      0.00
    5   18   12     -1.46      0.00
   -5   19   12     -0.94      0.00
    5   19   12     -0.36      0.00
   -5   20   12     -4.34      0.00
    5   20   12     -0.84      0.00
   -5   21   12      4.43      0.00
    5   21   12      0.29      0.00
   -5   22   12      2.24      0.00
    5   22   12     -1.37      0.00
   -5   23   12      0.77      0.00
   -4   23   12      0.25      0.00
    4   23   12     -0.85      0.00
    5   23   12     -0.03      0.00
   -4   24   12     -2.21      0.00
    4   24   12     -4.85      0.00
   -4   25   12      0.68      0.00
    4   25   12     -2.30      0.00
   -4   26   12      0.95      0.00
   -3   26   12     -0.80      0.00
    3   26   12      0.88      0.00
    4   26   12     -1.00      0.00
   -4   27   12     -1.90      0.00
   -3   27   12     -2.46      0.00
    3   27   12     -5.59      0.00
    4   27   12      0.27      0.00
   -3   28   12      2.64      0.00
    2   28   12     -3.82      0.00
    3   28   12     -8.42      0.00
   -3   29   12     -3.64      0.00
   -2   29   12     -0.06      0.00
    0   29   12     -2.31      0.00
    1   29   12      1.08      0.00
    2   29   12     -7.74      0.00
    3   29   12     -1.16      0.00
   -3   30   12      0.64      0.00
   -2   30   12      2.06      0.00
   -1   30   12      0.26      0.00
    0   30   12      4.40      0.00
    1   30   12      0.12      0.00
    2   30   12     -3.74      0.00
    3   30   12     -0.50      0.00
   -2   31   12     -2.83      0.00
   -1   31   12      3.30      0.00
    0   31   12     -0.01      0.00
    1   31   12      1.58      0.00
    2   31   12     -4.42      0.00
   -2   32   12     -0.84      0.00
   -1   32   12     -0.76      0.00
    0   32   12     -3.66      0.00
    1   32   12      0.18      0.00
    2   32   12      1.57      0.00
   -1   33   12      0.87      0.00
    0   33   12      4.17      0.00
    1   33   12      2.81      0.00
   -6    1   13      8.15      0.00
   -3    1   13      4.71      0.00
    6    1   13      5.31      0.00
   -6    2   13      0.62      0.00
    6    2   13     -2.93      0.00
   -6    3   13     -1.65      0.00
    6    3   13     -0.01      0.00
   -6    4   13      1.87      0.00
    6    4   13     -4.98      0.00
   -6    5   13     -2.60      0.00
    6    5   13     -1.60      0.00
   -6    6   13     -4.02      0.00
    6    6   13      1.25      0.00
   -6    7   13      5.13      0.00
    6    7   13     -5.23      0.00
   -6    8   13     -4.22      0.00
    6    8   13     -0.16      0.00
   -6    9   13      3.42      0.00
    6    9   13      1.78      0.00
   -6   10   13     -2.54      0.00
    6   10   13      2.78      0.00
   -6   11   13     -5.59      0.00
    6   11   13      0.87      0.00
   -6   12   13     -1.28      0.00
    5   12   13      0.80      0.00
    6   12   13      1.44      0.00
   -6   13   13     -3.93      0.00
    6   13   13     -0.21      0.00
   -6   14   13      0.68      0.00
    6   14   13     -0.35      0.00
    2   15   13      2.59      0.00
    5   15   13     -2.68      0.00
   -5   16   13      6.92      0.00
    5   16   13      3.77      0.00
   -5   17   13     -1.74      0.00
    5   17   13      3.70      0.00
   -5   18   13      5.55      0.00
    5   18   13      1.04      0.00
   -5   19   13      4.57      0.00
    5   19   13     -1.38      0.00
   -5   20   13     -1.10      0.00
    5   20   13     -0.35      0.00
   -5   21   13      0.92      0.00
    5   21   13      1.19      0.00
   -5   22   13     -2.09      0.00
   -4   22   13      2.08      0.00
    4   22   13      1.80      0.00
   -4   23   13      2.99      0.00
    4   23   13      5.45      0.00
   -4   24   13     -1.05      0.00
    4   24   13      1.92      0.00
   -4   25   13      0.98      0.00
   -3   25   13      3.75      0.00
    3   25   13     -0.13      0.00
    4   25   13      2.33      0.00
   -4   26   13      0.57      0.00
   -3   26   13     -1.29      0.00
    2   26   13     -4.21      0.00
    3   26   13      0.76      0.00
    4   26   13      2.30      0.00
   -3   27   13     -3.70      0.00
    2   27   13     -0.45      0.00
    3   27   13      5.34      0.00
   -3   28   13      3.84      0.00
   -2   28   13     -3.88      0.00
    1   28   13     -1.18      0.00
    2   28   13      0.73      0.00
    3   28   13      4.16      0.00
   -3   29   13     -1.87      0.00
   -2   29   13     -6.96      0.00
   -1   29   13     -0.21      0.00
    0   29   13     -6.59      0.00
    1   29   13     -2.69      0.00
    2   29   13      3.17      0.00
    3   29   13      5.98      0.00
   -2   30   13      2.58      0.00
   -1   30   13     -0.60      0.00
    0   30   13     -0.82      0.00
    1   30   13     -0.13      0.00
    2   30   13      6.21      0.00
   -2   31   13     -2.31      0.00
   -1   31   13     -0.83      0.00
    0   31   13     -1.07      0.00
    1   31   13      0.40      0.00
    2   31   13      2.38      0.00
   -1   32   13      0.87      0.00
    0   32   13     -2.03      0.00
    1   32   13     -0.37      0.00
    0   33   13      1.72      0.00
   -6    0   14    -10.65      0.00
    2    0   14      2.42      0.00
    6    0   14     -5.86      0.00
   -6    1   14     -1.49      0.00
    6    1   14      1.77      0.00
   -6    2   14     -2.88      0.00
    6    2   14     -1.01      0.00
   -6    3   14     -4.16      0.00
    6    3   14      6.10      0.00
   -6    4   14      3.46      0.00
    6    4   14      0.86      0.00
   -6    5   14      1.04      0.00
    6    5   14     -0.25      0.00
   -6    6   14      0.39      0.00
    6    6   14      3.44      0.00
   -6    7   14      5.89      0.00
    6    7   14     -0.91      0.00
   -6    8   14     -2.54      0.00
    4    8   14      3.71      0.00
    6    8   14      2.38      0.00
   -6    9   14      1.47      0.00
    5    9   14      7.15      0.00
    6    9   14      0.57      0.00
   -6   10   14      0.85      0.00
    5   10   14     -1.49      0.00
    6   10   14     -1.66      0.00
   -6   11   14      1.28      0.00
    5   11   14      1.18      0.00
    6   11   14     -2.00      0.00
   -6   12   14      1.11      0.00
    1   12   14      0.00      0.00
    5   12   14      6.00      0.00
    6   12   14      0.23      0.00
   -5   13   14      3.98      0.00
    5   13   14     -2.20      0.00
   -5   14   14     -1.61      0.00
    5   14   14      6.86      0.00
   -5   15   14     -0.49      0.00
    5   15   14     -0.87      0.00
   -5   16   14      0.96      0.00
    5   16   14     -3.36      0.00
   -5   17   14     -5.67      0.00
    5   17   14     -3.04      0.00
   -5   18   14     -1.31      0.00
    5   18   14     -0.91      0.00
   -5   19   14     -0.96      0.00
    5   19   14     -0.05      0.00
   -5   20   14     -3.03      0.00
   -4   20   14     -0.10      0.00
    4   20   14     -3.16      0.00
    5   20   14      1.39      0.00
   -4   21   14     -0.18      0.00
    4   21   14     -3.98      0.00
   -4   22   14      0.01      0.00
    4   22   14     -5.22      0.00
   -4   23   14     -0.16      0.00
    4   23   14     -1.14      0.00
   -4   24   14     -1.97      0.00
   -3   24   14     -3.74      0.00
    3   24   14     -4.38      0.00
    4   24   14     -2.51      0.00
   -4   25   14      0.39      0.00
   -3   25   14      1.47      0.00
    3   25   14      2.17      0.00
    4   25   14     -2.62      0.00
   -3   26   14      1.16      0.00
   -2   26   14    -12.52      0.00
    1   26   14    -10.45      0.00
    2   26   14      1.23      0.00
    3   26   14     -0.06      0.00
   -3   27   14     -1.22      0.00
   -2   27   14      5.77      0.00
    1   27   14     -1.48      0.00
    2   27   14      3.83      0.00
    3   27   14     -1.23      0.00
   -3   28   14      3.20      0.00
   -2   28   14      0.62      0.00
   -1   28   14      3.72      0.00
    0   28   14      1.17      0.00
    1   28   14      2.55      0.00
    2   28   14      0.00      0.00
    3   28   14     -5.07      0.00
   -2   29   14     -1.45      0.00
   -1   29   14      3.87      0.00
    0   29   14      1.23      0.00
    1   29   14      1.13      0.00
    2   29   14     -2.39      0.00
   -2   30   14      6.72      0.00
   -1   30   14      2.59      0.00
    0   30   14      3.40      0.00
    1   30   14      2.12      0.00
    2   30   14     -3.60      0.00
   -1   31   14     -2.82      0.00
    0   31   14      1.23      0.00
    1   31   14     -0.87      0.00
    0   32   14      0.95      0.00
   -6    1   15      5.18      0.00
    6    1   15      3.29      0.00
   -6    2   15      3.29      0.00
    6    2   15     -2.52      0.00
   -6    3   15     -1.00      0.00
    2    3   15      3.28      0.00
    6    3   15     -1.90      0.00
   -6    4   15      2.26      0.00
    6    4   15     -2.18      0.00
   -6    5   15     -0.66      0.00
    6    5   15     -1.15      0.00
   -6    6   15     -3.42      0.00
    5    6   15     -2.51      0.00
    6    6   15      1.76      0.00
   -6    7   15      0.20      0.00
    5    7   15     -1.07      0.00
    6    7   15     -2.16      0.00
   -6    8   15     -2.87      0.00
    5    8   15     -1.56      0.00
    6    8   15     -1.50      0.00
    5    9   15      3.77      0.00
   -5   10   15      4.11      0.00
    5   10   15     -2.77      0.00
   -5   11   15     -4.15      0.00
    1   11   15      0.46      0.00
    5   11   15     -3.89      0.00
   -5   12   15      1.73      0.00
    5   12   15      2.96      0.00
   -5   13   15      1.60      0.00
    5   13   15     -6.22      0.00
   -5   14   15     -3.54      0.00
    5   14   15     -0.88      0.00
   -5   15   15      1.61      0.00
    5   15   15     -0.75      0.00
   -5   16   15      2.09      0.00
    5   16   15      0.77      0.00
   -5   17   15     -0.23      0.00
    5   17   15      3.00      0.00
   -5   18   15      1.00      0.00
   -4   18   15     -0.96      0.00
    4   18   15      0.98      0.00
    5   18   15      1.80      0.00
   -4   19   15      3.31      0.00
    4   19   15     -0.63      0.00
   -4   20   15     -1.17      0.00
    4   20   15      6.84      0.00
   -4   21   15     -1.46      0.00
    4   21   15      3.09      0.00
   -4   22   15     -1.01      0.00
   -3   22   15      0.01      0.00
    3   22   15     -2.06      0.00
    4   22   15      1.30      0.00
   -4   23   15     -0.63      0.00
   -3   23   15      1.17      0.00
    3   23   15      6.99      0.00
    4   23   15      2.84      0.00
   -3   24   15     -1.44      0.00
    3   24   15     -1.01      0.00
   -3   25   15      1.50      0.00
   -2   25   15      9.36      0.00
    1   25   15      8.58      0.00
    2   25   15      1.22      0.00
    3   25   15      0.25      0.00
   -3   26   15      0.18      0.00
   -2   26   15     -9.58      0.00
   -1   26   15     -3.09      0.00
    0   26   15     -5.71      0.00
    1   26   15      3.49      0.00
    2   26   15     -1.41      0.00
    3   26   15     -0.71      0.00
   -3   27   15     -2.01      0.00
   -2   27   15      6.79      0.00
   -1   27   15     -2.90      0.00
    0   27   15      2.53      0.00
    1   27   15      3.97      0.00
    2   27   15     -0.53      0.00
    3   27   15     -0.02      0.00
   -2   28   15      0.67      0.00
   -1   28   15     -6.55      0.00
    0   28   15     -1.73      0.00
    1   28   15      1.03      0.00
    2   28   15     -1.72      0.00
   -2   29   15     -4.09      0.00
   -1   29   15     -4.83      0.00
    0   29   15     -0.54      0.00
    1   29   15     -3.54      0.00
    2   29   15      1.91      0.00
   -1   30   15      0.15      0.00
    0   30   15     -0.23      0.00
    1   30   15     -0.71      0.00
   -6    0   16     -2.71      0.00
   -5    0   16     -6.59      0.00
    6    0   16     -2.62      0.00
   -6    1   16     -0.82      0.00
   -5    1   16      0.04      0.00
    2    1   16      5.45      0.00
    6    1   16     -1.20      0.00
   -6    2   16     -0.80      0.00
   -5    2   16     -3.06      0.00
    2    2   16     -1.85      0.00
    5    2   16     -4.18      0.00
    5    3   16      7.69      0.00
   -5    4   16      6.64      0.00
    5    4   16      4.06      0.00
   -5    5   16      0.20      0.00
    5    5   16      6.67      0.00
   -5    6   16      7.33      0.00
    5    6   16     10.54      0.00
   -5    7   16      2.66      0.00
    5    7   16      0.94      0.00
   -5    8   16      2.95      0.00
    5    8   16     -0.14      0.00
   -5    9   16     -2.57      0.00
    5    9   16      1.40      0.00
   -5   10   16      5.02      0.00
    1   10   16     -2.27      0.00
    5   10   16      1.44      0.00
   -5   11   16     -4.71      0.00
    5   11   16     -1.42      0.00
   -5   12   16      0.18      0.00
    5   12   16      4.30      0.00
   -5   13   16      1.26      0.00
    5   13   16     -0.93      0.00
   -5   14   16     -3.20      0.00
    5   14   16      1.44      0.00
   -5   15   16      1.54      0.00
    4   15   16      5.98      0.00
    5   15   16      1.63      0.00
   -5   16   16     -0.37      0.00
   -4   16   16     -1.21      0.00
    4   16   16      1.55      0.00
    5   16   16     -1.07      0.00
   -4   17   16      0.10      0.00
    4   17   16      3.30      0.00
   -4   18   16     -4.14      0.00
    4   18   16      4.23      0.00
   -4   19   16      0.61      0.00
    4   19   16     -6.16      0.00
   -4   20   16     -1.34      0.00
    3   20   16     -4.55      0.00
    4   20   16     -0.06      0.00
   -4   21   16      1.53      0.00
   -3   21   16     -0.36      0.00
    3   21   16      1.62      0.00
    4   21   16     -3.05      0.00
   -4   22   16      2.31      0.00
   -3   22   16      0.89      0.00
    3   22   16     -5.51      0.00
    4   22   16     -2.72      0.00
   -3   23   16      1.46      0.00
   -2   23   16      4.18      0.00
    2   23   16     -2.70      0.00
    3   23   16     -0.69      0.00
   -3   24   16     -1.95      0.00
   -2   24   16     -4.25      0.00
    1   24   16      1.47      0.00
    2   24   16     -0.07      0.00
    3   24   16     -2.27      0.00
   -3   25   16      0.78      0.00
   -2   25   16      9.93      0.00
   -1   25   16      1.44      0.00
    0   25   16      6.22      0.00
    1   25   16      2.19      0.00
    2   25   16     -3.20      0.00
    3   25   16     -1.18      0.00
   -2   26   16     -6.88      0.00
   -1   26   16      0.91      0.00
    0   26   16     -1.27      0.00
    1   26   16     -5.51      0.00
    2   26   16     -1.74      0.00
   -2   27   16      2.96      0.00
   -1   27   16      3.65      0.00
    0   27   16      4.43      0.00
    1   27   16     -4.29      0.00
    2   27   16      2.35      0.00
   -2   28   16      0.05      0.00
   -1   28   16      2.53      0.00
    0   28   16     -1.38      0.00
    1   28   16     -0.52      0.00
    2   28   16     -0.15      0.00
   -1   29   16      2.31      0.00
    0   29   16     -0.31      0.00
    1   29   16      0.55      0.00
   -5    1   17      5.38      0.00
    5    1   17      3.93      0.00
   -5    2   17      3.70      0.00
    5    2   17     -7.53      0.00
   -5    3   17     -1.40      0.00
    5    3   17      2.00      0.00
   -5    4   17      3.80      0.00
    5    4   17     -6.68      0.00
   -5    5   17     -6.23      0.00
    5    5   17     -9.26      0.00
   -5    6   17     -0.91      0.00
    5    6   17     -2.25      0.00
   -5    7   17     -5.62      0.00
    5    7   17     -7.25      0.00
   -5    8   17      0.14      0.00
   -4    8   17     -2.87      0.00
    5    8   17     -0.75      0.00
   -5    9   17     -4.56      0.00
    4    9   17     -1.30      0.00
    5    9   17     -0.62      0.00
   -5   10   17      2.09      0.00
    4   10   17      0.70      0.00
    5   10   17     -0.08      0.00
   -5   11   17     -2.43      0.00
    4   11   17     -0.63      0.00
    5   11   17     -3.04      0.00
   -5   12   17      1.21      0.00
    4   12   17     -6.01      0.00
    5   12   17      1.17      0.00
   -5   13   17      2.36      0.00
   -4   13   17     -6.28      0.00
    4   13   17     -1.01      0.00
    5   13   17     -0.66      0.00
   -4   14   17      4.01      0.00
    4   14   17     -5.62      0.00
   -4   15   17     -2.93      0.00
    4   15   17      0.34      0.00
   -4   16   17      1.66      0.00
    4   16   17     -3.17      0.00
   -4   17   17      2.16      0.00
    3   17   17      2.16      0.00
    4   17   17     -3.96      0.00
   -4   18   17     -0.48      0.00
    3   18   17     -7.30      0.00
    4   18   17      1.91      0.00
   -4   19   17      2.60      0.00
   -3   19   17     -4.92      0.00
    3   19   17      4.69      0.00
    4   19   17     -2.57      0.00
   -4   20   17     -0.50      0.00
   -3   20   17      0.05      0.00
    3   20   17     -2.63      0.00
    4   20   17      3.42      0.00
   -3   21   17     -4.10      0.00
    3   21   17      1.96      0.00
   -3   22   17     -1.12      0.00
   -2   22   17     -2.77      0.00
    2   22   17     -5.48      0.00
    3   22   17      1.17      0.00
   -3   23   17      1.94      0.00
   -2   23   17     -0.07      0.00
   -1   23   17     -3.97      0.00
    0   23   17     -0.77      0.00
    1   23   17     -2.55      0.00
    2   23   17     -4.73      0.00
    3   23   17      1.55      0.00
   -3   24   17     -1.44      0.00
   -2   24   17     -6.99      0.00
   -1   24   17     -1.88      0.00
    0   24   17     -1.30      0.00
    1   24   17     -3.77      0.00
    2   24   17      1.79      0.00
    3   24   17      1.92      0.00
   -2   25   17      4.51      0.00
   -1   25   17     -2.94      0.00
    0   25   17     -0.35      0.00
    1   25   17     -1.10      0.00
    2   25   17      1.34      0.00
   -2   26   17     -3.90      0.00
   -1   26   17     -2.52      0.00
    0   26   17     -5.07      0.00
    1   26   17      0.93      0.00
    2   26   17     -0.46      0.00
   -1   27   17     -0.03      0.00
    0   27   17      0.09      0.00
    1   27   17      3.13      0.00
    0   28   17     -0.31      0.00
   -5    0   18     -4.42      0.00
    5    0   18     -4.53      0.00
   -5    1   18     -2.23      0.00
    5    1   18      2.75      0.00
   -5    2   18     -0.80      0.00
    5    2   18     -3.00      0.00
   -5    3   18     -3.50      0.00
    5    3   18      4.81      0.00
   -5    4   18      2.54      0.00
    4    4   18      0.92      0.00
    5    4   18      3.21      0.00
   -5    5   18     -1.60      0.00
    4    5   18     -5.87      0.00
    5    5   18      2.38      0.00
   -5    6   18      3.97      0.00
    4    6   18      2.69      0.00
    5    6   18      7.98      0.00
   -5    7   18     -0.83      0.00
    4    7   18      6.63      0.00
    5    7   18      0.75      0.00
   -5    8   18      2.99      0.00
    4    8   18      1.43      0.00
    5    8   18      2.44      0.00
   -5    9   18      0.29      0.00
   -4    9   18     -1.35      0.00
    4    9   18      2.45      0.00
    5    9   18      0.90      0.00
   -5   10   18      2.52      0.00
   -4   10   18     -2.21      0.00
    4   10   18     -0.41      0.00
    5   10   18      1.19      0.00
   -4   11   18     -2.84      0.00
    4   11   18     -1.26      0.00
   -4   12   18      0.72      0.00
    4   12   18      2.05      0.00
   -4   13   18     -1.87      0.00
    3   13   18     -3.31      0.00
    4   13   18      4.34      0.00
   -4   14   18      5.15      0.00
    3   14   18      4.11      0.00
    4   14   18      0.61      0.00
   -4   15   18     -1.98      0.00
   -3   15   18     -1.38      0.00
    3   15   18     -6.28      0.00
    4   15   18      2.24      0.00
   -4   16   18      0.40      0.00
   -3   16   18      0.72      0.00
    3   16   18      0.05      0.00
    4   16   18      1.32      0.00
   -4   17   18      0.22      0.00
   -3   17   18     -0.71      0.00
    3   17   18      4.11      0.00
    4   17   18      0.27      0.00
   -4   18   18     -1.20      0.00
   -3   18   18      3.01      0.00
    3   18   18     -5.21      0.00
    4   18   18      2.54      0.00
   -3   19   18     -0.79      0.00
    2   19   18      1.61      0.00
    3   19   18      3.51      0.00
   -3   20   18      5.71      0.00
   -2   20   18     -2.15      0.00
    2   20   18     -6.67      0.00
    3   20   18     -0.17      0.00
   -3   21   18      1.59      0.00
   -2   21   18     -0.36      0.00
   -1   21   18     -1.99      0.00
    0   21   18      0.07      0.00
    1   21   18     -0.06      0.00
    2   21   18      4.27      0.00
    3   21   18     -0.80      0.00
   -3   22   18     -0.03      0.00
   -2   22   18      0.98      0.00
   -1   22   18      4.39      0.00
    0   22   18     -0.68      0.00
    1   22   18     -0.77      0.00
    2   22   18      2.63      0.00
    3   22   18      0.32      0.00
   -2   23   18      5.18      0.00
   -1   23   18     -0.55      0.00
    0   23   18     -2.37      0.00
    1   23   18     -2.99      0.00
    2   23   18      2.54      0.00
   -2   24   18     -1.47      0.00
   -1   24   18      3.34      0.00
    0   24   18      1.37      0.00
    1   24   18      2.90      0.00
    2   24   18      3.02      0.00
   -1   25   18      2.46      0.00
    0   25   18      1.77      0.00
    1   25   18      2.21      0.00
   -1   26   18      0.92      0.00
    0   26   18      1.12      0.00
    1   26   18     -0.37      0.00
   -5    1   19      0.96      0.00
   -4    1   19      0.82      0.00
    4    1   19     -2.57      0.00
    5    1   19      1.22      0.00
   -5    2   19      1.98      0.00
   -4    2   19     -1.86      0.00
    4    2   19    -14.76      0.00
    5    2   19     -0.49      0.00
   -5    3   19     -0.75      0.00
   -4    3   19      1.40      0.00
    4    3   19     -5.44      0.00
    5    3   19      0.37      0.00
   -5    4   19      0.40      0.00
   -4    4   19     -1.36      0.00
    4    4   19      2.62      0.00
    5    4   19     -1.80      0.00
   -4    5   19      1.77      0.00
    4    5   19     -0.64      0.00
   -4    6   19     -2.97      0.00
    4    6   19      0.23      0.00
   -4    7   19     -1.00      0.00
    4    7   19      0.12      0.00
   -4    8   19      0.05      0.00
    4    8   19     -8.17      0.00
   -4    9   19     -2.26      0.00
    3    9   19      0.72      0.00
    4    9   19     -1.09      0.00
   -4   10   19      2.58      0.00
    3   10   19     -2.82      0.00
    4   10   19      2.16      0.00
   -4   11   19      1.91      0.00
    3   11   19      2.63      0.00
    4   11   19     -1.64      0.00
   -4   12   19      1.15      0.00
    3   12   19     -3.40      0.00
    4   12   19      0.58      0.00
   -4   13   19     -2.10      0.00
   -3   13   19      4.99      0.00
    3   13   19      0.51      0.00
    4   13   19     -1.17      0.00
   -4   14   19      1.26      0.00
   -3   14   19      2.72      0.00
    3   14   19      5.23      0.00
    4   14   19     -2.19      0.00
   -4   15   19     -1.73      0.00
   -3   15   19      2.59      0.00
    2   15   19      3.95      0.00
    3   15   19     -2.03      0.00
    4   15   19     -0.50      0.00
   -3   16   19      0.91      0.00
    2   16   19      2.00      0.00
    3   16   19      1.71      0.00
   -3   17   19     -1.95      0.00
   -2   17   19      0.05      0.00
    2   17   19     -3.77      0.00
    3   17   19      3.21      0.00
   -3   18   19      1.35      0.00
   -2   18   19      2.07      0.00
    2   18   19     -3.89      0.00
    3   18   19     -2.40      0.00
   -3   19   19     -3.17      0.00
   -2   19   19      2.22      0.00
   -1   19   19      0.41      0.00
    1   19   19      1.62      0.00
    2   19   19      2.12      0.00
    3   19   19      0.94      0.00
   -3   20   19     -0.64      0.00
   -2   20   19      2.27      0.00
   -1   20   19      1.72      0.00
    0   20   19     -3.97      0.00
    1   20   19     -9.41      0.00
    2   20   19     -2.17      0.00
    3   20   19      0.36      0.00
   -2   21   19      0.81      0.00
   -1   21   19     -3.28      0.00
    0   21   19      3.08      0.00
    1   21   19     -0.83      0.00
    2   21   19      3.18      0.00
   -2   22   19     -2.08      0.00
   -1   22   19      0.95      0.00
    0   22   19      1.22      0.00
    1   22   19      2.21      0.00
    2   22   19     -1.58      0.00
   -2   23   19     -0.15      0.00
   -1   23   19     -2.16      0.00
    0   23   19     -1.64      0.00
    1   23   19     -0.38      0.00
    2   23   19     -4.08      0.00
   -1   24   19     -0.47      0.00
    0   24   19      1.56      0.00
    1   24   19      0.71      0.00
    0   25   19     -1.29      0.00
   -4    0   20     -0.40      0.00
   -3    0   20     -1.61      0.00
    4    0   20     -2.98      0.00
   -4    1   20      0.89      0.00
   -3    1   20     -5.52      0.00
    4    1   20      7.89      0.00
   -4    2   20     -0.81      0.00
    4    2   20      4.50      0.00
   -4    3   20      0.38      0.00
    4    3   20      5.54      0.00
   -4    4   20     -1.88      0.00
    4    4   20      4.58      0.00
   -4    5   20      1.64      0.00
    4    5   20     -4.45      0.00
   -4    6   20     -1.17      0.00
    4    6   20     -2.36      0.00
   -4    7   20      0.93      0.00
    4    7   20      3.77      0.00
   -4    8   20      2.62      0.00
   -3    8   20     -0.86      0.00
    3    8   20     -3.56      0.00
    4    8   20      0.23      0.00
   -4    9   20     -1.73      0.00
   -3    9   20      1.80      0.00
    3    9   20     -1.41      0.00
    4    9   20      2.47      0.00
   -4   10   20      0.24      0.00
   -3   10   20      5.22      0.00
    3   10   20     -1.34      0.00
    4   10   20      2.46      0.00
   -4   11   20     -0.24      0.00
   -3   11   20      0.99      0.00
    3   11   20      3.40      0.00
    4   11   20     -2.15      0.00
   -4   12   20     -0.43      0.00
   -3   12   20      0.27      0.00
    2   12   20     -6.27      0.00
    3   12   20     -1.96      0.00
   -3   13   20     -1.50      0.00
    2   13   20     -4.45      0.00
    3   13   20      0.41      0.00
   -3   14   20     -5.23      0.00
   -2   14   20      4.73      0.00
    2   14   20     -5.96      0.00
    3   14   20      1.66      0.00
   -3   15   20     -1.83      0.00
   -2   15   20      3.15      0.00
    1   15   20     -2.65      0.00
    2   15   20     -7.62      0.00
    3   15   20     -3.80      0.00
   -3   16   20      0.50      0.00
   -2   16   20      1.00      0.00
   -1   16   20      3.04      0.00
    1   16   20     -1.31      0.00
    2   16   20     -1.07      0.00
    3   16   20     -0.32      0.00
   -3   17   20     -0.69      0.00
   -2   17   20     -0.45      0.00
   -1   17   20      0.53      0.00
    0   17   20     -7.26      0.00
    1   17   20      2.57      0.00
    2   17   20      0.63      0.00
    3   17   20      0.10      0.00
   -2   18   20     -1.89      0.00
   -1   18   20      1.07      0.00
    0   18   20     -2.97      0.00
    1   18   20     -4.84      0.00
    2   18   20      2.42      0.00
   -2   19   20     -1.67      0.00
   -1   19   20     -1.23      0.00
    0   19   20      2.24      0.00
    1   19   20      8.53      0.00
    2   19   20      4.35      0.00
   -2   20   20     -0.87      0.00
   -1   20   20      0.33      0.00
    0   20   20     -4.30      0.00
    1   20   20      0.09      0.00
    2   20   20     -1.78      0.00
   -1   21   20      0.06      0.00
    0   21   20      2.71      0.00
    1   21   20      3.66      0.00
   -1   22   20      1.30      0.00
    0   22   20      0.46      0.00
    1   22   20      0.62      0.00
    0   23   20     -2.17      0.00
   -4    1   21     -0.50      0.00
   -3    1   21     -1.10      0.00
    3    1   21      3.99      0.00
    4    1   21      1.31      0.00
   -4    2   21      0.25      0.00
   -3    2   21      7.93      0.00
    3    2   21     -4.07      0.00
    4    2   21     -3.83      0.00
   -4    3   21      1.05      0.00
   -3    3   21     -1.83      0.00
    3    3   21     -9.72      0.00
    4    3   21     -4.84      0.00
   -4    4   21     -0.10      0.00
   -3    4   21     -0.09      0.00
    3    4   21     -1.26      0.00
    4    4   21      0.73      0.00
   -4    5   21      1.76      0.00
   -3    5   21     -4.60      0.00
    3    5   21     -7.85      0.00
    4    5   21     -0.38      0.00
   -4    6   21     -1.01      0.00
   -3    6   21      2.07      0.00
    3    6   21      0.13      0.00
    4    6   21      1.65      0.00
   -3    7   21      1.11      0.00
    3    7   21      3.46      0.00
   -3    8   21      0.16      0.00
   -2    8   21      4.61      0.00
    3    8   21      2.34      0.00
   -3    9   21     -1.45      0.00
   -2    9   21     -2.52      0.00
    2    9   21      2.65      0.00
    3    9   21      1.53      0.00
   -3   10   21     -1.82      0.00
   -2   10   21      1.01      0.00
    2   10   21     -2.75      0.00
    3   10   21      1.08      0.00
   -3   11   21     -4.53      0.00
   -2   11   21      2.24      0.00
    2   11   21      5.18      0.00
    3   11   21      1.24      0.00
   -3   12   21     -0.45      0.00
   -2   12   21      0.00      0.00
    2   12   21     -0.02      0.00
    3   12   21     -2.02      0.00
   -3   13   21      2.86      0.00
   -2   13   21     -2.01      0.00
   -1   13   21     -0.75      0.00
    1   13   21      2.89      0.00
    2   13   21      4.91      0.00
    3   13   21     -0.64      0.00
   -3   14   21      1.40      0.00
   -2   14   21     -2.88      0.00
   -1   14   21     -4.50      0.00
    0   14   21     -0.79      0.00
    1   14   21      1.04      0.00
    2   14   21      7.00      0.00
    3   14   21      0.90      0.00
   -2   15   21     -2.44      0.00
   -1   15   21     -2.01      0.00
    0   15   21      1.57      0.00
    1   15   21     -0.77      0.00
    2   15   21      3.23      0.00
   -2   16   21     -1.83      0.00
   -1   16   21     -1.00      0.00
    0   16   21      5.20      0.00
    1   16   21     -1.33      0.00
    2   16   21      5.52      0.00
   -2   17   21      0.98      0.00
   -1   17   21     -2.71      0.00
    0   17   21      1.84      0.00
    1   17   21      2.19      0.00
    2   17   21     -0.06      0.00
   -2   18   21      1.15      0.00
   -1   18   21      0.40      0.00
    0   18   21      3.14      0.00
    1   18   21     -4.90      0.00
    2   18   21     -2.42      0.00
   -1   19   21     -0.15      0.00
    0   19   21      4.72      0.00
    1   19   21      1.53      0.00
   -1   20   21     -0.33      0.00
    0   20   21     -3.25      0.00
    1   20   21     -3.52      0.00
   -3    0   22      4.46      0.00
   -2    0   22      1.58      0.00
   -1    0   22      4.15      0.00
    1    0   22      0.40      0.00
    2    0   22     -0.48      0.00
    3    0   22     -5.83      0.00
   -3    1   22     -6.13      0.00
   -2    1   22      1.33      0.00
   -1    1   22     -2.07      0.00
    1    1   22     -2.76      0.00
    2    1   22      3.07      0.00
    3    1   22      1.59      0.00
   -3    2   22      0.95      0.00
   -2    2   22      2.66      0.00
   -1    2   22      0.21      0.00
    1    2   22      0.88      0.00
    2    2   22      3.05      0.00
    3    2   22      1.93      0.00
   -3    3   22     -4.34      0.00
   -2    3   22      5.85      0.00
   -1    3   22     -3.70      0.00
    2    3   22      3.43      0.00
    3    3   22      2.09      0.00
   -3    4   22      2.51      0.00
   -2    4   22     -4.80      0.00
   -1    4   22     -0.52      0.00
    2    4   22      1.04      0.00
    3    4   22      8.70      0.00
   -3    5   22      0.37      0.00
   -2    5   22      5.61      0.00
   -1    5   22      0.43      0.00
    2    5   22      3.17      0.00
    3    5   22      0.47      0.00
   -3    6   22      1.82      0.00
   -2    6   22      0.42      0.00
   -1    6   22     -1.50      0.00
    2    6   22     -2.17      0.00
    3    6   22      0.35      0.00
   -3    7   22     -0.58      0.00
   -2    7   22     -2.20      0.00
   -1    7   22      8.12      0.00
    1    7   22     -2.22      0.00
    2    7   22      1.18      0.00
    3    7   22     -1.63      0.00
   -3    8   22     -1.57      0.00
   -2    8   22      6.88      0.00
   -1    8   22     -0.87      0.00
    0    8   22     -2.62      0.00
    1    8   22      1.38      0.00
    2    8   22     -1.05      0.00
    3    8   22     -2.02      0.00
   -3    9   22      0.66      0.00
   -2    9   22     -1.02      0.00
   -1    9   22      6.16      0.00
    0    9   22      0.17      0.00
    1    9   22     -1.71      0.00
    2    9   22     -1.35      0.00
    3    9   22     -2.22      0.00
   -3   10   22      3.09      0.00
   -2   10   22     -0.98      0.00
   -1   10   22      0.40      0.00
    0   10   22      1.77      0.00
    1   10   22     -0.77      0.00
    2   10   22     -2.45      0.00
    3   10   22     -0.01      0.00
   -2   11   22      0.85      0.00
   -1   11   22      1.35      0.00
    0   11   22      1.08      0.00
    1   11   22      1.99      0.00
    2   11   22      0.26      0.00
   -2   12   22     -1.09      0.00
   -1   12   22     -0.11      0.00
    0   12   22      0.36      0.00
    1   12   22     -4.58      0.00
    2   12   22     -3.14      0.00
   -2   13   22      0.84      0.00
   -1   13   22      4.39      0.00
    0   13   22      1.43      0.00
    1   13   22      0.08      0.00
    2   13   22     -2.23      0.00
   -2   14   22      1.08      0.00
   -1   14   22      0.67      0.00
    0   14   22     -2.51      0.00
    1   14   22     -0.88      0.00
    2   14   22     -1.76      0.00
   -2   15   22      2.10      0.00
   -1   15   22      3.27      0.00
    0   15   22     -1.19      0.00
    1   15   22     -0.18      0.00
    2   15   22     -5.50      0.00
   -1   16   22      1.30      0.00
    0   16   22     -0.23      0.00
    1   16   22     -0.23      0.00
   -1   17   22     -0.22      0.00
    0   17   22     -3.52      0.00
    1   17   22      2.90      0.00
    0   18   22     -3.00      0.00
   -3    1   23     -3.47      0.00
   -2    1   23     -0.59      0.00
   -1    1   23     -3.64      0.00
    0    1   23     -0.22      0.00
    1    1   23     -0.86      0.00
    2    1   23     -0.20      0.00
    3    1   23      1.44      0.00
   -3    2   23      4.45      0.00
   -2    2   23     -2.57      0.00
   -1    2   23      2.10      0.00
    0    2   23     -2.21      0.00
    1    2   23      2.18      0.00
    2    2   23     -2.36      0.00
   -2    3   23      1.41      0.00
   -1    3   23      0.94      0.00
    0    3   23     -3.81      0.00
    1    3   23     -1.84      0.00
    2    3   23     -2.74      0.00
   -2    4   23     -4.85      0.00
   -1    4   23      1.98      0.00
    0    4   23      1.55      0.00
    1    4   23     -1.11      0.00
    2    4   23     -2.87      0.00
   -2    5   23      2.24      0.00
   -1    5   23      1.94      0.00
    0    5   23      2.35      0.00
    1    5   23     -3.05      0.00
    2    5   23      1.88      0.00
   -2    6   23     -0.11      0.00
   -1    6   23     -4.51      0.00
    0    6   23      0.42      0.00
    1    6   23     -0.28      0.00
    2    6   23     -2.81      0.00
   -2    7   23     -5.22      0.00
   -1    7   23      2.14      0.00
    0    7   23      3.20      0.00
    1    7   23      0.10      0.00
    2    7   23      0.97      0.00
   -2    8   23      0.12      0.00
   -1    8   23     -5.70      0.00
    0    8   23      0.15      0.00
    1    8   23      2.22      0.00
    2    8   23      1.28      0.00
   -2    9   23     -1.76      0.00
   -1    9   23     -0.78      0.00
    0    9   23     -0.16      0.00
    1    9   23      0.81      0.00
    2    9   23     -0.16      0.00
   -2   10   23     -1.89      0.00
   -1   10   23     -0.91      0.00
    0   10   23      0.46      0.00
    1   10   23     -1.01      0.00
    2   10   23      2.34      0.00
   -2   11   23      1.30      0.00
   -1   11   23     -0.57      0.00
    0   11   23     -0.67      0.00
    1   11   23      2.57      0.00
    2   11   23      1.47      0.00
   -1   12   23     -1.55      0.00
    0   12   23     -0.99      0.00
    1   12   23     -1.19      0.00
   -1   13   23      0.33      0.00
    0   13   23      2.63      0.00
    1   13   23      1.28      0.00
   -1   14   23     -4.20      0.00
    0   14   23      0.13      0.00
    1   14   23      0.62      0.00
    0    0    0      0.00      0.00
# SQUEEZE RESULTS (Version = 201118)
# Note: Data are Listed for all Voids in the P1 Unit Cell
# i.e. Centre of Gravity, Solvent Accessible Volume,
# Recovered number of Electrons in the Void and
# Details about the Squeezed Material
loop_
  _platon_squeeze_void_nr
  _platon_squeeze_void_average_x
  _platon_squeeze_void_average_y
  _platon_squeeze_void_average_z
  _platon_squeeze_void_volume
  _platon_squeeze_void_count_electrons
  _platon_squeeze_void_content
   1 -0.068  0.000  0.500       476       230 ' '
   2 -0.065  0.500  1.000       476       230 ' '
# Missing Reflections Below sin(th)/lambda = 0.25
loop_
  _platon_missing_refln_index_h
  _platon_missing_refln_index_k
  _platon_missing_refln_index_l
  _platon_missing_refln_theta
    2    3    1     7.194
   -1    4    1     4.498
   -1    5    1     4.949
   -1    6    1     5.450
   -2    7    1     8.414
   -1    7    1     5.989
   -2    9    1     9.280
    2    9    1     9.282
    1   13    1     9.653
   -2    0    2     7.131
   -1    0    2     4.010
    0    0    2     2.136
   -2    1    2     7.164
    1    1    2     4.074
   -2    2    2     7.263
   -1    3    2     4.510
   -2    4    2     7.647
   -1    4    2     4.864
    2    4    2     7.653
   -1    5    2     5.284
    1    5    2     5.288
   -1    6    2     5.756
   -1    7    2     6.269
   -1   10    2     7.974
    1   12    2     9.202
   -2    1    3     7.555
   -1    1    3     4.719
    0    1    3     3.278
   -2    2    3     7.649
   -2    3    3     7.803
   -1    3    3     5.105
   -1    4    3     5.420
    1    4    3     5.426
   -2    5    3     8.278
   -1    5    3     5.800
    1    5    3     5.806
    2    5    3     8.286
   -2    6    3     8.590
   -1    6    3     6.234
    1    6    3     6.239
   -2    7    3     8.945
   -1    7    3     6.711
   -2    8    3     9.338
   -1    8    3     7.224
   -1    9    3     7.764
   -2   10    3    10.222
   -1    0    4     5.460
    1    0    4     5.468
   -1    1    4     5.503
   -2    2    4     8.159
   -1    2    4     5.631
    1    2    4     5.639
   -2    3    4     8.304
   -1    3    4     5.838
   -2    4    4     8.503
   -2    5    4     8.752
   -1    5    4     6.456
   -1    6    4     6.849
    1    6    4     6.855
   -1    7    4     7.287
   -2    8    4     9.763
   -2    1    5     8.690
   -1    1    5     6.372
   -2    2    5     8.772
   -1    2    5     6.483
    1    2    5     6.492
   -2    3    5     8.908
   -1    3    5     6.664
   -2    4    5     9.094
   -1    4    5     6.909
   -2    5    5     9.328
   -2    7    5     9.927
   -1    7    5     7.967
    1    7    5     7.974
   -2    0    6     9.369
    1    0    6     7.274
   -2    2    6     9.470
   -1    2    6     7.395
    1    2    6     7.404
   -2    4    6     9.770
    2    4    6     9.784
   -1    6    6     8.364
    1    6    6     8.372
   -1    7    6     8.728
   -2    1    7    10.166
    1    1    7     8.271
   -1    3    7     8.490
    1    3    7     8.499
   -1    5    7     8.930
    1    5    7     8.938
   -1    4    8     9.634
    1    4    8     9.643
    1    5    8     9.865
    1    6    8    10.130
_platon_squeeze_void_probe_radius                  1.20
_platon_squeeze_details                            ?

TITL 1 in P2(1)/c
CELL    5.9994   29.6610   19.0680     90.00     90.09     90.00
SPGR P21/c
# Solvent Accessible Volume =       954
# Electrons Found in S.A.V. =       459
# Note: Atoms in Void are Labelled as Cxxx and Qxxx for all Others
C101 0.684 0.842 0.484 !       2.16 eA-3
C102 0.743 0.656 0.062 !       2.07 eA-3
C103 0.721 0.859 0.532 !       2.01 eA-3
C104 0.725 0.626 0.976 !       1.73 eA-3
C105 0.656 0.674 0.032 !       1.70 eA-3
C106 0.344 0.326 0.968 !       1.70 eA-3
C107 0.744 0.876 0.560 !       1.68 eA-3
C108 0.165 0.363 0.001 !       1.68 eA-3
C109 0.277 0.325 0.985 !       1.68 eA-3
C110 0.270 0.538 0.013 !       1.67 eA-3
C111 0.588 0.153 0.406 !       1.66 eA-3
C112 0.160 0.907 0.476 !       1.65 eA-3
C113 0.617 0.818 0.553 !       1.61 eA-3
C114 0.415 0.428 0.934 !       1.60 eA-3
C115 0.843 0.008 0.486 !       1.57 eA-3
Q116 0.787 0.698 0.041 !       1.57 eA-3
Q117 0.601 0.459 0.024 !       1.54 eA-3
C118 0.786 0.635 0.090 !       1.54 eA-3
C119 0.441 0.962 0.502 !       1.53 eA-3
C120 0.118 0.404 0.063 !       1.53 eA-3
C121 0.622 0.917 0.461 !       1.53 eA-3
C122 0.905 0.856 0.578 !       1.52 eA-3
C123 0.851 0.119 0.446 !       1.52 eA-3
C124 0.187 0.390 0.966 !       1.51 eA-3
C125 0.103 0.396 0.012 !       1.50 eA-3
C126 0.152 0.018 0.535 !       1.49 eA-3
C127 0.659 0.418 0.002 !       1.47 eA-3
C128 0.347 0.982 0.532 !       1.46 eA-3
C129 0.997 0.446 0.047 !       1.46 eA-3
Q130 0.531 0.046 0.313 !       1.46 eA-3
C131 0.032 0.128 0.472 !       1.45 eA-3
C132 0.880 0.953 0.501 !       1.45 eA-3
Q133 0.585 0.481 0.022 !       1.45 eA-3
C134 0.341 0.882 0.467 !       1.44 eA-3
C135 0.785 0.077 0.481 !       1.44 eA-3
C136 0.901 0.460 0.002 !       1.43 eA-3
C137 0.557 0.095 0.549 !       1.43 eA-3
C138 0.122 0.454 1.001 !       1.43 eA-3
C139 1.012 0.615 0.969 !       1.43 eA-3
C140 0.967 0.427 0.074 !       1.42 eA-3
C141 0.442 0.365 0.044 !       1.42 eA-3
C142 0.250 0.389-0.001 !       1.42 eA-3
C143 0.873 0.509 0.916 !       1.41 eA-3
C144 0.165 0.645 0.028 !       1.41 eA-3
C145 0.567 0.111 0.483 !       1.39 eA-3
C146 0.719 0.124 0.484 !       1.39 eA-3
C147 0.783 0.907 0.453 !       1.39 eA-3
C148 0.098 0.367 0.066 !       1.39 eA-3
C149 0.121 0.086 0.501 !       1.39 eA-3
C150 0.155 0.103 0.396 !       1.38 eA-3
C151 0.717 0.121 0.424 !       1.37 eA-3
C152 0.691 0.135 0.379 !       1.37 eA-3
C153 1.004 0.511 0.953 !       1.37 eA-3
C154 0.905 0.066 0.501 !       1.36 eA-3
C155 0.500 0.431 0.001 !       1.35 eA-3
C156 0.063 0.123 0.384 !       1.35 eA-3
C157 0.781 0.845 0.447 !       1.35 eA-3
C158 0.194 0.312-0.001 !       1.34 eA-3
C159 0.312 0.603 0.050 !       1.34 eA-3
C160 0.401 0.582 0.091 !       1.34 eA-3
C161 0.944 0.372 0.000 !       1.33 eA-3
Q162 0.839 0.121 0.547 !       1.33 eA-3
C163 0.251 0.843 0.563 !       1.32 eA-3
Q164 0.663 0.687 0.988 !       1.31 eA-3
C165 0.913 0.962 0.421 !       1.30 eA-3
C166 0.473 0.866 0.644 !       1.30 eA-3
Q167 0.381 0.680 0.108 !       1.30 eA-3
Q168 0.124 0.684 0.049 !       1.30 eA-3
C169 0.682 0.917 0.530 !       1.29 eA-3
C170 0.211 0.054 0.530 !       1.28 eA-3
C171 0.464 0.091 0.480 !       1.26 eA-3
C172 0.904 0.100 0.501 !       1.26 eA-3
C173 0.433 0.875 0.593 !       1.26 eA-3
Q174 0.967 0.451 0.115 !       1.26 eA-3
C175 0.604 0.610 0.052 !       1.26 eA-3
C176 0.410 0.478-0.005 !       1.26 eA-3
C177 0.124 0.011 0.470 !       1.26 eA-3
C178 0.876 0.989 0.530 !       1.26 eA-3
C179 0.562 0.537 0.986 !       1.25 eA-3
C180 0.324 0.044 0.456 !       1.25 eA-3
C181 0.498 0.600 0.062 !       1.25 eA-3
C182 0.936 0.120 0.389 !       1.24 eA-3
C183 0.538 0.842 0.511 !       1.23 eA-3
C184 1.008 0.033 0.453 !       1.23 eA-3
C185 0.471 0.939 0.563 !       1.22 eA-3
C186 0.752 0.481 0.014 !       1.22 eA-3
C187 0.778 0.155 0.396 !       1.22 eA-3
C188 0.435 0.922 0.466 !       1.22 eA-3
C189 0.617 0.864 0.595 !       1.21 eA-3
Q190 0.165 0.569 0.910 !       1.21 eA-3
C191 0.995 0.595 0.037 !       1.21 eA-3
C192 0.936 0.406 0.053 !       1.19 eA-3
C193 0.771 0.054 0.534 !       1.18 eA-3
C194 1.000 0.500 0.000 !       1.17 eA-3
C195 0.901 0.567 0.920 !       1.17 eA-3
C196 0.072 0.400 0.087 !       1.17 eA-3
C197 0.228 0.081 0.421 !       1.17 eA-3
C198 0.214 0.981 0.564 !       1.17 eA-3
Q199 0.741 0.970 0.403 !       1.16 eA-3
)
;
_shelx_fab_checksum              26547
loop_
_space_group_symop_operation_xyz
'x, y, z'
'-x, y+1/2, -z+1/2'
'-x, -y, -z'
'x, -y-1/2, z-1/2'
loop_
_atom_site_label
_atom_site_type_symbol
_atom_site_fract_x
_atom_site_fract_y
_atom_site_fract_z
_atom_site_U_iso_or_equiv
_atom_site_adp_type
_atom_site_occupancy
_atom_site_site_symmetry_order
_atom_site_calc_flag
_atom_site_refinement_flags_posn
_atom_site_refinement_flags_adp
_atom_site_refinement_flags_occupancy
Zn1 Zn 1.000000 0.500000 0.500000 0.0327(3) Uani 1 2 d S . P
Zn2 Zn 0.50583(12) 0.45101(2) 0.50392(4) 0.0376(2) Uani 1 1 d . . .
O1W O 0.6852(5) 0.50188(12) 0.54103(18) 0.0338(10) Uani 1 1 d . . .
O6 O 1.3659(8) 0.58616(15) 0.5668(2) 0.0556(14) Uani 1 1 d . . .
O4 O 1.6385(9) 0.91200(14) 0.9295(3) 0.0604(15) Uani 1 1 d . . .
O5 O 1.0787(7) 0.54091(16) 0.5881(2) 0.0615(15) Uani 1 1 d . . .
C14 C 1.1365(12) 0.6020(2) 0.6648(4) 0.0504(19) Uani 1 1 d . . .
O3 O 1.9715(8) 0.94185(14) 0.9362(2) 0.0627(15) Uani 1 1 d . . .
C8 C 2.1347(13) 0.8817(2) 0.8350(4) 0.055(2) Uani 1 1 d . . .
H8A H 2.226261 0.905721 0.847300 0.066 Uiso 1 1 calc R U .
C4 C 1.5829(16) 0.7532(2) 0.8291(4) 0.063(2) Uani 1 1 d . . .
C18 C 1.1946(13) 0.5738(2) 0.6013(4) 0.0419(19) Uani 1 1 d . . .
C1 C 1.4190(15) 0.7189(2) 0.8168(4) 0.074(2) Uani 1 1 d . . .
C6 C 1.7874(11) 0.8418(2) 0.8497(3) 0.0417(18) Uani 1 1 d . . .
H6A H 1.645195 0.839407 0.868677 0.050 Uiso 1 1 calc R U .
C5 C 1.8745(14) 0.8092(2) 0.8047(4) 0.057(2) Uani 1 1 d . U .
N1 N 1.7409(11) 0.7722(2) 0.7886(3) 0.0672(19) Uani 1 1 d . . .
H1A H 1.761755 0.760063 0.748130 0.081 Uiso 1 1 calc R U .
C11 C 1.8449(13) 0.9148(2) 0.9147(3) 0.0383(18) Uani 1 1 d . . .
C2 C 1.3309(19) 0.7211(3) 0.8880(5) 0.112(3) Uani 1 1 d . U .
C15 C 0.9425(14) 0.5952(3) 0.7021(4) 0.073(2) Uani 1 1 d . . .
H15A H 0.841283 0.573502 0.687101 0.087 Uiso 1 1 calc R U .
C7 C 1.9271(12) 0.8785(2) 0.8647(3) 0.0436(18) Uani 1 1 d . . .
C13 C 1.2788(11) 0.6359(2) 0.6848(4) 0.056(2) Uani 1 1 d . . .
H13A H 1.405599 0.641493 0.658115 0.067 Uiso 1 1 calc R U .
C12 C 1.2391(15) 0.6618(3) 0.7428(4) 0.069(2) Uani 1 1 d . U .
O2 O 1.1810(14) 0.7033(2) 0.9206(3) 0.138(3) Uani 1 1 d . U .
N2 N 1.3964(10) 0.69608(18) 0.7559(3) 0.073(2) Uani 1 1 d . . .
H2A H 1.485581 0.703033 0.722354 0.088 Uiso 1 1 calc R U .
C16 C 0.8951(14) 0.6211(3) 0.7633(5) 0.090(3) Uani 1 1 d . . .
H16A H 0.770411 0.615448 0.790833 0.107 Uiso 1 1 calc R U .
C17 C 1.0461(15) 0.6556(3) 0.7798(4) 0.080(2) Uani 1 1 d . U .
H17A H 1.014257 0.674802 0.816961 0.096 Uiso 1 1 calc R U .
O8 O 0.6097(11) 0.4995(2) 0.6842(3) 0.103(2) Uani 1 1 d D . .
C24 C 0.4263(16) 0.4909(3) 0.7027(5) 0.092(3) Uani 1 1 d D . .
H24A H 0.326439 0.482579 0.667666 0.110 Uiso 1 1 calc R U .
O1 O 1.5512(11) 0.77735(18) 0.9547(3) 0.112(2) Uani 1 1 d . . .
N4 N 0.3448(15) 0.4917(4) 0.7685(5) 0.161(4) Uani 1 1 d D . .
O7 O 1.7361(13) 0.7770(2) 1.1624(3) 0.117(3) Uani 1 1 d D . .
N3 N 1.9701(13) 0.7922(2) 1.0730(4) 0.085(2) Uani 1 1 d D . .
C20 C 2.0378(14) 0.8169(3) 1.0103(4) 0.106(3) Uani 1 1 d D . .
H20A H 2.180026 0.806087 0.994669 0.160 Uiso 1 1 calc R U .
H20B H 1.929088 0.812523 0.973922 0.160 Uiso 1 1 calc R U .
H20C H 2.048588 0.848485 1.021059 0.160 Uiso 1 1 calc R U .
C21 C 1.7777(17) 0.7981(4) 1.1103(5) 0.129(5) Uani 1 1 d D . .
H21A H 1.675085 0.819367 1.094710 0.154 Uiso 1 1 calc R U .
C19 C 2.1332(17) 0.7529(4) 1.0893(5) 0.165(5) Uani 1 1 d D . .
H19A H 2.257702 0.754303 1.057834 0.248 Uiso 1 1 calc R U .
H19B H 2.185242 0.755446 1.136772 0.248 Uiso 1 1 calc R U .
H19C H 2.057363 0.724641 1.083379 0.248 Uiso 1 1 calc R U .
C9 C 2.2117(12) 0.8504(3) 0.7874(4) 0.072(2) Uani 1 1 d . . .
H9A H 2.348254 0.853882 0.765007 0.087 Uiso 1 1 calc R U .
C3 C 1.4977(16) 0.7561(3) 0.9037(4) 0.080(3) Uani 1 1 d . . .
C10 C 2.0758(14) 0.8134(3) 0.7744(4) 0.070(2) Uani 1 1 d . U .
H10A H 2.125052 0.791059 0.743947 0.084 Uiso 1 1 calc R U .
C23 C 0.455(2) 0.5203(6) 0.8298(8) 0.368(14) Uani 1 1 d D . .
H23A H 0.370908 0.516164 0.872201 0.552 Uiso 1 1 calc R U .
H23B H 0.605382 0.510450 0.837128 0.552 Uiso 1 1 calc R U .
H23C H 0.454383 0.551674 0.817299 0.552 Uiso 1 1 calc R U .
C22 C 0.1012(18) 0.4771(4) 0.7871(7) 0.205(6) Uani 1 1 d D . .
H22A H 0.077928 0.480302 0.836635 0.308 Uiso 1 1 calc R U .
H22B H -0.002608 0.495895 0.762239 0.308 Uiso 1 1 calc R U .
H22C H 0.078992 0.446232 0.773780 0.308 Uiso 1 1 calc R U .
loop_
_atom_site_aniso_label
_atom_site_aniso_U_11
_atom_site_aniso_U_22
_atom_site_aniso_U_33
_atom_site_aniso_U_23
_atom_site_aniso_U_13
_atom_site_aniso_U_12
Zn1 0.0308(6) 0.0268(6) 0.0403(6) 0.0023(6) -0.0052(5) -0.0024(6)
Zn2 0.0366(5) 0.0219(4) 0.0544(5) -0.0006(4) 0.0040(4) -0.0012(5)
O1W 0.018(2) 0.035(2) 0.048(3) -0.006(2) -0.0070(18) -0.003(2)
O6 0.049(3) 0.049(3) 0.069(4) -0.019(3) 0.012(3) -0.003(3)
O4 0.064(4) 0.029(3) 0.088(4) -0.036(2) 0.002(3) 0.002(3)
O5 0.068(4) 0.061(4) 0.056(3) -0.023(3) 0.009(3) -0.032(3)
C14 0.045(5) 0.053(5) 0.053(5) -0.009(4) 0.003(4) -0.015(4)
O3 0.067(4) 0.040(3) 0.081(4) -0.028(3) 0.006(3) -0.028(3)
C8 0.051(5) 0.051(5) 0.064(5) -0.025(4) -0.005(4) -0.001(4)
C4 0.096(7) 0.030(5) 0.063(6) -0.018(4) -0.010(6) -0.001(5)
C18 0.044(6) 0.032(5) 0.049(5) -0.006(4) -0.001(4) 0.005(4)
C1 0.104(7) 0.050(5) 0.068(6) -0.023(5) 0.001(5) -0.012(5)
C6 0.040(4) 0.039(4) 0.046(4) -0.009(3) -0.009(4) -0.003(4)
C5 0.074(6) 0.042(4) 0.056(5) -0.031(4) 0.015(4) -0.018(4)
N1 0.084(5) 0.060(5) 0.058(4) -0.025(4) 0.012(4) -0.010(4)
C11 0.041(5) 0.030(5) 0.044(5) -0.004(3) 0.004(4) 0.004(4)
C2 0.136(9) 0.117(8) 0.081(7) -0.055(6) 0.054(6) -0.089(7)
C15 0.063(6) 0.081(6) 0.075(6) -0.034(5) 0.021(5) -0.018(5)
C7 0.041(5) 0.045(5) 0.045(4) -0.010(4) 0.001(4) 0.005(4)
C13 0.055(5) 0.047(5) 0.066(5) -0.008(4) 0.007(4) -0.014(4)
C12 0.092(7) 0.057(5) 0.057(5) -0.027(4) 0.012(5) -0.021(5)
O2 0.189(8) 0.132(6) 0.094(5) -0.050(4) 0.041(5) -0.103(5)
N2 0.097(5) 0.056(4) 0.067(4) -0.041(4) 0.017(4) -0.043(4)
C16 0.071(6) 0.087(7) 0.110(8) -0.030(6) 0.024(6) -0.028(5)
C17 0.104(7) 0.064(5) 0.073(6) -0.042(4) 0.014(5) -0.026(5)
O8 0.085(4) 0.150(6) 0.073(4) 0.004(4) 0.002(4) -0.022(5)
C24 0.098(9) 0.101(8) 0.076(8) -0.009(6) -0.032(7) -0.006(7)
O1 0.173(6) 0.096(5) 0.068(4) -0.042(4) 0.020(4) -0.057(4)
N4 0.104(7) 0.301(13) 0.076(6) 0.033(8) 0.001(6) -0.050(8)
O7 0.176(7) 0.097(5) 0.077(5) 0.059(4) 0.037(5) 0.036(4)
N3 0.092(7) 0.066(5) 0.096(6) -0.016(4) -0.023(6) 0.012(5)
C20 0.108(8) 0.125(8) 0.087(7) 0.034(6) 0.026(6) -0.035(6)
C21 0.093(10) 0.172(13) 0.121(11) -0.059(9) 0.001(9) 0.016(9)
C19 0.145(10) 0.213(13) 0.137(10) 0.025(9) 0.028(8) 0.067(10)
C9 0.055(5) 0.073(6) 0.089(6) -0.045(5) 0.023(5) -0.005(5)
C3 0.127(8) 0.065(6) 0.049(5) -0.035(4) 0.019(5) -0.017(6)
C10 0.090(6) 0.055(5) 0.066(5) -0.031(4) 0.025(5) 0.005(5)
C23 0.175(15) 0.75(4) 0.180(17) -0.14(2) 0.033(13) -0.19(2)
C22 0.153(13) 0.278(16) 0.185(14) -0.014(12) -0.005(11) -0.058(12)
loop_
_atom_type_symbol
_atom_type_description
_atom_type_scat_dispersion_real
_atom_type_scat_dispersion_imag
_atom_type_scat_source
C C 0.0033 0.0016 'International Tables Vol C Tables 4.2.6.8 and 6.1.1.4'
H H 0.0000 0.0000 'International Tables Vol C Tables 4.2.6.8 and 6.1.1.4'
N N 0.0061 0.0033 'International Tables Vol C Tables 4.2.6.8 and 6.1.1.4'
O O 0.0106 0.0060 'International Tables Vol C Tables 4.2.6.8 and 6.1.1.4'
Zn Zn 0.2839 1.4301 'International Tables Vol C Tables 4.2.6.8 and 6.1.1.4'
loop_
_geom_angle_atom_site_label_1
_geom_angle_atom_site_label_2
_geom_angle_atom_site_label_3
_geom_angle
_geom_angle_site_symmetry_1
_geom_angle_site_symmetry_3
O1W Zn1 O1W 180.0 . 3_766
O1W Zn1 O3 97.11(16) . 4_475
O1W Zn1 O3 82.89(16) 3_766 4_475
O1W Zn1 O3 82.89(17) . 2_846
O1W Zn1 O3 97.11(16) 3_766 2_846
O3 Zn1 O3 180.00(13) 4_475 2_846
O1W Zn1 O5 83.47(16) . .
O1W Zn1 O5 96.53(16) 3_766 .
O3 Zn1 O5 90.41(19) 4_475 .
O3 Zn1 O5 89.59(19) 2_846 .
O1W Zn1 O5 96.53(16) . 3_766
O1W Zn1 O5 83.47(16) 3_766 3_766
O3 Zn1 O5 89.59(19) 4_475 3_766
O3 Zn1 O5 90.41(19) 2_846 3_766
O5 Zn1 O5 180.0 . 3_766
O6 Zn2 O4 107.6(2) 3_766 2_746
O6 Zn2 O1W 118.26(18) 3_766 .
O4 Zn2 O1W 117.80(18) 2_746 .
O6 Zn2 O1W 109.44(18) 3_766 3_666
O4 Zn2 O1W 116.41(18) 2_746 3_666
O1W Zn2 O1W 86.07(12) . 3_666
O6 Zn2 Zn2 123.45(16) 3_766 3_666
O4 Zn2 Zn2 128.55(16) 2_746 3_666
O1W Zn2 Zn2 43.26(10) . 3_666
O1W Zn2 Zn2 42.82(9) 3_666 3_666
Zn2 O1W Zn2 93.93(12) . 3_666
Zn2 O1W Zn1 110.09(17) . .
Zn2 O1W Zn1 112.57(17) 3_666 .
C18 O6 Zn2 121.7(5) . 3_766
C11 O4 Zn2 123.0(4) . 2_756
C18 O5 Zn1 138.0(5) . .
C13 C14 C15 119.1(7) . .
C13 C14 C18 118.9(7) . .
C15 C14 C18 121.9(7) . .
C11 O3 Zn1 143.6(5) . 2_856
C7 C8 C9 122.0(7) . .
N1 C4 C1 133.3(7) . .
N1 C4 C3 138.9(7) . .
C1 C4 C3 87.8(8) . .
O5 C18 O6 125.5(7) . .
O5 C18 C14 118.3(8) . .
O6 C18 C14 116.2(7) . .
N2 C1 C4 124.3(8) . .
N2 C1 C2 141.8(9) . .
C4 C1 C2 93.8(7) . .
C5 C6 C7 116.0(7) . .
C10 C5 N1 119.7(7) . .
C10 C5 C6 122.5(7) . .
N1 C5 C6 117.8(8) . .
C4 N1 C5 127.4(6) . .
O3 C11 O4 126.6(7) . .
O3 C11 C7 119.3(7) . .
O4 C11 C7 114.1(7) . .
O2 C2 C1 136.6(9) . .
O2 C2 C3 134.9(8) . .
C1 C2 C3 88.5(8) . .
C14 C15 C16 120.9(7) . .
C8 C7 C6 120.8(6) . .
C8 C7 C11 120.3(7) . .
C6 C7 C11 118.9(7) . .
C12 C13 C14 121.8(8) . .
C17 C12 C13 119.3(7) . .
C17 C12 N2 125.0(7) . .
C13 C12 N2 115.5(8) . .
C1 N2 C12 125.5(7) . .
C17 C16 C15 116.5(8) . .
C12 C17 C16 122.0(8) . .
O8 C24 N4 127.8(9) . .
C24 N4 C22 123.1(8) . .
C24 N4 C23 123.0(9) . .
C22 N4 C23 111.6(8) . .
C21 N3 C20 126.6(8) . .
C21 N3 C19 121.7(8) . .
C20 N3 C19 111.4(8) . .
O7 C21 N3 122.6(10) . .
C8 C9 C10 116.9(8) . .
O1 C3 C2 135.6(8) . .
O1 C3 C4 134.4(9) . .
C2 C3 C4 89.9(7) . .
C5 C10 C9 121.6(7) . .
loop_
_geom_bond_atom_site_label_1
_geom_bond_atom_site_label_2
_geom_bond_distance
_geom_bond_site_symmetry_2
Zn1 O1W 2.046(3) .
Zn1 O1W 2.046(3) 3_766
Zn1 O3 2.118(4) 4_475
Zn1 O3 2.118(4) 2_846
Zn1 O5 2.125(4) .
Zn1 O5 2.125(4) 3_766
Zn2 O6 1.905(5) 3_766
Zn2 O4 1.925(5) 2_746
Zn2 O1W 1.983(3) .
Zn2 O1W 1.999(3) 3_666
Zn2 Zn2 2.9108(14) 3_666
O6 C18 1.275(8) .
O4 C11 1.273(7) .
O5 C18 1.224(7) .
C14 C13 1.375(8) .
C14 C15 1.380(9) .
C14 C18 1.511(9) .
O3 C11 1.177(7) .
C8 C7 1.373(9) .
C8 C9 1.378(8) .
C4 N1 1.348(9) .
C4 C1 1.433(10) .
C4 C3 1.515(11) .
C1 N2 1.351(8) .
C1 C2 1.458(12) .
C6 C5 1.396(9) .
C6 C7 1.401(8) .
C5 C10 1.345(10) .
C5 N1 1.394(8) .
C11 C7 1.522(9) .
C2 O2 1.214(10) .
C2 C3 1.473(11) .
C15 C16 1.427(10) .
C13 C12 1.369(9) .
C12 C17 1.368(11) .
C12 N2 1.409(8) .
C16 C17 1.401(9) .
O8 C24 1.184(7) .
C24 N4 1.347(9) .
O1 C3 1.202(8) .
N4 C22 1.565(11) .
N4 C23 1.588(11) .
O7 C21 1.201(8) .
N3 C21 1.368(9) .
N3 C20 1.462(8) .
N3 C19 1.552(9) .
C9 C10 1.388(8) .
loop_
_smtbx_masks_void_nr
_smtbx_masks_void_average_x
_smtbx_masks_void_average_y
_smtbx_masks_void_average_z
_smtbx_masks_void_volume
_smtbx_masks_void_count_electrons
_smtbx_masks_void_content
1 -0.461 0.000 0.500 494.3 239.5 '6 DMF'
2 -0.802 0.500 1.000 494.3 239.5 '6 DMF'
