#------------------------------------------------------------------------------
#$Date: 2019-11-07 22:49:04 +0200 (Thu, 07 Nov 2019) $
#$Revision: 223866 $
#$URL: file:///home/coder/svn-repositories/cod/cif/7/70/01/7700138.cif $
#------------------------------------------------------------------------------
#
# This file is available in the Crystallography Open Database (COD),
# http://www.crystallography.net/
#
# All data on this site have been placed in the public domain by the
# contributors.
#
data_7700138
loop_
_publ_author_name
'Wu, Xue-Song'
'Bao, Hong-Fei'
'Zhu, Fu-Long'
'Sun, Jing'
'Wang, Xin-Long'
'Su, Zhong-Min'
_publ_section_title
;
 Syntheses and magnetic properties of high-dimensional
 cucurbit[6]uril-based metal-organic rotaxane frameworks.
;
_journal_issue                   27
_journal_name_full
'Dalton transactions (Cambridge, England : 2003)'
_journal_page_first              9939
_journal_page_last               9943
_journal_paper_doi               10.1039/c9dt01544b
_journal_volume                  48
_journal_year                    2019
_chemical_formula_moiety         'C23 H19 Co N2 O6, C18 H18 N12 O6'
_chemical_formula_sum            'C41 H57 Co N14 O22'
_chemical_formula_weight         1156.93
_space_group_crystal_system      monoclinic
_space_group_IT_number           14
_space_group_name_Hall           '-P 2yn'
_space_group_name_H-M_alt        'P 1 21/n 1'
_symmetry_space_group_name_Hall  '-P 2yn'
_symmetry_space_group_name_H-M   'P 1 21/n 1'
_atom_sites_solution_hydrogens   geom
_atom_sites_solution_primary     dual
_audit_creation_date             2019-05-10
_audit_creation_method
;
Olex2 1.2
(compiled 2018.05.29 svn.r3508 for OlexSys, GUI svn.r5506)
;
_audit_update_record
;
2019-05-29 deposited with the CCDC.    2019-05-31 downloaded from the CCDC.
;
_cell_angle_alpha                90
_cell_angle_beta                 92.949(5)
_cell_angle_gamma                90
_cell_formula_units_Z            4
_cell_length_a                   13.868(5)
_cell_length_b                   14.824(5)
_cell_length_c                   25.364(5)
_cell_measurement_reflns_used    9897
_cell_measurement_temperature    293(2)
_cell_measurement_theta_max      25.086
_cell_measurement_theta_min      2.528
_cell_volume                     5207(3)
_computing_cell_refinement       'APEX2(Bruker, 2005)'
_computing_data_collection       'APEX2(Bruker, 2005)'
_computing_data_reduction        'SAINT(Bruker, 2006)'
_computing_molecular_graphics    'SHELXTL (Sheldrick, 2008)'
_computing_publication_material  'SHELXTL (Sheldrick, 2008)'
_computing_structure_refinement  'Shelxl2014 (Sheldrick, 2015b)'
_computing_structure_solution    'ShelXT2014 (Sheldrick, 2015a)'
_diffrn_ambient_temperature      293.02
_diffrn_detector                 'charge-coupled device (CCD) area detector'
_diffrn_detector_area_resol_mean 7.9
_diffrn_detector_type            'Bruker APEX II'
_diffrn_measured_fraction_theta_full 0.989
_diffrn_measured_fraction_theta_max 0.989
_diffrn_measurement_device       'three-circle diffractometer'
_diffrn_measurement_device_type  'Bruker SMART APEX II'
_diffrn_measurement_method       '0.5\% \w and 0.5\% \f scans'
_diffrn_radiation_collimation    'focusing mirrors'
_diffrn_radiation_detector       'Bruker APEX II'
_diffrn_radiation_monochromator  'mirror optics'
_diffrn_radiation_probe          x-ray
_diffrn_radiation_type           MoK\a
_diffrn_radiation_wavelength     0.71069
_diffrn_reflns_av_R_equivalents  0.0331
_diffrn_reflns_av_unetI/netI     0.0250
_diffrn_reflns_Laue_measured_fraction_full 0.989
_diffrn_reflns_Laue_measured_fraction_max 0.989
_diffrn_reflns_limit_h_max       16
_diffrn_reflns_limit_h_min       -16
_diffrn_reflns_limit_k_max       17
_diffrn_reflns_limit_k_min       -17
_diffrn_reflns_limit_l_max       30
_diffrn_reflns_limit_l_min       -30
_diffrn_reflns_number            41404
_diffrn_reflns_point_group_measured_fraction_full 0.989
_diffrn_reflns_point_group_measured_fraction_max 0.989
_diffrn_reflns_theta_full        25.086
_diffrn_reflns_theta_max         25.086
_diffrn_reflns_theta_min         2.528
_diffrn_source                   'microfocus sealed X-ray tube'
_diffrn_source_type              'Incoatec I\ms'
_exptl_absorpt_coefficient_mu    0.423
_exptl_absorpt_correction_T_max  0.92
_exptl_absorpt_correction_T_min  0.90
_exptl_absorpt_correction_type   multi-scan
_exptl_absorpt_process_details
;
SADABS-2016/2 (Krause et al., 2015) was used for absorption correction.
;
_exptl_crystal_colour            purple
_exptl_crystal_density_diffrn    1.476
_exptl_crystal_density_method    'not measured'
_exptl_crystal_description       block
_exptl_crystal_F_000             2416
_exptl_crystal_size_max          0.24
_exptl_crystal_size_mid          0.22
_exptl_crystal_size_min          0.2
_refine_diff_density_max         0.527
_refine_diff_density_min         -0.444
_refine_diff_density_rms         0.076
_refine_ls_extinction_method     none
_refine_ls_goodness_of_fit_ref   1.086
_refine_ls_hydrogen_treatment    constr
_refine_ls_matrix_type           full
_refine_ls_number_parameters     613
_refine_ls_number_reflns         9162
_refine_ls_number_restraints     1
_refine_ls_restrained_S_all      1.089
_refine_ls_R_factor_all          0.0636
_refine_ls_R_factor_gt           0.0521
_refine_ls_shift/su_max          0.001
_refine_ls_shift/su_mean         0.000
_refine_ls_structure_factor_coef Fsqd
_refine_ls_weighting_details
'w=1/[\s^2^(Fo^2^)+(0.1046P)^2^+3.8460P] where P=(Fo^2^+2Fc^2^)/3'
_refine_ls_weighting_scheme      calc
_refine_ls_wR_factor_gt          0.1590
_refine_ls_wR_factor_ref         0.1716
_reflns_Friedel_coverage         0.000
_reflns_number_gt                7560
_reflns_number_total             9162
_reflns_threshold_expression     'I > 2\s(I)'
_cod_data_source_file            c9dt01544b2.cif
_cod_data_source_block           3
_cod_depositor_comments
'Adding full bibliography for 7700136--7700138.cif.'
_cod_database_code               7700138
_shelx_shelxl_version_number     2018/1
_shelx_space_group_comment
;
The symmetry employed for this shelxl refinement is uniquely defined
by the following loop, which should always be used as a source of
symmetry information in preference to the above space-group names.
They are only intended as comments.
;
_shelx_estimated_absorpt_t_max   0.54
_shelx_estimated_absorpt_t_min   0.21
_olex2_refinement_description
;
1. Fixed Uiso
 At 1.2 times of:
  All C(H) groups, All C(H,H) groups, All N(H,H) groups
2. Rigid bond restraints
 O3, Co1
 with sigma for 1-2 distances of 0.001 and sigma for 1-3 distances of 0.001
3.a Ternary CH refined with riding coordinates:
 C41(H41), C38(H38), C39(H39), C40(H40), C43(H43), C42(H42)
3.b Secondary CH2 refined with riding coordinates:
 N2(H2A,H2B), C23(H23A,H23B), C22(H22A,H22B), C34(H34A,H34B), C32(H32A,H32B),
 C26(H26A,H26B), C24(H24A,H24B), C36(H36A,H36B), C30(H30A,H30B), C28(H28A,H28B)
3.c Aromatic/amide H refined with riding coordinates:
 C6(H6), C11(H11), C13(H13), C9(H9), C7(H7), C4(H4), C21(H21), C3(H3),
 C17(H17), C19(H19), C18(H18)
;
_shelx_res_file
;
TITL 2 in P2(1)/n
    3.res
    created by SHELXL-2018/1 at 15:07:22 on 10-May-2019
CELL 0.71069 13.868 14.824 25.364 90 92.949 90
ZERR 4 0.005 0.005 0.005 0 0.005 0
LATT 1
SYMM 0.5-X,0.5+Y,0.5-Z
SFAC C H Co N O
UNIT 164 228 4 56 88
DELU 0.001 0.001 O3 Co1

L.S. 20 0 115
PLAN  10
SIZE 0.2 0.22 0.24
BOND $H
CONF
ABIN
fmap 2
acta
MERG 2
OMIT -4 1 2
OMIT 2 1 1
OMIT 1 1 2
OMIT -2 1 1
OMIT -1 4 4
OMIT -3 0 1
OMIT 5 1 0
OMIT 1 1 1
OMIT 0 2 1
OMIT 3 1 0
OMIT -4 1 1
OMIT 1 1 5
OMIT 2 1 3
OMIT -4 0 2
OMIT 3 1 5
OMIT 0 4 3
OMIT 2 0 0
OMIT -2 0 2
REM <olex2.extras>
REM <HklSrc "%.\\3.hkl">
REM </olex2.extras>

WGHT    0.104600    3.846000
FVAR       0.17962
CO1   3   -0.394416    0.467439    0.172811    11.00000    0.02330    0.02148 =
         0.03735   -0.00320    0.00153   -0.00130
O6    5    0.439666    0.494673    0.147940    11.00000    0.03150    0.04079 =
         0.07436    0.00568    0.01092   -0.00398
O5    5    0.500161    0.377804    0.190607    11.00000    0.02078    0.03473 =
         0.05871   -0.00669   -0.00049   -0.00418
O12   5    0.428381    0.261676    0.083585    11.00000    0.07383    0.03618 =
         0.04439   -0.00136    0.00694   -0.01007
O2    5   -0.287641    0.388543    0.202076    11.00000    0.02485    0.05025 =
         0.04569    0.00335    0.00665    0.01146
C12   1   -0.128543    0.332690    0.199913    11.00000    0.02204    0.02791 =
         0.03098    0.00000    0.00312    0.00175
N1    4   -0.380896    0.453870    0.092205    11.00000    0.03273    0.02184 =
         0.03767   -0.00305    0.00147   -0.00355
O4    5   -0.066502    0.033266    0.244878    11.00000    0.07066    0.03192 =
         0.05844    0.00565    0.00779    0.00246
O9    5    0.354149   -0.165733   -0.117709    11.00000    0.10291    0.02903 =
         0.05335    0.00883   -0.00018   -0.00605
C10   1   -0.074231    0.193074    0.239368    11.00000    0.03115    0.02662 =
         0.02921    0.00282    0.00452    0.00003
N2    4   -0.439489    0.204682    0.007633    11.00000    0.06215    0.01969 =
         0.05148   -0.00614    0.00597   -0.00530
AFIX  23
H2A   2   -0.490158    0.226156   -0.011350    11.00000   -1.20000
H2B   2   -0.452477    0.208729    0.041551    11.00000   -1.20000
AFIX   0
C15   1   -0.092220    0.104214    0.266239    11.00000    0.03337    0.03271 =
         0.03878    0.00268    0.00056   -0.00712
C2    1    0.329434    0.384840    0.178440    11.00000    0.02144    0.02819 =
         0.04738   -0.00613    0.00173    0.00105
C6    1    0.160933    0.380846    0.152712    11.00000    0.02435    0.03846 =
         0.03888    0.00775    0.00001    0.00075
AFIX  43
H6    2    0.110285    0.398744    0.129605    11.00000   -1.20000
AFIX   0
C5    1    0.142318    0.323006    0.193931    11.00000    0.02203    0.02646 =
         0.03360   -0.00402    0.00407   -0.00010

O10   5    0.532180    0.199138   -0.130511    11.00000    0.10205    0.03036 =
         0.06673   -0.00386   -0.00174   -0.00587
C8    1    0.041785    0.296275    0.204435    11.00000    0.02252    0.02644 =
         0.03045   -0.00007    0.00197   -0.00021
C11   1   -0.148886    0.252550    0.225303    11.00000    0.02128    0.03163 =
         0.03630   -0.00131    0.00700   -0.00285
AFIX  43
H11   2   -0.212073    0.238621    0.232891    11.00000   -1.20000
AFIX   0
C1    1    0.428363    0.421123    0.171214    11.00000    0.02724    0.03189 =
         0.04621   -0.01141    0.00717   -0.00366
C13   1   -0.034012    0.354597    0.190196    11.00000    0.02467    0.02404 =
         0.03202    0.00249    0.00392   -0.00125
AFIX  43
H13   2   -0.020876    0.409116    0.173903    11.00000   -1.20000
AFIX   0
O1    5   -0.187506    0.460127    0.151942    11.00000    0.03368    0.04643 =
         0.10713    0.03674    0.00233    0.00627
C9    1    0.019609    0.214949    0.228649    11.00000    0.02434    0.02746 =
         0.03597    0.00439   -0.00111    0.00137
AFIX  43
H9    2    0.069024    0.174586    0.237776    11.00000   -1.20000
AFIX   0
C7    1    0.252730    0.412492    0.145138    11.00000    0.02964    0.03825 =
         0.04520    0.00740    0.00702   -0.00218
AFIX  43
H7    2    0.263141    0.452362    0.117699    11.00000   -1.20000
AFIX   0

O8    5    0.174148   -0.091693   -0.035792    11.00000    0.10171    0.03712 =
         0.06724   -0.00134    0.00330   -0.01441
N6    4    0.277083    0.199233    0.084168    11.00000    0.07035    0.03016 =
         0.05650   -0.00114    0.01124   -0.00569
N10   4    0.315085    0.004468    0.145698    11.00000    0.08729    0.02830 =
         0.06061   -0.00409    0.01801   -0.00700
C4    1    0.220734    0.294047    0.226405    11.00000    0.02684    0.03161 =
         0.03922    0.00291    0.00422    0.00504
AFIX  43
H4    2    0.210672    0.253876    0.253745    11.00000   -1.20000
AFIX   0
C21   1   -0.370619    0.371650    0.071489    11.00000    0.04536    0.01906 =
         0.03828    0.00002    0.00431   -0.00427
AFIX  43
H21   2   -0.366818    0.322377    0.094197    11.00000   -1.20000
AFIX   0

C33   1    0.370696    0.209644    0.101217    11.00000    0.07421    0.02488 =
         0.03937   -0.00876    0.01476   -0.00585
N13   4    0.200106    0.028645   -0.090065    11.00000    0.07846    0.03508 =
         0.05447   -0.00228   -0.00872   -0.00672
C3    1    0.312221    0.324124    0.218444    11.00000    0.02186    0.03654 =
         0.04292   -0.00186   -0.00330    0.00443
AFIX  43
H3    2    0.363576    0.303501    0.240206    11.00000   -1.20000
AFIX   0

N14   4    0.318984   -0.023062   -0.149426    11.00000    0.09473    0.03217 =
         0.04190    0.00369   -0.00149   -0.00055
N3    4    0.391085    0.125353   -0.155563    11.00000    0.09047    0.02851 =
         0.04442   -0.00009   -0.00889    0.00350
N7    4    0.388797    0.152500    0.143007    11.00000    0.08540    0.03169 =
         0.04271   -0.00154    0.00541   -0.01097
N5    4    0.239215    0.198076   -0.009882    11.00000    0.06528    0.03511 =
         0.05667   -0.00313    0.00046   -0.00299
N11   4    0.209077    0.047389    0.081962    11.00000    0.07605    0.03240 =
         0.06013   -0.00775    0.01876   -0.01003
C14   1   -0.206249    0.398872    0.183053    11.00000    0.02408    0.03053 =
         0.04472   -0.00205   -0.00049    0.00288
N9    4    0.469051   -0.061417    0.173346    11.00000    0.09880    0.02691 =
         0.04899   -0.00042    0.00625   -0.00074
O7    5    0.244218   -0.103952    0.091324    11.00000    0.09729    0.03186 =
         0.08661   -0.01373    0.02279   -0.01486
N4    4    0.278869    0.174353   -0.092261    11.00000    0.08385    0.03393 =
         0.04715    0.00243   -0.00479   -0.00554
N12   4    0.151560    0.055764   -0.009443    11.00000    0.08950    0.03761 =
         0.06907   -0.00606    0.00901   -0.00892
C23   1   -0.425636    0.107918   -0.006090    11.00000    0.07694    0.02087 =
         0.04470   -0.00828    0.00513    0.00068
AFIX  23
H23A  2   -0.368192    0.085592    0.013087    11.00000   -1.20000
H23B  2   -0.415002    0.103340   -0.043496    11.00000   -1.20000
AFIX   0
C22   1   -0.353637    0.261236   -0.002064    11.00000    0.06634    0.02985 =
         0.04548   -0.00862    0.01746   -0.00594
AFIX  23
H22A  2   -0.343792    0.262761   -0.039640    11.00000   -1.20000
H22B  2   -0.296866    0.234303    0.015465    11.00000   -1.20000
AFIX   0

N8    4    0.542608    0.086905    0.168689    11.00000    0.09759    0.02819 =
         0.04436    0.00635    0.00487    0.00005
C20   1   -0.365373    0.356408    0.017860    11.00000    0.04605    0.02389 =
         0.04025   -0.00318    0.00819   -0.00866
C34   1    0.235648    0.247887    0.039319    11.00000    0.06781    0.02742 =
         0.06624   -0.00464    0.00814    0.00560
AFIX  23
H34A  2    0.269991    0.304427    0.035937    11.00000   -1.20000
H34B  2    0.168893    0.262015    0.045549    11.00000   -1.20000
AFIX   0
C41   1    0.228354    0.129245    0.112152    11.00000    0.07337    0.03352 =
         0.05847   -0.00922    0.02745   -0.00655
AFIX  13
H41   2    0.169907    0.152082    0.127719    11.00000   -1.20000
AFIX   0

C17   1   -0.385213    0.524026    0.059262    11.00000    0.05767    0.01795 =
         0.05312   -0.00182    0.00603   -0.00337
AFIX  43
H17   2   -0.392224    0.581500    0.073258    11.00000   -1.20000
AFIX   0
C19   1   -0.371389    0.429386   -0.015589    11.00000    0.06797    0.03914 =
         0.03771   -0.00135    0.01143   -0.00969
AFIX  43
H19   2   -0.369864    0.421454   -0.051908    11.00000   -1.20000
AFIX   0

C38   1    0.362238    0.042439   -0.183000    11.00000    0.10170    0.03376 =
         0.03085    0.00603   -0.00827   -0.00515
AFIX  13
H38   2    0.321765    0.054445   -0.215045    11.00000   -1.20000
AFIX   0
C39   1    0.189587    0.126501   -0.088992    11.00000    0.07220    0.03858 =
         0.06089    0.00334   -0.01782    0.00148
AFIX  13
H39   2    0.140726    0.147621   -0.115439    11.00000   -1.20000
AFIX   0
C37   1    0.488439    0.135569   -0.151053    11.00000    0.10449    0.02778 =
         0.03696    0.00979   -0.00225    0.00211
C32   1    0.475065    0.158501    0.176834    11.00000    0.10273    0.02563 =
         0.04580   -0.00702    0.00556   -0.01049
AFIX  23
H32A  2    0.506333    0.215821    0.170734    11.00000   -1.20000
H32B  2    0.457311    0.157394    0.213323    11.00000   -1.20000
AFIX   0
C40   1    0.159652    0.145255   -0.032199    11.00000    0.06553    0.03891 =
         0.07245   -0.00403   -0.00271   -0.00064
AFIX  13
H40   2    0.098503    0.178350   -0.031961    11.00000   -1.20000
AFIX   0

C18   1   -0.379790    0.515250    0.005757    11.00000    0.08019    0.02603 =
         0.05102    0.01135    0.00680   -0.00506
AFIX  43
H18   2   -0.381693    0.565861   -0.015938    11.00000   -1.20000
AFIX   0

C43   1    0.539840    0.000901    0.195641    11.00000    0.11468    0.03020 =
         0.02868    0.00470   -0.00028   -0.00149
AFIX  13
H43   2    0.533917    0.008477    0.233720    11.00000   -1.20000
AFIX   0
C26   1    0.217903   -0.021646   -0.137256    11.00000    0.09277    0.03908 =
         0.04985   -0.00502   -0.02037   -0.01084
AFIX  23
H26A  2    0.180568    0.004703   -0.166763    11.00000   -1.20000
H26B  2    0.195765   -0.083161   -0.132996    11.00000   -1.20000
AFIX   0
C42   1    0.305127    0.100118    0.155035    11.00000    0.09148    0.03105 =
         0.04894   -0.00659    0.02661   -0.00532
AFIX  13
H42   2    0.284327    0.112609    0.190651    11.00000   -1.20000
AFIX   0
C25   1    0.375053   -0.099096   -0.142979    11.00000    0.09452    0.03026 =
         0.03307   -0.00091   -0.00850   -0.00152

C24   1   -0.509720    0.049204    0.006337    11.00000    0.07615    0.01993 =
         0.05966   -0.00460    0.00123   -0.00354
AFIX  23
H24A  2   -0.566837    0.069347   -0.014012    11.00000   -1.20000
H24B  2   -0.522132    0.054939    0.043476    11.00000   -1.20000
AFIX   0

C36   1    0.324943    0.193333   -0.141193    11.00000    0.09424    0.02822 =
         0.04981    0.01024   -0.00742    0.00630
AFIX  23
H36A  2    0.275445    0.199877   -0.169370    11.00000   -1.20000
H36B  2    0.359022    0.250327   -0.137648    11.00000   -1.20000
AFIX   0
C30   1    0.367974   -0.055966    0.181752    11.00000    0.11819    0.03246 =
         0.05720    0.00813    0.03212   -0.01061
AFIX  23
H30A  2    0.359702   -0.035872    0.217633    11.00000   -1.20000
H30B  2    0.340242   -0.115864    0.178191    11.00000   -1.20000
AFIX   0
C29   1    0.254503   -0.024964    0.105020    11.00000    0.07718    0.03901 =
         0.06361   -0.00892    0.03358   -0.01247
C27   1    0.175779   -0.011278   -0.044303    11.00000    0.06402    0.03996 =
         0.06163   -0.00247   -0.00767   -0.01005
C28   1    0.128467    0.037547    0.044479    11.00000    0.07621    0.04796 =
         0.07837   -0.00967    0.01789   -0.01683
AFIX  23
H28A  2    0.077503    0.078231    0.054124    11.00000   -1.20000
H28B  2    0.103865   -0.023530    0.046588    11.00000   -1.20000
AFIX   0
C35   1    0.305741    0.216808   -0.045964    11.00000    0.06774    0.01890 =
         0.05406    0.00290   -0.00833    0.00546
O11   5    0.377148    0.263844   -0.038697    11.00000    0.07366    0.02853 =
         0.05320    0.00237   -0.00232   -0.00244

O3    5   -0.370770    0.602699    0.189786    11.00000    0.06068    0.03037 =
         0.05506   -0.01317    0.01893   -0.00257
HKLF 4




REM  2 in P2(1)/n
REM R1 =  0.0521 for    7560 Fo > 4sig(Fo)  and  0.0636 for all    9162 data
REM    613 parameters refined using      1 restraints

END

WGHT      0.1045      3.8374

REM Highest difference peak  0.527,  deepest hole -0.444,  1-sigma level  0.076
Q1    1  -0.0574  0.0627  0.2857  11.00000  0.05    0.53
Q2    1  -0.2026  0.0952  0.2611  11.00000  0.05    0.49
Q3    1   0.1290  0.1604 -0.2064  11.00000  0.05    0.40
Q4    1  -0.0010  0.5610  0.1612  11.00000  0.05    0.31
Q5    1  -0.0451  0.4324  0.0655  11.00000  0.05    0.31
Q6    1  -0.2999  0.5820 -0.0011  11.00000  0.05    0.28
Q7    1   0.1232  0.3355 -0.0420  11.00000  0.05    0.28
Q8    1  -0.3070  0.5655 -0.0378  11.00000  0.05    0.27
Q9    1   0.3028  0.0682  0.2771  11.00000  0.05    0.27
Q10   1   0.3142  0.0059 -0.2703  11.00000  0.05    0.26
;
_shelx_res_checksum              34825
_shelx_fab_file
;
    2    0    0     43.79      0.00
    8    0    0      4.89      0.00
   10    0    0     -8.05      0.00
   12    0    0      6.93      0.00
   14    0    0     -2.32      0.00
   16    0    0      2.11      0.00
    2    1    0     -7.86      0.00
    3    1    0     55.39      0.00
    4    1    0     52.27      0.00
    5    1    0     18.91      0.00
    6    1    0     33.94      0.00
    7    1    0      4.84      0.00
    8    1    0     -2.12      0.00
    9    1    0      0.19      0.00
   10    1    0      1.03      0.00
   11    1    0     -0.66      0.00
   12    1    0      2.71      0.00
   13    1    0     -2.71      0.00
   14    1    0      1.02      0.00
   15    1    0     -0.92      0.00
   16    1    0      1.00      0.00
    1    2    0    -19.30      0.00
    2    2    0    -19.92      0.00
    3    2    0      1.00      0.00
    4    2    0     -1.37      0.00
    5    2    0     10.10      0.00
    6    2    0     -6.50      0.00
    7    2    0     -1.17      0.00
    8    2    0      5.63      0.00
    9    2    0      6.37      0.00
   10    2    0     -1.39      0.00
   11    2    0      3.55      0.00
   12    2    0     -0.45      0.00
   13    2    0      1.51      0.00
   14    2    0     -0.69      0.00
   15    2    0      0.99      0.00
   16    2    0      1.25      0.00
    2    3    0    -20.09      0.00
    3    3    0    -16.76      0.00
    4    3    0     28.03      0.00
    5    3    0     16.14      0.00
    6    3    0     -1.58      0.00
    7    3    0      2.40      0.00
    8    3    0     -4.79      0.00
    9    3    0     -3.91      0.00
   10    3    0     -4.09      0.00
   11    3    0      2.55      0.00
   12    3    0     -2.57      0.00
   13    3    0      0.60      0.00
   14    3    0     -2.30      0.00
   15    3    0      0.11      0.00
   16    3    0     -0.34      0.00
    0    4    0    -51.65      0.00
    1    4    0      2.49      0.00
    2    4    0     44.03      0.00
    3    4    0    -22.10      0.00
    4    4    0     10.66      0.00
    5    4    0    -36.59      0.00
    6    4    0    -27.04      0.00
    7    4    0     -4.52      0.00
    8    4    0      6.40      0.00
    9    4    0      3.35      0.00
   10    4    0     11.15      0.00
   11    4    0     -0.28      0.00
   12    4    0     -5.05      0.00
   13    4    0      0.25      0.00
   14    4    0     -1.11      0.00
   15    4    0     -0.12      0.00
   16    4    0     -0.27      0.00
    1    5    0     78.02      0.00
    2    5    0     29.97      0.00
    3    5    0    -11.06      0.00
    4    5    0     -6.15      0.00
    5    5    0    -15.41      0.00
    6    5    0     -8.73      0.00
    7    5    0     -5.85      0.00
    8    5    0      3.18      0.00
    9    5    0     -6.72      0.00
   10    5    0     -3.62      0.00
   11    5    0     -0.31      0.00
   12    5    0     -0.38      0.00
   13    5    0      0.20      0.00
   14    5    0      1.15      0.00
   15    5    0      0.56      0.00
    0    6    0     21.33      0.00
    1    6    0     -0.65      0.00
    2    6    0     -1.28      0.00
    3    6    0      1.68      0.00
    4    6    0    -20.29      0.00
    5    6    0      0.18      0.00
    6    6    0      9.94      0.00
    7    6    0      5.07      0.00
    8    6    0      2.17      0.00
    9    6    0     -2.49      0.00
   10    6    0     -3.29      0.00
   11    6    0     -1.76      0.00
   12    6    0     -0.01      0.00
   13    6    0      1.34      0.00
   14    6    0     -0.50      0.00
   15    6    0      0.40      0.00
    1    7    0    -10.25      0.00
    2    7    0    -18.20      0.00
    3    7    0      7.52      0.00
    4    7    0     -4.99      0.00
    5    7    0      5.35      0.00
    6    7    0      0.63      0.00
    7    7    0     -2.11      0.00
    8    7    0     -1.72      0.00
    9    7    0     -4.38      0.00
   10    7    0     -0.42      0.00
   11    7    0     -1.96      0.00
   12    7    0     -0.18      0.00
   13    7    0      0.11      0.00
   14    7    0      0.42      0.00
   15    7    0      2.18      0.00
    0    8    0     16.32      0.00
    1    8    0     -2.93      0.00
    2    8    0     -8.42      0.00
    3    8    0      6.98      0.00
    4    8    0    -13.11      0.00
    5    8    0      7.52      0.00
    6    8    0     11.03      0.00
    7    8    0     -4.18      0.00
    8    8    0      1.88      0.00
    9    8    0     -1.13      0.00
   10    8    0     -0.15      0.00
   11    8    0      2.34      0.00
   12    8    0      0.54      0.00
   13    8    0     -2.19      0.00
   14    8    0     -0.60      0.00
    1    9    0      0.74      0.00
    2    9    0    -14.21      0.00
    3    9    0     14.02      0.00
    4    9    0      0.32      0.00
    5    9    0     -7.71      0.00
    6    9    0      1.19      0.00
    7    9    0     -5.71      0.00
    8    9    0     -3.50      0.00
    9    9    0      5.58      0.00
   10    9    0      3.15      0.00
   11    9    0      0.20      0.00
   12    9    0      1.65      0.00
   13    9    0     -0.65      0.00
   14    9    0     -0.23      0.00
    0   10    0      3.17      0.00
    1   10    0      8.61      0.00
    2   10    0      9.09      0.00
    3   10    0      7.38      0.00
    4   10    0     -0.75      0.00
    5   10    0     -0.07      0.00
    6   10    0    -11.46      0.00
    7   10    0     -1.48      0.00
    8   10    0      1.23      0.00
    9   10    0      1.03      0.00
   10   10    0      4.58      0.00
   11   10    0     -0.64      0.00
   12   10    0     -0.80      0.00
   13   10    0      0.41      0.00
    1   11    0     -2.87      0.00
    2   11    0      1.67      0.00
    3   11    0     -7.00      0.00
    4   11    0     -8.30      0.00
    5   11    0     -2.22      0.00
    6   11    0     -0.07      0.00
    7   11    0      1.52      0.00
    8   11    0      0.72      0.00
    9   11    0     -1.16      0.00
   10   11    0     -2.49      0.00
   11   11    0     -0.43      0.00
   12   11    0     -0.66      0.00
    0   12    0      2.72      0.00
    1   12    0      1.17      0.00
    2   12    0      2.54      0.00
    3   12    0     -4.81      0.00
    4   12    0      0.47      0.00
    5   12    0     -2.23      0.00
    6   12    0     -1.76      0.00
    7   12    0      3.82      0.00
    8   12    0      1.16      0.00
    9   12    0      0.84      0.00
   10   12    0     -1.15      0.00
   11   12    0     -0.97      0.00
   12   12    0     -0.31      0.00
    1   13    0      2.33      0.00
    2   13    0      1.04      0.00
    3   13    0     -4.94      0.00
    4   13    0     -0.46      0.00
    5   13    0      2.11      0.00
    6   13    0      1.03      0.00
    7   13    0      3.67      0.00
    8   13    0      0.77      0.00
    9   13    0     -1.46      0.00
   10   13    0      0.29      0.00
   11   13    0      0.20      0.00
    0   14    0      5.76      0.00
    1   14    0     -4.09      0.00
    2   14    0      0.28      0.00
    3   14    0     -1.24      0.00
    4   14    0     -1.62      0.00
    5   14    0      2.94      0.00
    6   14    0      0.88      0.00
    7   14    0     -1.36      0.00
    8   14    0     -0.25      0.00
    9   14    0     -0.09      0.00
   10   14    0     -0.06      0.00
    1   15    0     -0.71      0.00
    2   15    0     -1.03      0.00
    3   15    0      1.01      0.00
    4   15    0      1.83      0.00
    5   15    0     -0.90      0.00
    6   15    0      0.81      0.00
    7   15    0     -1.41      0.00
    8   15    0     -1.92      0.00
    0   16    0     -1.84      0.00
    1   16    0     -0.96      0.00
    2   16    0     -0.23      0.00
    3   16    0     -2.14      0.00
    4   16    0      1.28      0.00
    5   16    0      0.34      0.00
    6   16    0     -1.64      0.00
    7   16    0     -0.90      0.00
    1   17    0      0.17      0.00
    2   17    0      0.34      0.00
    3   17    0      0.61      0.00
    4   17    0     -0.57      0.00
  -15    0    1     -0.02      0.00
  -13    0    1      1.31      0.00
  -11    0    1     -0.28      0.00
   -9    0    1      6.89      0.00
   -7    0    1      7.22      0.00
   -3    0    1     29.11      0.00
    5    0    1    -11.20      0.00
    7    0    1    -25.74      0.00
    9    0    1      5.12      0.00
   11    0    1      4.90      0.00
   13    0    1     -0.16      0.00
   15    0    1      0.38      0.00
  -16    1    1     -1.82      0.00
  -15    1    1     -0.81      0.00
  -14    1    1      1.85      0.00
  -13    1    1     -2.42      0.00
  -12    1    1     -6.32      0.00
  -11    1    1      1.26      0.00
  -10    1    1      3.76      0.00
   -9    1    1     -2.26      0.00
   -8    1    1      1.74      0.00
   -7    1    1    -21.04      0.00
   -6    1    1     12.08      0.00
   -5    1    1    -32.78      0.00
   -4    1    1     10.40      0.00
   -2    1    1     92.73      0.00
    1    1    1     95.89      0.00
    2    1    1      1.02      0.00
    3    1    1     23.26      0.00
    5    1    1      0.21      0.00
    6    1    1      2.82      0.00
    7    1    1     10.27      0.00
    8    1    1     -8.55      0.00
    9    1    1     -1.05      0.00
   10    1    1      4.93      0.00
   11    1    1      1.24      0.00
   12    1    1     -1.86      0.00
   13    1    1      0.78      0.00
   14    1    1     -0.47      0.00
   15    1    1      1.15      0.00
   16    1    1     -1.46      0.00
  -16    2    1     -0.04      0.00
  -15    2    1     -0.45      0.00
  -14    2    1     -0.13      0.00
  -13    2    1      0.22      0.00
  -12    2    1     -6.32      0.00
  -11    2    1      1.53      0.00
  -10    2    1      5.53      0.00
   -9    2    1      3.35      0.00
   -8    2    1    -12.69      0.00
   -7    2    1      0.38      0.00
   -6    2    1    -30.77      0.00
   -5    2    1     -0.02      0.00
   -4    2    1     21.88      0.00
   -2    2    1     27.50      0.00
   -1    2    1      9.69      0.00
    0    2    1    -99.52      0.00
    1    2    1    -33.52      0.00
    2    2    1     70.56      0.00
    3    2    1    -40.64      0.00
    4    2    1     15.52      0.00
    5    2    1    -21.73      0.00
    6    2    1    -31.99      0.00
    7    2    1      9.45      0.00
    8    2    1      5.39      0.00
    9    2    1     -0.90      0.00
   10    2    1     11.72      0.00
   11    2    1     -6.74      0.00
   12    2    1     -4.02      0.00
   13    2    1      0.41      0.00
   14    2    1      1.61      0.00
   15    2    1      1.05      0.00
   16    2    1      0.11      0.00
  -16    3    1     -0.72      0.00
  -15    3    1      1.25      0.00
  -14    3    1     -0.90      0.00
  -13    3    1      3.68      0.00
  -12    3    1      5.20      0.00
  -11    3    1      2.90      0.00
  -10    3    1     -1.10      0.00
   -9    3    1     -0.01      0.00
   -8    3    1    -13.01      0.00
   -7    3    1      6.79      0.00
   -6    3    1     26.09      0.00
   -5    3    1     14.94      0.00
   -4    3    1     21.15      0.00
   -3    3    1     -8.20      0.00
   -2    3    1    -38.47      0.00
   -1    3    1     16.30      0.00
    0    3    1     18.07      0.00
    2    3    1    -24.78      0.00
    3    3    1    -15.39      0.00
    4    3    1    -30.42      0.00
    5    3    1     13.55      0.00
    6    3    1     16.12      0.00
    7    3    1      9.98      0.00
    8    3    1      3.56      0.00
    9    3    1     -6.97      0.00
   10    3    1     -7.07      0.00
   11    3    1     -4.29      0.00
   12    3    1     -0.40      0.00
   13    3    1     -1.02      0.00
   14    3    1      2.10      0.00
   15    3    1     -0.34      0.00
   16    3    1     -0.93      0.00
  -16    4    1     -0.53      0.00
  -15    4    1     -0.82      0.00
  -14    4    1      1.57      0.00
  -13    4    1     -0.69      0.00
  -12    4    1      1.08      0.00
  -11    4    1     -0.40      0.00
  -10    4    1     -4.65      0.00
   -9    4    1      6.60      0.00
   -8    4    1      6.46      0.00
   -7    4    1     -7.80      0.00
   -6    4    1     24.92      0.00
   -5    4    1     -8.97      0.00
   -4    4    1     19.81      0.00
   -3    4    1     10.55      0.00
   -2    4    1     14.94      0.00
   -1    4    1     15.68      0.00
    0    4    1    -20.94      0.00
    1    4    1      8.73      0.00
    2    4    1    -40.16      0.00
    3    4    1     -0.48      0.00
    4    4    1    -30.63      0.00
    5    4    1     -7.39      0.00
    6    4    1      7.93      0.00
    7    4    1      9.47      0.00
    8    4    1     -2.19      0.00
    9    4    1      9.44      0.00
   10    4    1      0.23      0.00
   11    4    1     -1.41      0.00
   12    4    1      3.37      0.00
   13    4    1     -0.65      0.00
   14    4    1      0.18      0.00
   15    4    1     -1.13      0.00
   16    4    1     -0.64      0.00
  -15    5    1     -0.86      0.00
  -14    5    1      0.41      0.00
  -13    5    1      0.66      0.00
  -12    5    1      0.60      0.00
  -11    5    1     -2.35      0.00
  -10    5    1     -2.85      0.00
   -9    5    1      4.83      0.00
   -8    5    1     -5.51      0.00
   -7    5    1      8.35      0.00
   -6    5    1     -3.05      0.00
   -5    5    1    -13.17      0.00
   -4    5    1      8.42      0.00
   -3    5    1     -7.28      0.00
   -2    5    1     10.67      0.00
   -1    5    1    -13.35      0.00
    0    5    1     52.18      0.00
    1    5    1    -20.07      0.00
    2    5    1     22.65      0.00
    3    5    1      7.46      0.00
    4    5    1     -9.55      0.00
    5    5    1      9.94      0.00
    6    5    1    -12.30      0.00
    7    5    1     -6.03      0.00
    8    5    1     -7.72      0.00
    9    5    1     -4.12      0.00
   10    5    1      0.76      0.00
   11    5    1      2.03      0.00
   12    5    1      2.06      0.00
   13    5    1      0.10      0.00
   14    5    1     -0.16      0.00
   15    5    1      0.50      0.00
  -15    6    1     -0.18      0.00
  -14    6    1     -0.81      0.00
  -13    6    1     -1.01      0.00
  -12    6    1      1.20      0.00
  -11    6    1     -2.71      0.00
  -10    6    1     -2.65      0.00
   -9    6    1      5.66      0.00
   -8    6    1      3.00      0.00
   -7    6    1      4.78      0.00
   -6    6    1     -1.44      0.00
   -5    6    1     -9.13      0.00
   -4    6    1    -35.39      0.00
   -3    6    1     11.87      0.00
   -2    6    1    -13.68      0.00
   -1    6    1     10.53      0.00
    0    6    1     51.49      0.00
    1    6    1    -16.81      0.00
    2    6    1     -5.65      0.00
    3    6    1     -8.91      0.00
    4    6    1    -17.97      0.00
    5    6    1      6.06      0.00
    6    6    1      4.30      0.00
    7    6    1     -5.04      0.00
    8    6    1     -2.53      0.00
    9    6    1      0.91      0.00
   10    6    1     -2.85      0.00
   11    6    1      1.68      0.00
   12    6    1      2.12      0.00
   13    6    1     -0.05      0.00
   14    6    1      0.69      0.00
   15    6    1     -2.36      0.00
  -15    7    1     -0.60      0.00
  -14    7    1      0.88      0.00
  -13    7    1     -0.60      0.00
  -12    7    1     -1.69      0.00
  -11    7    1      1.60      0.00
  -10    7    1      1.44      0.00
   -9    7    1      1.25      0.00
   -8    7    1      4.81      0.00
   -7    7    1    -10.03      0.00
   -6    7    1    -12.29      0.00
   -5    7    1     -3.09      0.00
   -4    7    1     15.36      0.00
   -3    7    1     22.02      0.00
   -2    7    1     34.59      0.00
   -1    7    1     -4.77      0.00
    0    7    1    -27.18      0.00
    1    7    1    -12.48      0.00
    2    7    1    -25.13      0.00
    3    7    1      4.89      0.00
    4    7    1     10.52      0.00
    5    7    1    -11.12      0.00
    6    7    1     -3.94      0.00
    7    7    1     -7.15      0.00
    8    7    1     -8.13      0.00
    9    7    1      2.49      0.00
   10    7    1     -1.57      0.00
   11    7    1     -1.35      0.00
   12    7    1     -2.66      0.00
   13    7    1     -1.83      0.00
   14    7    1      1.22      0.00
   15    7    1      0.67      0.00
  -14    8    1      0.80      0.00
  -13    8    1     -1.55      0.00
  -12    8    1      1.19      0.00
  -11    8    1      2.33      0.00
  -10    8    1      2.80      0.00
   -9    8    1     -1.83      0.00
   -8    8    1     -3.36      0.00
   -7    8    1      3.08      0.00
   -6    8    1     -1.28      0.00
   -5    8    1      0.47      0.00
   -4    8    1     18.33      0.00
   -3    8    1     -1.27      0.00
   -2    8    1     -7.14      0.00
   -1    8    1      6.22      0.00
    0    8    1    -13.07      0.00
    1    8    1      2.19      0.00
    2    8    1     13.82      0.00
    3    8    1    -18.51      0.00
    4    8    1     11.02      0.00
    5    8    1      1.35      0.00
    6    8    1     -6.80      0.00
    7    8    1      6.73      0.00
    8    8    1      4.74      0.00
    9    8    1      1.20      0.00
   10    8    1      0.95      0.00
   11    8    1     -1.42      0.00
   12    8    1     -1.60      0.00
   13    8    1     -0.57      0.00
   14    8    1     -1.08      0.00
  -14    9    1     -0.50      0.00
  -13    9    1     -0.78      0.00
  -12    9    1      2.72      0.00
  -11    9    1      0.10      0.00
  -10    9    1     -0.29      0.00
   -9    9    1     -1.84      0.00
   -8    9    1     -2.33      0.00
   -7    9    1     -0.74      0.00
   -6    9    1     -3.75      0.00
   -5    9    1      6.09      0.00
   -4    9    1      6.35      0.00
   -3    9    1      4.32      0.00
   -2    9    1     -0.57      0.00
   -1    9    1     -6.11      0.00
    0    9    1      9.91      0.00
    1    9    1     -9.58      0.00
    2    9    1      7.71      0.00
    3    9    1     -7.84      0.00
    4    9    1     -7.84      0.00
    5    9    1     -0.70      0.00
    6    9    1     -0.02      0.00
    7    9    1      3.98      0.00
    8    9    1      4.42      0.00
    9    9    1      1.44      0.00
   10    9    1     -0.88      0.00
   11    9    1      0.60      0.00
   12    9    1     -0.09      0.00
   13    9    1      1.73      0.00
   14    9    1     -0.64      0.00
  -13   10    1      0.14      0.00
  -12   10    1     -0.46      0.00
  -11   10    1      2.46      0.00
  -10   10    1     -0.66      0.00
   -9   10    1     -1.69      0.00
   -8   10    1      3.62      0.00
   -7   10    1     -3.17      0.00
   -6   10    1     -0.76      0.00
   -5   10    1      1.50      0.00
   -4   10    1     -3.08      0.00
   -3   10    1     -1.63      0.00
   -2   10    1     -4.92      0.00
   -1   10    1      1.72      0.00
    0   10    1     -4.19      0.00
    1   10    1     10.45      0.00
    2   10    1      3.57      0.00
    3   10    1     -5.15      0.00
    4   10    1      9.40      0.00
    5   10    1     -4.94      0.00
    6   10    1     -2.35      0.00
    7   10    1      1.81      0.00
    8   10    1      1.19      0.00
    9   10    1      1.41      0.00
   10   10    1      0.11      0.00
   11   10    1      0.32      0.00
   12   10    1     -0.23      0.00
   13   10    1      0.52      0.00
  -12   11    1      0.69      0.00
  -11   11    1      0.73      0.00
  -10   11    1     -0.90      0.00
   -9   11    1      1.40      0.00
   -8   11    1     -3.01      0.00
   -7   11    1      5.15      0.00
   -6   11    1      4.51      0.00
   -5   11    1     -2.47      0.00
   -4   11    1     -0.56      0.00
   -3   11    1     -6.67      0.00
   -2   11    1    -10.67      0.00
   -1   11    1      9.77      0.00
    0   11    1     -1.73      0.00
    1   11    1      2.16      0.00
    2   11    1     -2.04      0.00
    3   11    1    -10.44      0.00
    4   11    1     -6.05      0.00
    5   11    1      1.51      0.00
    6   11    1      2.86      0.00
    7   11    1      1.07      0.00
    8   11    1      0.35      0.00
    9   11    1     -4.47      0.00
   10   11    1     -2.27      0.00
   11   11    1      1.39      0.00
   12   11    1     -0.11      0.00
  -12   12    1      1.20      0.00
  -11   12    1     -0.32      0.00
  -10   12    1     -0.09      0.00
   -9   12    1      2.49      0.00
   -8   12    1     -0.20      0.00
   -7   12    1     -2.00      0.00
   -6   12    1      1.71      0.00
   -5   12    1     -5.71      0.00
   -4   12    1     -2.42      0.00
   -3   12    1      9.13      0.00
   -2   12    1      2.68      0.00
   -1   12    1      6.24      0.00
    0   12    1      5.19      0.00
    1   12    1     -6.49      0.00
    2   12    1     -7.55      0.00
    3   12    1      1.36      0.00
    4   12    1     -2.67      0.00
    5   12    1      1.79      0.00
    6   12    1      2.44      0.00
    7   12    1     -1.27      0.00
    8   12    1     -0.68      0.00
    9   12    1     -0.73      0.00
   10   12    1      0.17      0.00
   11   12    1     -0.08      0.00
   12   12    1      1.37      0.00
  -11   13    1      0.80      0.00
  -10   13    1     -0.56      0.00
   -9   13    1     -1.15      0.00
   -8   13    1      1.41      0.00
   -7   13    1     -1.56      0.00
   -6   13    1     -3.71      0.00
   -5   13    1      1.44      0.00
   -4   13    1     -0.11      0.00
   -3   13    1      1.53      0.00
   -2   13    1      5.64      0.00
   -1   13    1     -2.86      0.00
    0   13    1     -2.68      0.00
    1   13    1     -3.74      0.00
    2   13    1     -3.09      0.00
    3   13    1      3.51      0.00
    4   13    1      3.91      0.00
    5   13    1      1.15      0.00
    6   13    1      1.89      0.00
    7   13    1     -1.04      0.00
    8   13    1      0.55      0.00
    9   13    1      1.02      0.00
   10   13    1      1.85      0.00
   11   13    1      0.67      0.00
  -10   14    1     -0.44      0.00
   -9   14    1     -0.42      0.00
   -8   14    1     -2.44      0.00
   -7   14    1      0.07      0.00
   -6   14    1     -0.13      0.00
   -5   14    1     -1.35      0.00
   -4   14    1      2.74      0.00
   -3   14    1      1.44      0.00
   -2   14    1     -2.71      0.00
   -1   14    1      3.93      0.00
    0   14    1     -4.40      0.00
    1   14    1     -0.68      0.00
    2   14    1      0.51      0.00
    3   14    1     -0.62      0.00
    4   14    1      0.78      0.00
    5   14    1     -0.67      0.00
    6   14    1     -1.80      0.00
    7   14    1     -1.36      0.00
    8   14    1      0.79      0.00
    9   14    1      1.77      0.00
   10   14    1      0.27      0.00
   -8   15    1     -0.83      0.00
   -7   15    1     -1.72      0.00
   -6   15    1     -0.20      0.00
   -5   15    1      0.89      0.00
   -4   15    1     -0.79      0.00
   -3   15    1      1.74      0.00
   -2   15    1     -0.84      0.00
   -1   15    1     -2.90      0.00
    0   15    1      0.23      0.00
    1   15    1     -0.33      0.00
    2   15    1      0.34      0.00
    3   15    1      3.55      0.00
    4   15    1     -1.01      0.00
    5   15    1     -0.57      0.00
    6   15    1     -0.31      0.00
    7   15    1     -0.88      0.00
    8   15    1      0.21      0.00
   -7   16    1     -0.24      0.00
   -6   16    1      0.01      0.00
   -5   16    1      2.10      0.00
   -4   16    1      1.47      0.00
   -3   16    1     -1.65      0.00
   -2   16    1      0.95      0.00
   -1   16    1     -1.75      0.00
    0   16    1      0.23      0.00
    1   16    1      2.29      0.00
    2   16    1     -0.08      0.00
    3   16    1     -1.14      0.00
    4   16    1     -0.44      0.00
    5   16    1     -1.69      0.00
    6   16    1     -0.10      0.00
   -4   17    1     -0.56      0.00
   -3   17    1      0.47      0.00
   -2   17    1      0.55      0.00
   -1   17    1      2.07      0.00
    0   17    1      0.76      0.00
    1   17    1      0.18      0.00
    2   17    1      0.18      0.00
    3   17    1      0.23      0.00
    4   17    1     -0.79      0.00
  -16    0    2      0.37      0.00
  -14    0    2     -1.49      0.00
  -12    0    2      5.30      0.00
  -10    0    2      3.14      0.00
   -8    0    2      2.02      0.00
   -6    0    2     -6.70      0.00
   -4    0    2     65.84      0.00
   -2    0    2     -7.93      0.00
    4    0    2    -23.82      0.00
    6    0    2    -29.66      0.00
    8    0    2      5.07      0.00
   10    0    2      7.60      0.00
   12    0    2     -0.35      0.00
   14    0    2      0.83      0.00
   16    0    2      0.72      0.00
  -16    1    2      0.50      0.00
  -15    1    2      0.47      0.00
  -14    1    2     -2.46      0.00
  -13    1    2     -0.75      0.00
  -12    1    2      3.82      0.00
  -11    1    2      0.95      0.00
  -10    1    2     -7.85      0.00
   -9    1    2     -9.01      0.00
   -8    1    2     -4.83      0.00
   -7    1    2      3.40      0.00
   -6    1    2      2.87      0.00
   -5    1    2     27.76      0.00
   -4    1    2    -25.99      0.00
   -2    1    2    -73.75      0.00
   -1    1    2    -33.85      0.00
    1    1    2    -22.08      0.00
    2    1    2     36.69      0.00
    4    1    2    -24.31      0.00
    5    1    2     -9.50      0.00
    6    1    2      7.63      0.00
    7    1    2      8.06      0.00
    8    1    2     -6.62      0.00
    9    1    2     -2.25      0.00
   10    1    2     -5.55      0.00
   11    1    2      0.10      0.00
   12    1    2      4.47      0.00
   13    1    2      2.16      0.00
   14    1    2     -0.26      0.00
   15    1    2     -0.33      0.00
   16    1    2      0.13      0.00
  -16    2    2      1.77      0.00
  -15    2    2      0.85      0.00
  -14    2    2     -0.61      0.00
  -13    2    2      0.87      0.00
  -12    2    2      0.95      0.00
  -11    2    2     -5.85      0.00
  -10    2    2      2.72      0.00
   -9    2    2     -3.26      0.00
   -8    2    2     13.90      0.00
   -7    2    2     -6.67      0.00
   -6    2    2    -10.40      0.00
   -5    2    2    -22.71      0.00
   -4    2    2    -17.47      0.00
   -3    2    2    -14.28      0.00
   -2    2    2     13.08      0.00
   -1    2    2     -7.59      0.00
    0    2    2    -12.57      0.00
    1    2    2      2.52      0.00
    2    2    2    -37.76      0.00
    3    2    2     21.11      0.00
    4    2    2    -24.38      0.00
    5    2    2     -5.31      0.00
    6    2    2    -10.17      0.00
    7    2    2    -11.12      0.00
    8    2    2     -0.62      0.00
    9    2    2      0.93      0.00
   10    2    2     -8.31      0.00
   11    2    2     -0.63      0.00
   12    2    2     -1.03      0.00
   13    2    2      1.45      0.00
   14    2    2     -1.17      0.00
   15    2    2     -0.92      0.00
   16    2    2      1.19      0.00
  -16    3    2      1.18      0.00
  -15    3    2      0.57      0.00
  -14    3    2     -0.34      0.00
  -13    3    2      0.93      0.00
  -12    3    2      4.80      0.00
  -11    3    2     -0.26      0.00
  -10    3    2     -1.31      0.00
   -9    3    2     -0.89      0.00
   -8    3    2      0.64      0.00
   -7    3    2      7.53      0.00
   -6    3    2     18.14      0.00
   -5    3    2     -6.08      0.00
   -4    3    2     35.79      0.00
   -3    3    2     11.79      0.00
   -2    3    2    -10.62      0.00
   -1    3    2     -7.61      0.00
    0    3    2     43.66      0.00
    1    3    2    -44.65      0.00
    2    3    2    -31.35      0.00
    3    3    2      1.65      0.00
    4    3    2    -14.42      0.00
    5    3    2     22.29      0.00
    6    3    2     19.44      0.00
    7    3    2    -13.98      0.00
    8    3    2      5.88      0.00
    9    3    2     -7.96      0.00
   10    3    2     -7.49      0.00
   11    3    2      2.48      0.00
   12    3    2     -2.07      0.00
   13    3    2     -2.40      0.00
   14    3    2     -0.08      0.00
   15    3    2      0.06      0.00
   16    3    2     -0.11      0.00
  -16    4    2     -0.37      0.00
  -15    4    2      0.79      0.00
  -14    4    2     -0.48      0.00
  -13    4    2     -1.18      0.00
  -12    4    2      0.77      0.00
  -11    4    2      2.26      0.00
  -10    4    2     -3.40      0.00
   -9    4    2      1.40      0.00
   -8    4    2      4.98      0.00
   -7    4    2     -1.14      0.00
   -6    4    2     -5.36      0.00
   -5    4    2      8.98      0.00
   -4    4    2    -16.35      0.00
   -3    4    2     29.93      0.00
   -2    4    2     28.78      0.00
   -1    4    2     -7.94      0.00
    0    4    2     39.84      0.00
    1    4    2    -29.10      0.00
    2    4    2    -35.20      0.00
    3    4    2    -27.31      0.00
    4    4    2     -2.69      0.00
    5    4    2     -0.26      0.00
    6    4    2     21.42      0.00
    7    4    2      1.06      0.00
    8    4    2      8.09      0.00
    9    4    2      5.41      0.00
   10    4    2      0.80      0.00
   11    4    2      1.51      0.00
   12    4    2      2.36      0.00
   13    4    2      0.12      0.00
   14    4    2     -1.23      0.00
   15    4    2     -0.76      0.00
  -15    5    2     -0.57      0.00
  -14    5    2      0.04      0.00
  -13    5    2      1.13      0.00
  -12    5    2     -3.98      0.00
  -11    5    2      2.60      0.00
  -10    5    2      6.03      0.00
   -9    5    2     -6.47      0.00
   -8    5    2      7.08      0.00
   -7    5    2     -2.42      0.00
   -6    5    2    -24.08      0.00
   -5    5    2     18.60      0.00
   -4    5    2     -4.04      0.00
   -3    5    2     23.60      0.00
   -2    5    2      6.94      0.00
   -1    5    2    -21.46      0.00
    0    5    2    -64.88      0.00
    1    5    2    -24.12      0.00
    2    5    2      4.10      0.00
    3    5    2     17.16      0.00
    4    5    2     29.99      0.00
    5    5    2      1.38      0.00
    6    5    2    -11.90      0.00
    7    5    2     -5.07      0.00
    8    5    2     -2.28      0.00
    9    5    2     -1.09      0.00
   10    5    2      7.41      0.00
   11    5    2      4.19      0.00
   12    5    2     -1.90      0.00
   13    5    2     -0.36      0.00
   14    5    2     -0.53      0.00
   15    5    2      1.14      0.00
  -15    6    2      1.50      0.00
  -14    6    2     -1.45      0.00
  -13    6    2     -1.50      0.00
  -12    6    2      1.25      0.00
  -11    6    2      1.01      0.00
  -10    6    2      1.86      0.00
   -9    6    2     -3.69      0.00
   -8    6    2     -2.83      0.00
   -7    6    2      0.54      0.00
   -6    6    2     10.31      0.00
   -5    6    2    -13.64      0.00
   -4    6    2     24.68      0.00
   -3    6    2    -34.90      0.00
   -2    6    2    -11.91      0.00
   -1    6    2     -8.58      0.00
    0    6    2    -14.57      0.00
    1    6    2     29.38      0.00
    2    6    2     -5.47      0.00
    3    6    2      2.51      0.00
    4    6    2     -7.99      0.00
    5    6    2     -8.27      0.00
    6    6    2     -5.17      0.00
    7    6    2     -6.82      0.00
    8    6    2      7.51      0.00
    9    6    2      0.27      0.00
   10    6    2      0.28      0.00
   11    6    2      2.06      0.00
   12    6    2      0.22      0.00
   13    6    2      2.07      0.00
   14    6    2      0.40      0.00
   15    6    2     -0.74      0.00
  -15    7    2      1.00      0.00
  -14    7    2      0.96      0.00
  -13    7    2     -0.24      0.00
  -12    7    2      0.65      0.00
  -11    7    2      3.29      0.00
  -10    7    2     -1.97      0.00
   -9    7    2      2.64      0.00
   -8    7    2     -3.07      0.00
   -7    7    2     -1.49      0.00
   -6    7    2     -5.46      0.00
   -5    7    2     11.33      0.00
   -4    7    2     -1.76      0.00
   -3    7    2      2.98      0.00
   -2    7    2      6.15      0.00
   -1    7    2     -9.90      0.00
    0    7    2     -0.54      0.00
    1    7    2     -7.72      0.00
    2    7    2     -0.75      0.00
    3    7    2     -4.05      0.00
    4    7    2     -5.06      0.00
    5    7    2    -13.40      0.00
    6    7    2     -2.94      0.00
    7    7    2      0.69      0.00
    8    7    2     -3.76      0.00
    9    7    2     -3.03      0.00
   10    7    2     -2.12      0.00
   11    7    2     -5.51      0.00
   12    7    2     -0.48      0.00
   13    7    2     -0.07      0.00
   14    7    2     -0.52      0.00
   15    7    2      1.67      0.00
  -14    8    2     -1.25      0.00
  -13    8    2      1.69      0.00
  -12    8    2     -0.91      0.00
  -11    8    2      0.86      0.00
  -10    8    2      2.34      0.00
   -9    8    2     -3.30      0.00
   -8    8    2     -2.76      0.00
   -7    8    2      4.45      0.00
   -6    8    2     -1.77      0.00
   -5    8    2     15.65      0.00
   -4    8    2      3.38      0.00
   -3    8    2      1.84      0.00
   -2    8    2      5.29      0.00
   -1    8    2      3.70      0.00
    0    8    2     -0.39      0.00
    1    8    2      1.73      0.00
    2    8    2     -3.40      0.00
    3    8    2     -6.68      0.00
    4    8    2      0.27      0.00
    5    8    2      4.32      0.00
    6    8    2     -1.23      0.00
    7    8    2      8.52      0.00
    8    8    2      1.86      0.00
    9    8    2     -1.26      0.00
   10    8    2     -0.14      0.00
   11    8    2     -2.20      0.00
   12    8    2     -1.64      0.00
   13    8    2     -0.19      0.00
   14    8    2     -0.71      0.00
  -14    9    2     -0.32      0.00
  -13    9    2      1.74      0.00
  -12    9    2      0.55      0.00
  -11    9    2     -0.46      0.00
  -10    9    2     -1.30      0.00
   -9    9    2      0.08      0.00
   -8    9    2     -6.28      0.00
   -7    9    2     -0.67      0.00
   -6    9    2      7.07      0.00
   -5    9    2     -2.40      0.00
   -4    9    2     -2.17      0.00
   -3    9    2      4.05      0.00
   -2    9    2     -7.52      0.00
   -1    9    2     12.65      0.00
    0    9    2      7.25      0.00
    1    9    2     -0.20      0.00
    2    9    2     -9.35      0.00
    3    9    2     -2.92      0.00
    4    9    2    -12.28      0.00
    5    9    2      7.12      0.00
    6    9    2     11.20      0.00
    7    9    2      0.17      0.00
    8    9    2      2.44      0.00
    9    9    2     -2.53      0.00
   10    9    2     -2.28      0.00
   11    9    2      1.49      0.00
   12    9    2      1.62      0.00
   13    9    2      0.86      0.00
   14    9    2      0.59      0.00
  -13   10    2      0.32      0.00
  -12   10    2     -0.31      0.00
  -11   10    2     -0.25      0.00
  -10   10    2     -1.71      0.00
   -9   10    2      3.09      0.00
   -8   10    2      0.34      0.00
   -7   10    2      0.05      0.00
   -6   10    2      1.21      0.00
   -5   10    2     -4.84      0.00
   -4   10    2     -1.92      0.00
   -3   10    2      2.15      0.00
   -2   10    2      7.39      0.00
   -1   10    2     -5.17      0.00
    0   10    2     -5.32      0.00
    1   10    2     -6.30      0.00
    2   10    2    -14.20      0.00
    3   10    2     11.22      0.00
    4   10    2      5.78      0.00
    5   10    2     -0.56      0.00
    6   10    2      6.92      0.00
    7   10    2     -1.80      0.00
    8   10    2     -4.71      0.00
    9   10    2      2.02      0.00
   10   10    2      2.22      0.00
   11   10    2      1.18      0.00
   12   10    2      0.79      0.00
   13   10    2     -1.25      0.00
  -12   11    2      0.05      0.00
  -11   11    2     -2.13      0.00
  -10   11    2      2.79      0.00
   -9   11    2     -3.08      0.00
   -8   11    2      2.58      0.00
   -7   11    2      2.43      0.00
   -6   11    2     -3.70      0.00
   -5   11    2      6.84      0.00
   -4   11    2     -2.02      0.00
   -3   11    2     -2.51      0.00
   -2   11    2      0.50      0.00
   -1   11    2     -5.36      0.00
    0   11    2     -4.90      0.00
    1   11    2     -7.42      0.00
    2   11    2      5.39      0.00
    3   11    2      0.83      0.00
    4   11    2      4.26      0.00
    5   11    2      3.97      0.00
    6   11    2     -4.11      0.00
    7   11    2     -0.46      0.00
    8   11    2     -2.88      0.00
    9   11    2     -0.49      0.00
   10   11    2      2.49      0.00
   11   11    2     -0.24      0.00
   12   11    2      0.69      0.00
  -12   12    2     -0.43      0.00
  -11   12    2      0.36      0.00
  -10   12    2      1.58      0.00
   -9   12    2      2.46      0.00
   -8   12    2     -1.54      0.00
   -7   12    2      0.39      0.00
   -6   12    2     -0.26      0.00
   -5   12    2      0.66      0.00
   -4   12    2      1.27      0.00
   -3   12    2      3.10      0.00
   -2   12    2     -1.00      0.00
   -1   12    2     -0.79      0.00
    0   12    2      0.38      0.00
    1   12    2     -1.48      0.00
    2   12    2      3.30      0.00
    3   12    2      2.11      0.00
    4   12    2     -3.14      0.00
    5   12    2     -3.20      0.00
    6   12    2      0.56      0.00
    7   12    2     -2.25      0.00
    8   12    2      1.31      0.00
    9   12    2      1.72      0.00
   10   12    2     -1.29      0.00
   11   12    2      0.78      0.00
   12   12    2     -0.86      0.00
  -11   13    2     -0.06      0.00
  -10   13    2     -0.32      0.00
   -9   13    2     -0.41      0.00
   -8   13    2      0.69      0.00
   -7   13    2     -3.44      0.00
   -6   13    2     -0.31      0.00
   -5   13    2      2.45      0.00
   -4   13    2     -0.03      0.00
   -3   13    2      3.62      0.00
   -2   13    2      2.55      0.00
   -1   13    2     -2.56      0.00
    0   13    2     -4.46      0.00
    1   13    2      2.78      0.00
    2   13    2     -1.67      0.00
    3   13    2      1.75      0.00
    4   13    2      2.83      0.00
    5   13    2     -1.76      0.00
    6   13    2      0.54      0.00
    7   13    2      1.74      0.00
    8   13    2      0.98      0.00
    9   13    2      2.77      0.00
   10   13    2      0.40      0.00
   11   13    2     -0.12      0.00
  -10   14    2      0.06      0.00
   -9   14    2     -2.75      0.00
   -8   14    2     -1.87      0.00
   -7   14    2      0.04      0.00
   -6   14    2     -0.41      0.00
   -5   14    2      1.79      0.00
   -4   14    2      2.57      0.00
   -3   14    2     -5.42      0.00
   -2   14    2     -0.20      0.00
   -1   14    2     -2.60      0.00
    0   14    2     -0.15      0.00
    1   14    2      2.91      0.00
    2   14    2      0.27      0.00
    3   14    2     -3.44      0.00
    4   14    2     -2.68      0.00
    5   14    2     -1.27      0.00
    6   14    2     -0.99      0.00
    7   14    2      1.95      0.00
    8   14    2      0.90      0.00
    9   14    2     -0.01      0.00
   -8   15    2     -1.13      0.00
   -7   15    2     -0.60      0.00
   -6   15    2      2.49      0.00
   -5   15    2     -1.35      0.00
   -4   15    2     -2.10      0.00
   -3   15    2      0.59      0.00
   -2   15    2     -1.07      0.00
   -1   15    2      0.20      0.00
    0   15    2      1.71      0.00
    1   15    2     -2.21      0.00
    2   15    2     -0.89      0.00
    3   15    2     -1.20      0.00
    4   15    2     -1.23      0.00
    5   15    2      1.31      0.00
    6   15    2      1.86      0.00
    7   15    2      0.48      0.00
    8   15    2     -0.94      0.00
   -6   16    2     -0.15      0.00
   -5   16    2      0.25      0.00
   -4   16    2     -0.45      0.00
   -3   16    2      0.40      0.00
   -2   16    2      1.25      0.00
   -1   16    2     -0.58      0.00
    0   16    2     -0.28      0.00
    1   16    2      1.66      0.00
    2   16    2     -2.41      0.00
    3   16    2      1.90      0.00
    4   16    2      0.34      0.00
    5   16    2     -0.48      0.00
    6   16    2      1.36      0.00
   -4   17    2      1.48      0.00
   -3   17    2      0.38      0.00
   -2   17    2      1.75      0.00
   -1   17    2      0.75      0.00
    0   17    2     -0.39      0.00
    1   17    2     -0.16      0.00
    2   17    2      1.94      0.00
    3   17    2     -0.26      0.00
    4   17    2      2.01      0.00
  -15    0    3     -2.70      0.00
  -13    0    3      5.37      0.00
  -11    0    3     -2.42      0.00
   -9    0    3      5.02      0.00
   -7    0    3      0.42      0.00
   -5    0    3    -23.99      0.00
   -3    0    3    -30.64      0.00
    3    0    3    -55.60      0.00
    5    0    3     13.36      0.00
    7    0    3      4.49      0.00
    9    0    3      3.38      0.00
   11    0    3      2.90      0.00
   13    0    3      0.68      0.00
   15    0    3      1.07      0.00
  -16    1    3     -0.79      0.00
  -15    1    3     -0.08      0.00
  -14    1    3      0.65      0.00
  -13    1    3     -0.68      0.00
  -12    1    3      0.51      0.00
  -11    1    3      0.76      0.00
  -10    1    3     -7.00      0.00
   -9    1    3      0.33      0.00
   -8    1    3    -10.28      0.00
   -7    1    3      6.74      0.00
   -6    1    3     21.56      0.00
   -5    1    3     -9.58      0.00
   -4    1    3     14.36      0.00
   -3    1    3     -6.26      0.00
   -2    1    3    -46.01      0.00
   -1    1    3    -31.76      0.00
    1    1    3    -55.10      0.00
    2    1    3    -38.89      0.00
    3    1    3     -0.51      0.00
    4    1    3    -33.57      0.00
    5    1    3      6.91      0.00
    6    1    3     10.99      0.00
    7    1    3    -21.25      0.00
    8    1    3     -0.68      0.00
    9    1    3    -11.16      0.00
   10    1    3     -0.62      0.00
   11    1    3      8.22      0.00
   12    1    3      3.56      0.00
   13    1    3     -1.13      0.00
   14    1    3      2.32      0.00
   15    1    3     -0.02      0.00
   16    1    3     -0.51      0.00
  -16    2    3     -0.24      0.00
  -15    2    3      1.23      0.00
  -14    2    3      3.27      0.00
  -13    2    3      0.17      0.00
  -12    2    3     -3.90      0.00
  -11    2    3      1.48      0.00
  -10    2    3     -2.30      0.00
   -9    2    3     11.19      0.00
   -8    2    3      2.78      0.00
   -7    2    3      1.81      0.00
   -6    2    3    -11.91      0.00
   -5    2    3    -12.36      0.00
   -4    2    3    -43.22      0.00
   -3    2    3    -36.96      0.00
   -2    2    3     29.46      0.00
    0    2    3      5.29      0.00
    2    2    3    -14.17      0.00
    3    2    3      1.90      0.00
    4    2    3     11.20      0.00
    5    2    3    -12.95      0.00
    6    2    3    -15.26      0.00
    7    2    3    -12.59      0.00
    8    2    3    -12.71      0.00
    9    2    3     -5.22      0.00
   10    2    3     -1.00      0.00
   11    2    3     -4.82      0.00
   12    2    3      1.82      0.00
   13    2    3     -1.33      0.00
   14    2    3      0.25      0.00
   15    2    3     -0.85      0.00
   16    2    3      0.82      0.00
  -16    3    3      0.26      0.00
  -15    3    3     -0.04      0.00
  -14    3    3      2.75      0.00
  -13    3    3     -0.62      0.00
  -12    3    3     -2.44      0.00
  -11    3    3      0.70      0.00
  -10    3    3      3.24      0.00
   -9    3    3      2.37      0.00
   -8    3    3      0.20      0.00
   -7    3    3      6.57      0.00
   -6    3    3     -8.21      0.00
   -5    3    3     22.79      0.00
   -4    3    3      8.17      0.00
   -3    3    3     27.30      0.00
   -2    3    3    -18.68      0.00
   -1    3    3     17.34      0.00
    0    3    3    -70.86      0.00
    1    3    3    -26.57      0.00
    2    3    3     45.48      0.00
    3    3    3     -6.22      0.00
    4    3    3     43.41      0.00
    5    3    3     10.93      0.00
    6    3    3    -23.48      0.00
    7    3    3      5.80      0.00
    8    3    3    -14.30      0.00
    9    3    3     -0.27      0.00
   10    3    3      5.95      0.00
   11    3    3     -1.41      0.00
   12    3    3     -4.37      0.00
   13    3    3     -3.54      0.00
   14    3    3     -0.44      0.00
   15    3    3      0.86      0.00
   16    3    3     -1.78      0.00
  -16    4    3      0.83      0.00
  -15    4    3      0.51      0.00
  -14    4    3     -0.96      0.00
  -13    4    3     -2.02      0.00
  -12    4    3      1.71      0.00
  -11    4    3      2.02      0.00
  -10    4    3     -0.16      0.00
   -9    4    3     -2.38      0.00
   -8    4    3    -10.85      0.00
   -7    4    3    -13.20      0.00
   -6    4    3     -0.75      0.00
   -5    4    3      6.89      0.00
   -4    4    3      0.73      0.00
   -3    4    3     19.09      0.00
   -2    4    3    -12.45      0.00
   -1    4    3      5.56      0.00
    0    4    3     30.96      0.00
    1    4    3     20.68      0.00
    2    4    3     11.61      0.00
    3    4    3     -8.90      0.00
    4    4    3    -20.70      0.00
    5    4    3     -6.64      0.00
    6    4    3      1.96      0.00
    7    4    3     16.67      0.00
    8    4    3     10.08      0.00
    9    4    3     10.59      0.00
   10    4    3      0.51      0.00
   11    4    3     -1.43      0.00
   12    4    3     -1.76      0.00
   13    4    3      1.95      0.00
   14    4    3     -0.24      0.00
   15    4    3      0.26      0.00
  -15    5    3     -2.04      0.00
  -14    5    3      0.84      0.00
  -13    5    3      0.48      0.00
  -12    5    3      1.52      0.00
  -11    5    3     -0.18      0.00
  -10    5    3     -1.40      0.00
   -9    5    3      0.93      0.00
   -8    5    3     -4.10      0.00
   -7    5    3     -8.36      0.00
   -6    5    3      4.21      0.00
   -5    5    3     -2.77      0.00
   -4    5    3      8.60      0.00
   -3    5    3    -26.06      0.00
   -2    5    3     -1.72      0.00
   -1    5    3    -23.21      0.00
    0    5    3    -45.30      0.00
    1    5    3     -1.64      0.00
    2    5    3    -13.16      0.00
    3    5    3     10.32      0.00
    4    5    3     12.05      0.00
    5    5    3     -7.77      0.00
    6    5    3      8.72      0.00
    7    5    3     13.25      0.00
    8    5    3     -0.51      0.00
    9    5    3      5.38      0.00
   10    5    3      1.18      0.00
   11    5    3     -2.57      0.00
   12    5    3      1.52      0.00
   13    5    3      0.02      0.00
   14    5    3     -0.09      0.00
   15    5    3      0.13      0.00
  -15    6    3     -1.13      0.00
  -14    6    3      0.06      0.00
  -13    6    3      2.28      0.00
  -12    6    3      0.36      0.00
  -11    6    3     -2.94      0.00
  -10    6    3     -0.78      0.00
   -9    6    3     -1.61      0.00
   -8    6    3     -9.01      0.00
   -7    6    3     13.73      0.00
   -6    6    3      3.50      0.00
   -5    6    3     14.00      0.00
   -4    6    3     -6.23      0.00
   -3    6    3     -1.85      0.00
   -2    6    3    -37.33      0.00
   -1    6    3     -4.32      0.00
    0    6    3     -8.65      0.00
    1    6    3    -16.36      0.00
    2    6    3     11.41      0.00
    3    6    3    -19.92      0.00
    4    6    3      1.67      0.00
    5    6    3      1.98      0.00
    6    6    3     -4.03      0.00
    7    6    3      4.32      0.00
    8    6    3     -1.68      0.00
    9    6    3     -0.13      0.00
   10    6    3      1.19      0.00
   11    6    3      1.39      0.00
   12    6    3      3.36      0.00
   13    6    3      2.05      0.00
   14    6    3      0.53      0.00
   15    6    3     -0.19      0.00
  -15    7    3      1.22      0.00
  -14    7    3      2.47      0.00
  -13    7    3      0.88      0.00
  -12    7    3      1.72      0.00
  -11    7    3     -2.55      0.00
  -10    7    3     -1.45      0.00
   -9    7    3      0.65      0.00
   -8    7    3      5.84      0.00
   -7    7    3     -3.64      0.00
   -6    7    3     19.08      0.00
   -5    7    3     -5.77      0.00
   -4    7    3    -20.04      0.00
   -3    7    3      6.78      0.00
   -2    7    3    -33.82      0.00
   -1    7    3      9.56      0.00
    0    7    3      6.08      0.00
    1    7    3     -1.87      0.00
    2    7    3      0.04      0.00
    3    7    3     -2.71      0.00
    4    7    3     -3.29      0.00
    5    7    3      3.19      0.00
    6    7    3      5.44      0.00
    7    7    3     -5.44      0.00
    8    7    3     -6.84      0.00
    9    7    3     -3.55      0.00
   10    7    3     -5.94      0.00
   11    7    3     -0.16      0.00
   12    7    3      1.29      0.00
   13    7    3      0.75      0.00
   14    7    3      0.32      0.00
  -14    8    3      0.12      0.00
  -13    8    3      0.97      0.00
  -12    8    3     -1.92      0.00
  -11    8    3     -1.30      0.00
  -10    8    3     -0.96      0.00
   -9    8    3      0.30      0.00
   -8    8    3      8.30      0.00
   -7    8    3      0.20      0.00
   -6    8    3      4.11      0.00
   -5    8    3     -4.10      0.00
   -4    8    3      3.62      0.00
   -3    8    3      0.13      0.00
   -2    8    3     19.36      0.00
   -1    8    3      1.56      0.00
    0    8    3     -8.02      0.00
    1    8    3     -0.34      0.00
    2    8    3    -14.06      0.00
    3    8    3      9.31      0.00
    4    8    3     10.75      0.00
    5    8    3      0.56      0.00
    6    8    3      4.78      0.00
    7    8    3     -3.86      0.00
    8    8    3     -1.04      0.00
    9    8    3     -0.75      0.00
   10    8    3      2.29      0.00
   11    8    3      1.56      0.00
   12    8    3     -2.41      0.00
   13    8    3     -1.58      0.00
   14    8    3     -0.02      0.00
  -14    9    3     -0.41      0.00
  -13    9    3     -0.05      0.00
  -12    9    3      0.76      0.00
  -11    9    3     -1.99      0.00
  -10    9    3      1.46      0.00
   -9    9    3     -0.56      0.00
   -8    9    3     -2.88      0.00
   -7    9    3     -2.82      0.00
   -6    9    3     -4.67      0.00
   -5    9    3     -6.90      0.00
   -4    9    3      9.33      0.00
   -3    9    3     -2.60      0.00
   -2    9    3      3.73      0.00
   -1    9    3      9.80      0.00
    0    9    3     -4.36      0.00
    1    9    3      3.80      0.00
    2    9    3     10.10      0.00
    3    9    3     -4.96      0.00
    4    9    3      4.78      0.00
    5    9    3      4.32      0.00
    6    9    3     -3.65      0.00
    7    9    3     -2.12      0.00
    8    9    3      1.06      0.00
    9    9    3      0.19      0.00
   10    9    3      1.00      0.00
   11    9    3      0.19      0.00
   12    9    3     -0.23      0.00
   13    9    3     -0.11      0.00
   14    9    3      1.11      0.00
  -13   10    3     -0.95      0.00
  -12   10    3      0.69      0.00
  -11   10    3      0.19      0.00
  -10   10    3      0.82      0.00
   -9   10    3      0.80      0.00
   -8   10    3      1.99      0.00
   -7   10    3     -4.44      0.00
   -6   10    3     -1.03      0.00
   -5   10    3      2.91      0.00
   -4   10    3     -4.54      0.00
   -3   10    3      8.86      0.00
   -2   10    3     -4.44      0.00
   -1   10    3    -10.28      0.00
    0   10    3     -1.12      0.00
    1   10    3     -9.33      0.00
    2   10    3      5.85      0.00
    3   10    3      2.17      0.00
    4   10    3     -4.21      0.00
    5   10    3      0.45      0.00
    6   10    3     -1.96      0.00
    7   10    3      1.32      0.00
    8   10    3      1.89      0.00
    9   10    3      2.38      0.00
   10   10    3     -0.24      0.00
   11   10    3     -0.59      0.00
   12   10    3     -0.49      0.00
   13   10    3     -0.26      0.00
  -12   11    3     -0.78      0.00
  -11   11    3      1.93      0.00
  -10   11    3     -2.49      0.00
   -9   11    3     -2.11      0.00
   -8   11    3      1.30      0.00
   -7   11    3     -2.22      0.00
   -6   11    3      4.20      0.00
   -5   11    3      4.51      0.00
   -4   11    3      5.13      0.00
   -3   11    3     -3.37      0.00
   -2   11    3      0.86      0.00
   -1   11    3     -6.99      0.00
    0   11    3     -9.60      0.00
    1   11    3      6.98      0.00
    2   11    3     -2.09      0.00
    3   11    3      4.00      0.00
    4   11    3      7.58      0.00
    5   11    3      0.25      0.00
    6   11    3     -2.32      0.00
    7   11    3      0.07      0.00
    8   11    3      0.88      0.00
    9   11    3      0.38      0.00
   10   11    3      0.80      0.00
   11   11    3     -0.77      0.00
   12   11    3     -0.97      0.00
  -12   12    3      0.74      0.00
  -11   12    3      0.17      0.00
  -10   12    3      0.47      0.00
   -9   12    3      0.32      0.00
   -8   12    3     -1.25      0.00
   -7   12    3      3.47      0.00
   -6   12    3      4.96      0.00
   -5   12    3     -1.07      0.00
   -4   12    3      5.56      0.00
   -3   12    3     -9.06      0.00
   -2   12    3     -5.84      0.00
   -1   12    3     -2.80      0.00
    0   12    3      2.99      0.00
    1   12    3      6.84      0.00
    2   12    3      3.95      0.00
    3   12    3     -0.16      0.00
    4   12    3     -4.54      0.00
    5   12    3      1.41      0.00
    6   12    3     -0.49      0.00
    7   12    3      1.45      0.00
    8   12    3      2.80      0.00
    9   12    3     -2.20      0.00
   10   12    3     -1.43      0.00
   11   12    3     -1.51      0.00
  -11   13    3     -0.77      0.00
  -10   13    3     -1.51      0.00
   -9   13    3      1.32      0.00
   -8   13    3      0.68      0.00
   -7   13    3      0.09      0.00
   -6   13    3      4.81      0.00
   -5   13    3     -1.30      0.00
   -4   13    3     -2.86      0.00
   -3   13    3      2.21      0.00
   -2   13    3      2.39      0.00
   -1   13    3     -0.41      0.00
    0   13    3      5.79      0.00
    1   13    3     -2.83      0.00
    2   13    3     -3.39      0.00
    3   13    3     -0.94      0.00
    4   13    3      0.01      0.00
    5   13    3      2.13      0.00
    6   13    3      2.86      0.00
    7   13    3      2.13      0.00
    8   13    3     -1.42      0.00
    9   13    3      0.06      0.00
   10   13    3     -0.56      0.00
  -10   14    3     -0.83      0.00
   -9   14    3     -1.53      0.00
   -8   14    3      1.11      0.00
   -7   14    3      0.15      0.00
   -6   14    3     -2.79      0.00
   -5   14    3      1.02      0.00
   -4   14    3     -2.13      0.00
   -3   14    3     -0.91      0.00
   -2   14    3      0.50      0.00
   -1   14    3      0.72      0.00
    0   14    3      0.66      0.00
    1   14    3     -1.01      0.00
    2   14    3     -1.79      0.00
    3   14    3     -1.43      0.00
    4   14    3      1.20      0.00
    5   14    3      0.29      0.00
    6   14    3     -1.33      0.00
    7   14    3     -0.44      0.00
    8   14    3     -0.87      0.00
    9   14    3     -0.43      0.00
   -8   15    3     -0.22      0.00
   -7   15    3      0.48      0.00
   -6   15    3     -0.59      0.00
   -5   15    3     -2.03      0.00
   -4   15    3      1.86      0.00
   -3   15    3     -0.81      0.00
   -2   15    3     -1.03      0.00
   -1   15    3      1.40      0.00
    0   15    3     -2.51      0.00
    1   15    3     -2.18      0.00
    2   15    3     -0.15      0.00
    3   15    3     -1.49      0.00
    4   15    3      0.27      0.00
    5   15    3      1.36      0.00
    6   15    3     -1.05      0.00
    7   15    3     -1.60      0.00
    8   15    3     -0.17      0.00
   -6   16    3     -1.12      0.00
   -5   16    3      0.19      0.00
   -4   16    3     -0.65      0.00
   -3   16    3      2.02      0.00
   -2   16    3      0.06      0.00
   -1   16    3     -1.70      0.00
    0   16    3      0.62      0.00
    1   16    3     -1.88      0.00
    2   16    3      2.32      0.00
    3   16    3      1.08      0.00
    4   16    3      1.12      0.00
    5   16    3      0.24      0.00
    6   16    3     -0.76      0.00
   -4   17    3      1.43      0.00
   -3   17    3      0.09      0.00
   -2   17    3     -1.05      0.00
   -1   17    3     -0.47      0.00
    0   17    3     -0.86      0.00
    1   17    3      3.12      0.00
    2   17    3      1.88      0.00
    3   17    3      0.76      0.00
    4   17    3      1.41      0.00
  -16    0    4     -0.22      0.00
  -14    0    4     -0.73      0.00
  -12    0    4     -1.39      0.00
  -10    0    4      2.66      0.00
   -8    0    4      5.42      0.00
   -6    0    4    -52.79      0.00
   -2    0    4     -8.38      0.00
    0    0    4    -10.49      0.00
    4    0    4      5.58      0.00
    6    0    4      1.93      0.00
    8    0    4     11.80      0.00
   10    0    4      6.48      0.00
   12    0    4     -1.32      0.00
   16    0    4      1.81      0.00
  -16    1    4     -0.71      0.00
  -15    1    4      1.71      0.00
  -14    1    4     -1.47      0.00
  -13    1    4     -2.81      0.00
  -12    1    4      2.84      0.00
  -11    1    4     -0.87      0.00
  -10    1    4      5.89      0.00
   -9    1    4     -5.29      0.00
   -8    1    4     -1.33      0.00
   -7    1    4     -7.41      0.00
   -6    1    4     -1.31      0.00
   -5    1    4      0.95      0.00
   -4    1    4     16.74      0.00
   -3    1    4      2.05      0.00
   -2    1    4    -14.80      0.00
   -1    1    4    -37.07      0.00
    0    1    4    -85.22      0.00
    1    1    4    -46.44      0.00
    2    1    4    -40.60      0.00
    3    1    4      4.41      0.00
    4    1    4    -14.32      0.00
    5    1    4     -6.58      0.00
    6    1    4    -16.89      0.00
    7    1    4     -7.64      0.00
    8    1    4     -3.85      0.00
    9    1    4      3.59      0.00
   10    1    4      1.28      0.00
   11    1    4      7.02      0.00
   12    1    4      0.46      0.00
   13    1    4      0.55      0.00
   14    1    4      0.32      0.00
   15    1    4      0.51      0.00
   16    1    4     -0.80      0.00
  -16    2    4      1.02      0.00
  -15    2    4      0.46      0.00
  -14    2    4      0.30      0.00
  -13    2    4     -0.84      0.00
  -12    2    4      2.17      0.00
  -11    2    4      3.82      0.00
  -10    2    4      2.66      0.00
   -9    2    4      0.46      0.00
   -8    2    4      6.55      0.00
   -7    2    4    -14.17      0.00
   -6    2    4      9.31      0.00
   -5    2    4     11.96      0.00
   -4    2    4    -27.83      0.00
   -3    2    4     15.38      0.00
   -2    2    4    -58.74      0.00
   -1    2    4    -14.25      0.00
    1    2    4     29.61      0.00
    3    2    4      1.30      0.00
    4    2    4      1.66      0.00
    5    2    4    -45.17      0.00
    6    2    4     -0.13      0.00
    7    2    4     -4.86      0.00
    8    2    4     -5.72      0.00
    9    2    4      5.24      0.00
   10    2    4    -10.55      0.00
   11    2    4     -7.88      0.00
   12    2    4      0.04      0.00
   13    2    4      3.81      0.00
   14    2    4     -1.86      0.00
   15    2    4      0.87      0.00
   16    2    4      0.02      0.00
  -16    3    4      0.43      0.00
  -15    3    4     -0.64      0.00
  -14    3    4     -1.08      0.00
  -13    3    4      4.45      0.00
  -12    3    4     -1.81      0.00
  -11    3    4     -3.78      0.00
  -10    3    4     -0.52      0.00
   -9    3    4     -4.87      0.00
   -8    3    4      5.16      0.00
   -7    3    4     14.11      0.00
   -6    3    4     13.26      0.00
   -5    3    4     12.79      0.00
   -4    3    4     18.18      0.00
   -3    3    4    -47.81      0.00
   -2    3    4      5.42      0.00
   -1    3    4    -26.45      0.00
    0    3    4    -20.06      0.00
    1    3    4     37.94      0.00
    2    3    4     -8.60      0.00
    3    3    4     28.25      0.00
    4    3    4     19.88      0.00
    5    3    4      1.17      0.00
    6    3    4      9.26      0.00
    7    3    4     -6.03      0.00
    8    3    4      0.86      0.00
    9    3    4     -6.71      0.00
   10    3    4     -0.22      0.00
   11    3    4     -2.62      0.00
   12    3    4     -1.70      0.00
   13    3    4      0.89      0.00
   14    3    4     -1.75      0.00
   15    3    4     -0.97      0.00
  -16    4    4      0.10      0.00
  -15    4    4      0.63      0.00
  -14    4    4     -1.01      0.00
  -13    4    4      0.81      0.00
  -12    4    4     -0.45      0.00
  -11    4    4     -3.56      0.00
  -10    4    4     -1.04      0.00
   -9    4    4     -5.06      0.00
   -8    4    4    -10.73      0.00
   -7    4    4      2.96      0.00
   -6    4    4      0.26      0.00
   -5    4    4    -21.61      0.00
   -4    4    4      9.35      0.00
   -3    4    4    -13.94      0.00
   -2    4    4     -2.92      0.00
   -1    4    4     18.46      0.00
    0    4    4     34.47      0.00
    1    4    4     41.85      0.00
    2    4    4      6.20      0.00
    3    4    4     15.45      0.00
    4    4    4    -24.97      0.00
    5    4    4      6.94      0.00
    6    4    4     11.30      0.00
    7    4    4     -2.75      0.00
    8    4    4     13.31      0.00
    9    4    4     -0.76      0.00
   10    4    4      0.93      0.00
   11    4    4      1.74      0.00
   12    4    4      0.88      0.00
   13    4    4     -0.48      0.00
   14    4    4      1.50      0.00
   15    4    4     -0.46      0.00
  -15    5    4      0.43      0.00
  -14    5    4      0.00      0.00
  -13    5    4     -0.37      0.00
  -12    5    4     -1.02      0.00
  -11    5    4     -0.72      0.00
  -10    5    4     -2.54      0.00
   -9    5    4     -0.75      0.00
   -8    5    4      4.06      0.00
   -7    5    4     -4.24      0.00
   -6    5    4     -3.50      0.00
   -5    5    4    -14.38      0.00
   -4    5    4    -31.69      0.00
   -3    5    4    -22.06      0.00
   -2    5    4      0.74      0.00
   -1    5    4     -4.81      0.00
    0    5    4      9.58      0.00
    1    5    4      9.77      0.00
    2    5    4    -14.78      0.00
    3    5    4     -1.35      0.00
    4    5    4      5.17      0.00
    5    5    4      2.93      0.00
    6    5    4     15.98      0.00
    7    5    4      3.53      0.00
    8    5    4      3.54      0.00
    9    5    4      2.68      0.00
   10    5    4     -1.91      0.00
   11    5    4      0.27      0.00
   12    5    4      1.67      0.00
   13    5    4     -1.30      0.00
   14    5    4     -0.42      0.00
   15    5    4      0.04      0.00
  -15    6    4     -0.07      0.00
  -14    6    4     -0.38      0.00
  -13    6    4      0.31      0.00
  -12    6    4     -2.89      0.00
  -11    6    4      0.54      0.00
  -10    6    4      0.68      0.00
   -9    6    4     -4.33      0.00
   -8    6    4      9.76      0.00
   -7    6    4      1.94      0.00
   -6    6    4     -3.91      0.00
   -5    6    4     -7.51      0.00
   -4    6    4      1.77      0.00
   -3    6    4     -4.86      0.00
   -2    6    4     15.65      0.00
   -1    6    4      2.61      0.00
    0    6    4    -25.26      0.00
    1    6    4    -19.00      0.00
    2    6    4    -12.88      0.00
    3    6    4    -10.12      0.00
    4    6    4      7.15      0.00
    5    6    4      9.28      0.00
    6    6    4     -8.33      0.00
    7    6    4     -0.73      0.00
    8    6    4     -1.38      0.00
    9    6    4     -4.45      0.00
   10    6    4      6.92      0.00
   11    6    4      5.16      0.00
   12    6    4     -0.37      0.00
   13    6    4     -0.03      0.00
   14    6    4      0.59      0.00
   15    6    4      0.25      0.00
  -15    7    4      2.09      0.00
  -14    7    4     -0.56      0.00
  -13    7    4     -0.11      0.00
  -12    7    4      0.44      0.00
  -11    7    4     -0.29      0.00
  -10    7    4      0.97      0.00
   -9    7    4      5.48      0.00
   -8    7    4     -5.10      0.00
   -7    7    4      6.59      0.00
   -6    7    4     -3.81      0.00
   -5    7    4     -1.50      0.00
   -4    7    4     15.94      0.00
   -3    7    4    -21.47      0.00
   -2    7    4     10.63      0.00
   -1    7    4    -29.79      0.00
    0    7    4     -0.42      0.00
    1    7    4     -2.73      0.00
    2    7    4      7.98      0.00
    3    7    4     20.60      0.00
    4    7    4     -5.26      0.00
    5    7    4     12.47      0.00
    6    7    4     -4.46      0.00
    7    7    4    -10.57      0.00
    8    7    4      1.72      0.00
    9    7    4     -3.50      0.00
   10    7    4     -1.68      0.00
   11    7    4      1.04      0.00
   12    7    4     -0.88      0.00
   13    7    4      1.06      0.00
   14    7    4      1.05      0.00
  -14    8    4      1.38      0.00
  -13    8    4     -2.26      0.00
  -12    8    4     -0.75      0.00
  -11    8    4      0.79      0.00
  -10    8    4     -2.17      0.00
   -9    8    4      0.99      0.00
   -8    8    4      2.94      0.00
   -7    8    4      3.06      0.00
   -6    8    4     -1.62      0.00
   -5    8    4     13.66      0.00
   -4    8    4     -7.88      0.00
   -3    8    4      3.29      0.00
   -2    8    4      0.85      0.00
   -1    8    4    -15.53      0.00
    0    8    4      1.35      0.00
    1    8    4     -0.86      0.00
    2    8    4      7.16      0.00
    3    8    4      8.71      0.00
    4    8    4      3.62      0.00
    5    8    4     -3.59      0.00
    6    8    4     -2.23      0.00
    7    8    4      5.47      0.00
    8    8    4     -0.96      0.00
    9    8    4      4.58      0.00
   10    8    4      0.08      0.00
   11    8    4     -2.11      0.00
   12    8    4      1.22      0.00
   13    8    4     -1.49      0.00
   14    8    4     -0.14      0.00
  -14    9    4     -0.07      0.00
  -13    9    4     -0.76      0.00
  -12    9    4     -0.61      0.00
  -11    9    4      0.37      0.00
  -10    9    4      1.08      0.00
   -9    9    4     -4.63      0.00
   -8    9    4     -2.94      0.00
   -7    9    4     -0.63      0.00
   -6    9    4     -5.58      0.00
   -5    9    4      3.11      0.00
   -4    9    4     -1.64      0.00
   -3    9    4     -4.86      0.00
   -2    9    4      0.13      0.00
   -1    9    4      1.03      0.00
    0    9    4      7.30      0.00
    1    9    4     10.77      0.00
    2    9    4     11.41      0.00
    3    9    4     -0.40      0.00
    4    9    4      3.04      0.00
    5    9    4     -1.40      0.00
    6    9    4     -6.81      0.00
    7    9    4      2.90      0.00
    8    9    4     -1.56      0.00
    9    9    4      1.23      0.00
   10    9    4      0.43      0.00
   11    9    4     -0.78      0.00
   12    9    4     -0.43      0.00
   13    9    4      0.60      0.00
  -13   10    4     -1.25      0.00
  -12   10    4     -0.17      0.00
  -11   10    4      0.86      0.00
  -10   10    4      0.05      0.00
   -9   10    4      2.42      0.00
   -8   10    4     -2.04      0.00
   -7   10    4      1.92      0.00
   -6   10    4      3.62      0.00
   -5   10    4     -7.50      0.00
   -4   10    4     -1.99      0.00
   -3   10    4     -6.55      0.00
   -2   10    4     -9.09      0.00
   -1   10    4     -1.37      0.00
    0   10    4     11.39      0.00
    1   10    4      4.16      0.00
    2   10    4      1.00      0.00
    3   10    4     -1.98      0.00
    4   10    4    -13.16      0.00
    5   10    4     -5.66      0.00
    6   10    4      3.38      0.00
    7   10    4      0.03      0.00
    8   10    4      4.74      0.00
    9   10    4     -1.03      0.00
   10   10    4     -3.74      0.00
   11   10    4     -1.56      0.00
   12   10    4      1.23      0.00
   13   10    4      0.07      0.00
  -12   11    4      0.48      0.00
  -11   11    4      0.06      0.00
  -10   11    4     -1.88      0.00
   -9   11    4      0.74      0.00
   -8   11    4      0.08      0.00
   -7   11    4      3.28      0.00
   -6   11    4      0.55      0.00
   -5   11    4      3.18      0.00
   -4   11    4     -4.55      0.00
   -3   11    4      0.28      0.00
   -2   11    4      8.61      0.00
   -1   11    4      0.05      0.00
    0   11    4      4.72      0.00
    1   11    4     -1.98      0.00
    2   11    4     -8.77      0.00
    3   11    4      2.47      0.00
    4   11    4      5.77      0.00
    5   11    4     -1.68      0.00
    6   11    4      6.42      0.00
    7   11    4     -0.63      0.00
    8   11    4     -4.44      0.00
    9   11    4     -0.45      0.00
   10   11    4     -0.41      0.00
   11   11    4      0.81      0.00
   12   11    4      0.34      0.00
  -12   12    4      0.30      0.00
  -11   12    4     -1.07      0.00
  -10   12    4      2.45      0.00
   -9   12    4     -1.50      0.00
   -8   12    4      2.51      0.00
   -7   12    4      3.65      0.00
   -6   12    4     -3.17      0.00
   -5   12    4      2.15      0.00
   -4   12    4     -2.12      0.00
   -3   12    4      0.34      0.00
   -2   12    4     -6.08      0.00
   -1   12    4      5.97      0.00
    0   12    4     -3.46      0.00
    1   12    4     -2.19      0.00
    2   12    4      6.28      0.00
    3   12    4     -1.95      0.00
    4   12    4      8.52      0.00
    5   12    4      3.76      0.00
    6   12    4     -1.97      0.00
    7   12    4      0.67      0.00
    8   12    4     -2.40      0.00
    9   12    4     -0.80      0.00
   10   12    4     -0.69      0.00
   11   12    4      1.51      0.00
  -11   13    4     -0.59      0.00
  -10   13    4      0.07      0.00
   -9   13    4      1.54      0.00
   -8   13    4     -0.15      0.00
   -7   13    4      1.86      0.00
   -6   13    4      0.96      0.00
   -5   13    4     -0.67      0.00
   -4   13    4      0.72      0.00
   -3   13    4      3.60      0.00
   -2   13    4     -2.33      0.00
   -1   13    4      1.86      0.00
    0   13    4     -1.92      0.00
    1   13    4     -3.70      0.00
    2   13    4      0.71      0.00
    3   13    4      1.97      0.00
    4   13    4     -1.28      0.00
    5   13    4      1.22      0.00
    6   13    4      1.71      0.00
    7   13    4     -2.13      0.00
    8   13    4      0.61      0.00
    9   13    4     -1.28      0.00
   10   13    4      0.21      0.00
   -9   14    4      0.30      0.00
   -8   14    4      0.82      0.00
   -7   14    4     -1.20      0.00
   -6   14    4     -2.35      0.00
   -5   14    4      0.64      0.00
   -4   14    4     -0.20      0.00
   -3   14    4     -0.57      0.00
   -2   14    4      1.90      0.00
   -1   14    4      0.14      0.00
    0   14    4     -2.09      0.00
    1   14    4      1.88      0.00
    2   14    4      0.08      0.00
    3   14    4      1.53      0.00
    4   14    4      1.46      0.00
    5   14    4     -2.41      0.00
    6   14    4     -2.21      0.00
    7   14    4     -1.44      0.00
    8   14    4      0.27      0.00
    9   14    4      0.85      0.00
   -8   15    4     -1.15      0.00
   -7   15    4      1.18      0.00
   -6   15    4     -1.40      0.00
   -5   15    4      1.01      0.00
   -4   15    4      2.13      0.00
   -3   15    4     -1.61      0.00
   -2   15    4     -3.19      0.00
   -1   15    4     -0.99      0.00
    0   15    4     -1.25      0.00
    1   15    4      2.52      0.00
    2   15    4      2.30      0.00
    3   15    4     -1.38      0.00
    4   15    4     -2.51      0.00
    5   15    4     -2.16      0.00
    6   15    4     -1.92      0.00
    7   15    4     -0.24      0.00
    8   15    4     -0.65      0.00
   -6   16    4      1.51      0.00
   -5   16    4     -1.59      0.00
   -4   16    4     -0.83      0.00
   -3   16    4     -0.42      0.00
   -2   16    4     -1.30      0.00
   -1   16    4      1.82      0.00
    0   16    4      1.15      0.00
    1   16    4      0.07      0.00
    2   16    4      0.47      0.00
    3   16    4      0.32      0.00
    4   16    4     -2.34      0.00
    5   16    4     -0.79      0.00
    6   16    4      1.53      0.00
   -4   17    4     -1.18      0.00
   -3   17    4     -1.21      0.00
   -2   17    4      0.32      0.00
   -1   17    4     -0.88      0.00
    0   17    4      1.33      0.00
    1   17    4      1.47      0.00
    2   17    4     -0.40      0.00
    3   17    4      1.15      0.00
  -15    0    5     -1.36      0.00
  -13    0    5     -2.14      0.00
  -11    0    5      0.81      0.00
   -9    0    5     -2.45      0.00
   -7    0    5    -29.69      0.00
   -5    0    5    -44.30      0.00
   -3    0    5    -48.23      0.00
    1    0    5     83.28      0.00
    3    0    5     22.29      0.00
    5    0    5    -26.55      0.00
    7    0    5     21.97      0.00
    9    0    5     15.37      0.00
   11    0    5     -7.23      0.00
   13    0    5     -0.33      0.00
   15    0    5      0.88      0.00
  -16    1    5      0.28      0.00
  -15    1    5     -2.11      0.00
  -14    1    5      0.76      0.00
  -13    1    5      2.76      0.00
  -12    1    5     -2.38      0.00
  -11    1    5      2.35      0.00
  -10    1    5     -0.71      0.00
   -9    1    5      0.15      0.00
   -8    1    5    -14.18      0.00
   -7    1    5     12.12      0.00
   -6    1    5     -1.89      0.00
   -5    1    5    -12.42      0.00
   -4    1    5     -6.50      0.00
   -3    1    5    -35.34      0.00
   -2    1    5    -16.35      0.00
   -1    1    5     19.95      0.00
    1    1    5    -12.41      0.00
    3    1    5    -62.39      0.00
    4    1    5      2.95      0.00
    5    1    5    -14.56      0.00
    6    1    5     -6.99      0.00
    7    1    5      6.71      0.00
    8    1    5     -0.74      0.00
    9    1    5     -4.10      0.00
   10    1    5      6.02      0.00
   11    1    5      1.14      0.00
   12    1    5      1.98      0.00
   13    1    5     -0.44      0.00
   14    1    5      0.42      0.00
   15    1    5      0.82      0.00
   16    1    5     -0.64      0.00
  -16    2    5     -0.35      0.00
  -15    2    5     -0.45      0.00
  -14    2    5      0.70      0.00
  -13    2    5     -0.30      0.00
  -12    2    5      1.64      0.00
  -11    2    5      2.82      0.00
  -10    2    5      4.57      0.00
   -9    2    5      7.19      0.00
   -8    2    5      1.10      0.00
   -7    2    5      7.68      0.00
   -6    2    5      8.18      0.00
   -5    2    5     -7.13      0.00
   -4    2    5     10.08      0.00
   -3    2    5     -4.41      0.00
   -2    2    5      6.89      0.00
   -1    2    5     16.61      0.00
    0    2    5     21.28      0.00
    2    2    5      9.27      0.00
    3    2    5    -11.73      0.00
    4    2    5    -32.30      0.00
    5    2    5     14.77      0.00
    6    2    5     -5.41      0.00
    7    2    5      2.31      0.00
    8    2    5      1.44      0.00
    9    2    5     -6.78      0.00
   10    2    5     -2.82      0.00
   11    2    5     -3.89      0.00
   12    2    5     -0.82      0.00
   13    2    5     -0.27      0.00
   14    2    5      2.11      0.00
   15    2    5     -0.02      0.00
   16    2    5      1.17      0.00
  -16    3    5     -0.88      0.00
  -15    3    5     -0.87      0.00
  -14    3    5      0.73      0.00
  -13    3    5     -0.52      0.00
  -12    3    5     -1.21      0.00
  -11    3    5     -3.52      0.00
  -10    3    5     -2.22      0.00
   -9    3    5     -4.17      0.00
   -8    3    5     14.22      0.00
   -7    3    5     12.72      0.00
   -6    3    5      8.45      0.00
   -5    3    5     19.72      0.00
   -4    3    5    -13.48      0.00
   -3    3    5    -11.74      0.00
   -2    3    5     18.98      0.00
   -1    3    5     -0.10      0.00
    0    3    5     13.47      0.00
    1    3    5     -2.22      0.00
    2    3    5      6.74      0.00
    3    3    5    -12.07      0.00
    4    3    5     17.64      0.00
    5    3    5     28.88      0.00
    6    3    5     -1.29      0.00
    7    3    5     11.91      0.00
    8    3    5     -9.95      0.00
    9    3    5     -5.05      0.00
   10    3    5     -1.41      0.00
   11    3    5      0.70      0.00
   12    3    5      0.89      0.00
   13    3    5     -0.94      0.00
   14    3    5      0.29      0.00
   15    3    5     -0.53      0.00
  -15    4    5      0.68      0.00
  -14    4    5      0.36      0.00
  -13    4    5     -1.79      0.00
  -12    4    5     -0.91      0.00
  -11    4    5     -2.36      0.00
  -10    4    5     -1.54      0.00
   -9    4    5     -0.13      0.00
   -8    4    5      2.02      0.00
   -7    4    5     -3.83      0.00
   -6    4    5     -6.97      0.00
   -5    4    5    -24.35      0.00
   -4    4    5      2.78      0.00
   -3    4    5     10.85      0.00
   -2    4    5      4.64      0.00
   -1    4    5     41.13      0.00
    0    4    5    -13.11      0.00
    1    4    5    -15.14      0.00
    2    4    5     46.86      0.00
    3    4    5    -17.30      0.00
    4    4    5     28.62      0.00
    5    4    5     11.99      0.00
    6    4    5     -9.14      0.00
    7    4    5      3.12      0.00
    8    4    5     -7.17      0.00
    9    4    5     -1.90      0.00
   10    4    5      4.46      0.00
   11    4    5      6.61      0.00
   12    4    5     -0.29      0.00
   13    4    5     -0.57      0.00
   14    4    5      1.03      0.00
   15    4    5      0.42      0.00
  -15    5    5      0.33      0.00
  -14    5    5     -0.43      0.00
  -13    5    5     -2.69      0.00
  -12    5    5     -0.58      0.00
  -11    5    5      0.91      0.00
  -10    5    5     -1.45      0.00
   -9    5    5      7.70      0.00
   -8    5    5     -2.27      0.00
   -7    5    5    -13.61      0.00
   -6    5    5    -12.37      0.00
   -5    5    5     -2.30      0.00
   -4    5    5    -26.34      0.00
   -3    5    5     14.60      0.00
   -2    5    5    -16.76      0.00
   -1    5    5     -8.45      0.00
    0    5    5     21.99      0.00
    1    5    5    -11.62      0.00
    2    5    5     33.32      0.00
    3    5    5     18.91      0.00
    4    5    5     -2.78      0.00
    5    5    5      0.38      0.00
    6    5    5     -8.27      0.00
    7    5    5     -2.54      0.00
    8    5    5      5.16      0.00
    9    5    5      5.26      0.00
   10    5    5      1.22      0.00
   11    5    5     -0.69      0.00
   12    5    5     -1.81      0.00
   13    5    5      0.21      0.00
   14    5    5     -0.88      0.00
   15    5    5      0.31      0.00
  -15    6    5     -0.30      0.00
  -14    6    5     -0.23      0.00
  -13    6    5     -1.47      0.00
  -12    6    5      0.99      0.00
  -11    6    5      1.62      0.00
  -10    6    5      1.34      0.00
   -9    6    5      1.56      0.00
   -8    6    5      2.41      0.00
   -7    6    5     -2.81      0.00
   -6    6    5     -6.27      0.00
   -5    6    5      0.06      0.00
   -4    6    5     -7.56      0.00
   -3    6    5     -4.01      0.00
   -2    6    5     12.30      0.00
   -1    6    5      1.44      0.00
    0    6    5     15.66      0.00
    1    6    5      7.07      0.00
    2    6    5     -8.81      0.00
    3    6    5     -0.85      0.00
    4    6    5     -9.97      0.00
    5    6    5    -13.57      0.00
    6    6    5     -4.75      0.00
    7    6    5      1.83      0.00
    8    6    5     -0.30      0.00
    9    6    5      3.48      0.00
   10    6    5      1.08      0.00
   11    6    5     -1.14      0.00
   12    6    5      0.45      0.00
   13    6    5     -0.15      0.00
   14    6    5     -0.87      0.00
   15    6    5     -0.04      0.00
  -15    7    5     -0.99      0.00
  -14    7    5     -0.33      0.00
  -13    7    5      0.37      0.00
  -12    7    5      0.16      0.00
  -11    7    5      0.09      0.00
  -10    7    5      4.95      0.00
   -9    7    5     -0.43      0.00
   -8    7    5     -2.44      0.00
   -7    7    5     -2.65      0.00
   -6    7    5      4.07      0.00
   -5    7    5      3.12      0.00
   -4    7    5      3.35      0.00
   -3    7    5     17.99      0.00
   -2    7    5    -24.27      0.00
   -1    7    5      9.89      0.00
    0    7    5     -3.09      0.00
    1    7    5      2.05      0.00
    2    7    5     14.73      0.00
    3    7    5     -0.54      0.00
    4    7    5      4.93      0.00
    5    7    5     -1.21      0.00
    6    7    5      2.98      0.00
    7    7    5      0.19      0.00
    8    7    5     -0.32      0.00
    9    7    5      0.07      0.00
   10    7    5     -2.58      0.00
   11    7    5     -1.41      0.00
   12    7    5      0.65      0.00
   13    7    5      0.18      0.00
   14    7    5      0.34      0.00
  -14    8    5     -0.69      0.00
  -13    8    5     -1.28      0.00
  -12    8    5      0.72      0.00
  -11    8    5     -0.18      0.00
  -10    8    5     -5.26      0.00
   -9    8    5      0.25      0.00
   -8    8    5      2.55      0.00
   -7    8    5     -3.32      0.00
   -6    8    5     16.25      0.00
   -5    8    5     -7.19      0.00
   -4    8    5      1.45      0.00
   -3    8    5      2.56      0.00
   -2    8    5    -18.94      0.00
   -1    8    5      4.56      0.00
    0    8    5      7.00      0.00
    1    8    5      3.57      0.00
    2    8    5     -4.70      0.00
    3    8    5     -0.92      0.00
    4    8    5     -2.67      0.00
    5    8    5     -4.76      0.00
    6    8    5     13.24      0.00
    7    8    5      3.06      0.00
    8    8    5      3.82      0.00
    9    8    5      2.13      0.00
   10    8    5     -3.61      0.00
   11    8    5     -1.67      0.00
   12    8    5      1.54      0.00
   13    8    5      1.12      0.00
   14    8    5      0.12      0.00
  -14    9    5     -2.13      0.00
  -13    9    5      2.83      0.00
  -12    9    5     -1.13      0.00
  -11    9    5     -0.34      0.00
  -10    9    5     -3.34      0.00
   -9    9    5     -1.54      0.00
   -8    9    5      0.79      0.00
   -7    9    5      1.40      0.00
   -6    9    5     -3.55      0.00
   -5    9    5     -0.48      0.00
   -4    9    5     -8.63      0.00
   -3    9    5     -5.93      0.00
   -2    9    5      8.00      0.00
   -1    9    5      4.95      0.00
    0    9    5      3.36      0.00
    1    9    5      3.44      0.00
    2    9    5     -8.21      0.00
    3    9    5      1.37      0.00
    4    9    5      4.04      0.00
    5    9    5      3.40      0.00
    6    9    5      3.23      0.00
    7    9    5     -2.56      0.00
    8    9    5     -3.04      0.00
    9    9    5     -4.95      0.00
   10    9    5      4.10      0.00
   11    9    5      2.04      0.00
   12    9    5     -0.16      0.00
   13    9    5      0.63      0.00
  -13   10    5      0.56      0.00
  -12   10    5     -1.12      0.00
  -11   10    5     -1.69      0.00
  -10   10    5      2.45      0.00
   -9   10    5      2.76      0.00
   -8   10    5      0.23      0.00
   -7   10    5      4.01      0.00
   -6   10    5     -6.58      0.00
   -5   10    5     -9.33      0.00
   -4   10    5     -1.15      0.00
   -3   10    5     -3.50      0.00
   -2   10    5     -5.63      0.00
   -1   10    5     10.51      0.00
    0   10    5     -4.27      0.00
    1   10    5      2.71      0.00
    2   10    5      4.32      0.00
    3   10    5     -4.76      0.00
    4   10    5     -3.46      0.00
    5   10    5     -1.40      0.00
    6   10    5     -7.71      0.00
    7   10    5     -2.13      0.00
    8   10    5      0.83      0.00
    9   10    5     -0.98      0.00
   10   10    5     -0.13      0.00
   11   10    5      1.60      0.00
   12   10    5     -1.22      0.00
   13   10    5      0.88      0.00
  -12   11    5      1.07      0.00
  -11   11    5      0.39      0.00
  -10   11    5      0.82      0.00
   -9   11    5      1.44      0.00
   -8   11    5      4.35      0.00
   -7   11    5     -3.91      0.00
   -6   11    5      0.77      0.00
   -5   11    5     -2.42      0.00
   -4   11    5     -2.74      0.00
   -3   11    5      8.88      0.00
   -2   11    5      0.67      0.00
   -1   11    5      6.51      0.00
    0   11    5      1.73      0.00
    1   11    5     -2.61      0.00
    2   11    5      3.86      0.00
    3   11    5      1.05      0.00
    4   11    5     -2.73      0.00
    5   11    5      0.41      0.00
    6   11    5     -3.83      0.00
    7   11    5     -1.23      0.00
    8   11    5     -2.50      0.00
    9   11    5      0.12      0.00
   10   11    5      1.51      0.00
   11   11    5     -0.24      0.00
   12   11    5     -0.18      0.00
  -11   12    5      2.43      0.00
  -10   12    5     -0.70      0.00
   -9   12    5      1.03      0.00
   -8   12    5      1.22      0.00
   -7   12    5     -1.35      0.00
   -6   12    5     -3.20      0.00
   -5   12    5      0.91      0.00
   -4   12    5      4.61      0.00
   -3   12    5     -3.83      0.00
   -2   12    5      6.19      0.00
   -1   12    5     -1.10      0.00
    0   12    5     -3.60      0.00
    1   12    5      3.00      0.00
    2   12    5      0.85      0.00
    3   12    5      4.35      0.00
    4   12    5      4.76      0.00
    5   12    5      3.29      0.00
    6   12    5     -2.78      0.00
    7   12    5     -0.64      0.00
    8   12    5      0.86      0.00
    9   12    5     -0.08      0.00
   10   12    5      2.80      0.00
   11   12    5     -0.85      0.00
  -10   13    5      0.97      0.00
   -9   13    5     -0.07      0.00
   -8   13    5     -3.07      0.00
   -7   13    5      1.41      0.00
   -6   13    5      1.04      0.00
   -5   13    5      0.21      0.00
   -4   13    5      4.05      0.00
   -3   13    5     -0.20      0.00
   -2   13    5     -3.81      0.00
   -1   13    5     -4.44      0.00
    0   13    5     -0.14      0.00
    1   13    5     -0.02      0.00
    2   13    5      2.88      0.00
    3   13    5     -0.48      0.00
    4   13    5     -5.50      0.00
    5   13    5      0.53      0.00
    6   13    5      0.01      0.00
    7   13    5      0.89      0.00
    8   13    5      2.02      0.00
    9   13    5     -0.14      0.00
   10   13    5     -0.85      0.00
   -9   14    5     -0.94      0.00
   -8   14    5      0.86      0.00
   -7   14    5     -1.82      0.00
   -6   14    5      2.93      0.00
   -5   14    5     -0.62      0.00
   -4   14    5     -3.89      0.00
   -3   14    5      0.02      0.00
   -2   14    5      0.33      0.00
   -1   14    5     -0.03      0.00
    0   14    5      4.37      0.00
    1   14    5      0.92      0.00
    2   14    5     -2.10      0.00
    3   14    5     -1.12      0.00
    4   14    5     -2.48      0.00
    5   14    5     -2.10      0.00
    6   14    5      2.60      0.00
    7   14    5      0.81      0.00
    8   14    5      0.09      0.00
    9   14    5      1.79      0.00
   -8   15    5      1.07      0.00
   -7   15    5     -0.65      0.00
   -6   15    5      0.23      0.00
   -5   15    5     -0.15      0.00
   -4   15    5     -0.96      0.00
   -3   15    5     -1.51      0.00
   -2   15    5      0.55      0.00
   -1   15    5     -0.02      0.00
    0   15    5      1.83      0.00
    1   15    5      0.99      0.00
    2   15    5     -0.20      0.00
    3   15    5     -2.05      0.00
    4   15    5     -0.23      0.00
    5   15    5     -1.12      0.00
    6   15    5     -0.63      0.00
    7   15    5     -0.21      0.00
    8   15    5     -0.72      0.00
   -6   16    5      0.73      0.00
   -5   16    5     -1.40      0.00
   -4   16    5     -1.65      0.00
   -3   16    5      0.15      0.00
   -2   16    5      1.17      0.00
   -1   16    5      1.74      0.00
    0   16    5      0.81      0.00
    1   16    5     -0.74      0.00
    2   16    5     -1.31      0.00
    3   16    5     -0.05      0.00
    4   16    5     -0.55      0.00
    5   16    5      0.62      0.00
    6   16    5     -1.01      0.00
   -3   17    5      0.46      0.00
   -2   17    5      0.00      0.00
   -1   17    5     -0.91      0.00
    0   17    5      0.72      0.00
    1   17    5     -1.01      0.00
    2   17    5     -1.11      0.00
    3   17    5      0.95      0.00
  -16    0    6     -0.26      0.00
  -14    0    6     -1.21      0.00
  -12    0    6     -0.83      0.00
  -10    0    6     -5.28      0.00
   -8    0    6     -2.26      0.00
   -6    0    6    -20.52      0.00
   -4    0    6    -18.09      0.00
    2    0    6     19.28      0.00
    4    0    6     10.05      0.00
    6    0    6     17.95      0.00
    8    0    6      5.87      0.00
   10    0    6     -1.97      0.00
   12    0    6     -1.81      0.00
   14    0    6      0.16      0.00
  -16    1    6      0.69      0.00
  -15    1    6      0.57      0.00
  -14    1    6      0.49      0.00
  -13    1    6      1.89      0.00
  -12    1    6      0.22      0.00
  -11    1    6     -3.02      0.00
  -10    1    6      1.84      0.00
   -9    1    6    -12.33      0.00
   -8    1    6     11.58      0.00
   -7    1    6      1.87      0.00
   -6    1    6    -18.51      0.00
   -5    1    6     -9.46      0.00
   -4    1    6    -36.81      0.00
   -3    1    6    -23.60      0.00
   -2    1    6     13.55      0.00
   -1    1    6     37.62      0.00
    0    1    6     24.85      0.00
    1    1    6     23.11      0.00
    2    1    6     -7.73      0.00
    3    1    6    -15.32      0.00
    4    1    6     -8.11      0.00
    5    1    6     13.87      0.00
    6    1    6    -17.42      0.00
    7    1    6     -3.30      0.00
    8    1    6     -1.63      0.00
    9    1    6     -7.72      0.00
   10    1    6      3.81      0.00
   11    1    6      5.03      0.00
   12    1    6      1.07      0.00
   13    1    6      0.67      0.00
   14    1    6     -1.58      0.00
   15    1    6     -0.35      0.00
  -16    2    6     -0.26      0.00
  -15    2    6      2.29      0.00
  -14    2    6     -3.30      0.00
  -13    2    6      0.55      0.00
  -12    2    6      2.10      0.00
  -11    2    6      1.98      0.00
  -10    2    6      7.61      0.00
   -9    2    6     15.54      0.00
   -8    2    6      6.14      0.00
   -7    2    6     -0.02      0.00
   -6    2    6     -3.74      0.00
   -5    2    6    -18.63      0.00
   -4    2    6     19.93      0.00
   -3    2    6     18.31      0.00
   -2    2    6     43.24      0.00
   -1    2    6      6.98      0.00
    1    2    6    -16.98      0.00
    2    2    6      2.34      0.00
    3    2    6     24.45      0.00
    4    2    6     -2.78      0.00
    5    2    6     10.93      0.00
    6    2    6      4.71      0.00
    7    2    6    -15.98      0.00
    8    2    6      6.25      0.00
    9    2    6      0.01      0.00
   10    2    6     -1.75      0.00
   11    2    6      3.64      0.00
   12    2    6     -2.92      0.00
   13    2    6     -0.64      0.00
   14    2    6      0.46      0.00
   15    2    6     -0.85      0.00
  -16    3    6     -0.63      0.00
  -15    3    6     -0.61      0.00
  -14    3    6     -1.58      0.00
  -13    3    6     -2.95      0.00
  -12    3    6     -1.44      0.00
  -11    3    6      4.14      0.00
  -10    3    6     -6.23      0.00
   -9    3    6     10.14      0.00
   -8    3    6     -1.47      0.00
   -7    3    6     -7.95      0.00
   -6    3    6      8.82      0.00
   -5    3    6     17.31      0.00
   -4    3    6     19.83      0.00
   -3    3    6     41.08      0.00
   -2    3    6      9.99      0.00
   -1    3    6     -8.83      0.00
    0    3    6      4.11      0.00
    1    3    6      9.32      0.00
    2    3    6    -16.48      0.00
    3    3    6     32.61      0.00
    4    3    6      5.67      0.00
    5    3    6    -19.07      0.00
    6    3    6     20.22      0.00
    7    3    6     -7.80      0.00
    8    3    6      5.61      0.00
    9    3    6      9.75      0.00
   10    3    6     -1.20      0.00
   11    3    6     -2.42      0.00
   12    3    6      0.33      0.00
   13    3    6     -0.06      0.00
   14    3    6     -0.03      0.00
   15    3    6      0.85      0.00
  -15    4    6     -1.95      0.00
  -14    4    6     -0.31      0.00
  -13    4    6      1.56      0.00
  -12    4    6      0.27      0.00
  -11    4    6      1.40      0.00
  -10    4    6      0.87      0.00
   -9    4    6     -2.62      0.00
   -8    4    6    -11.26      0.00
   -7    4    6      8.00      0.00
   -6    4    6    -15.29      0.00
   -5    4    6     11.92      0.00
   -4    4    6      1.48      0.00
   -3    4    6      3.33      0.00
   -2    4    6     13.89      0.00
   -1    4    6    -13.26      0.00
    0    4    6      9.75      0.00
    1    4    6      7.64      0.00
    2    4    6    -22.13      0.00
    3    4    6     13.00      0.00
    4    4    6     -9.90      0.00
    5    4    6      1.93      0.00
    6    4    6      5.61      0.00
    7    4    6      1.54      0.00
    8    4    6      1.84      0.00
    9    4    6     -2.90      0.00
   10    4    6      0.75      0.00
   11    4    6     -1.51      0.00
   12    4    6      2.01      0.00
   13    4    6      2.06      0.00
   14    4    6     -0.05      0.00
   15    4    6      0.35      0.00
  -15    5    6     -0.01      0.00
  -14    5    6     -0.29      0.00
  -13    5    6     -0.05      0.00
  -12    5    6      1.02      0.00
  -11    5    6     -1.07      0.00
  -10    5    6      3.35      0.00
   -9    5    6     -1.36      0.00
   -8    5    6     -6.71      0.00
   -7    5    6     -3.82      0.00
   -6    5    6      7.32      0.00
   -5    5    6     -6.51      0.00
   -4    5    6     17.15      0.00
   -3    5    6      5.06      0.00
   -2    5    6    -10.15      0.00
   -1    5    6    -13.92      0.00
    0    5    6      4.52      0.00
    1    5    6      2.93      0.00
    2    5    6      0.61      0.00
    3    5    6     26.40      0.00
    4    5    6    -13.40      0.00
    5    5    6     -2.98      0.00
    6    5    6     -0.52      0.00
    7    5    6     -6.53      0.00
    8    5    6      3.27      0.00
    9    5    6      2.98      0.00
   10    5    6     -1.83      0.00
   11    5    6     -0.69      0.00
   12    5    6     -0.18      0.00
   13    5    6     -0.39      0.00
   14    5    6      1.42      0.00
   15    5    6      0.48      0.00
  -15    6    6      1.06      0.00
  -14    6    6     -0.25      0.00
  -13    6    6      0.58      0.00
  -12    6    6      1.43      0.00
  -11    6    6      3.97      0.00
  -10    6    6     -2.81      0.00
   -9    6    6     -0.02      0.00
   -8    6    6      2.44      0.00
   -7    6    6      6.78      0.00
   -6    6    6     -2.65      0.00
   -5    6    6     -3.37      0.00
   -4    6    6     -9.59      0.00
   -3    6    6    -16.81      0.00
   -2    6    6      7.79      0.00
   -1    6    6     19.21      0.00
    0    6    6     30.53      0.00
    1    6    6     37.24      0.00
    2    6    6    -13.27      0.00
    3    6    6    -10.42      0.00
    4    6    6     -6.01      0.00
    5    6    6    -19.89      0.00
    6    6    6      5.52      0.00
    7    6    6     -3.51      0.00
    8    6    6     -4.54      0.00
    9    6    6      2.41      0.00
   10    6    6     -5.16      0.00
   11    6    6     -1.56      0.00
   12    6    6      0.77      0.00
   13    6    6     -0.71      0.00
   14    6    6     -0.35      0.00
   15    6    6     -0.52      0.00
  -14    7    6      0.12      0.00
  -13    7    6      1.65      0.00
  -12    7    6     -1.07      0.00
  -11    7    6      0.40      0.00
  -10    7    6      2.73      0.00
   -9    7    6      2.07      0.00
   -8    7    6      1.81      0.00
   -7    7    6      7.07      0.00
   -6    7    6     -6.45      0.00
   -5    7    6     -2.90      0.00
   -4    7    6      3.08      0.00
   -3    7    6     -4.21      0.00
   -2    7    6     17.67      0.00
   -1    7    6     20.76      0.00
    0    7    6     -5.10      0.00
    1    7    6      7.26      0.00
    2    7    6      3.44      0.00
    3    7    6    -12.32      0.00
    4    7    6     12.87      0.00
    5    7    6     10.48      0.00
    6    7    6     -1.15      0.00
    7    7    6      4.98      0.00
    8    7    6     -5.42      0.00
    9    7    6     -6.27      0.00
   10    7    6      3.17      0.00
   11    7    6      1.59      0.00
   12    7    6     -0.67      0.00
   13    7    6     -0.40      0.00
   14    7    6     -0.46      0.00
  -14    8    6     -0.88      0.00
  -13    8    6     -1.45      0.00
  -12    8    6     -0.49      0.00
  -11    8    6     -3.04      0.00
  -10    8    6      1.32      0.00
   -9    8    6      0.55      0.00
   -8    8    6     -4.70      0.00
   -7    8    6      5.54      0.00
   -6    8    6    -14.55      0.00
   -5    8    6      2.58      0.00
   -4    8    6      3.42      0.00
   -3    8    6      7.36      0.00
   -2    8    6     12.90      0.00
   -1    8    6     -2.32      0.00
    0    8    6      0.39      0.00
    1    8    6    -13.66      0.00
    2    8    6     -1.24      0.00
    3    8    6      1.01      0.00
    4    8    6     -5.15      0.00
    5    8    6     11.66      0.00
    6    8    6     -2.67      0.00
    7    8    6      2.23      0.00
    8    8    6      5.92      0.00
    9    8    6      0.90      0.00
   10    8    6      0.29      0.00
   11    8    6      0.27      0.00
   12    8    6     -1.93      0.00
   13    8    6      1.26      0.00
   14    8    6     -0.27      0.00
  -13    9    6     -1.34      0.00
  -12    9    6      1.18      0.00
  -11    9    6      0.83      0.00
  -10    9    6      0.17      0.00
   -9    9    6     -4.00      0.00
   -8    9    6      2.29      0.00
   -7    9    6     -6.28      0.00
   -6    9    6     -1.97      0.00
   -5    9    6      1.12      0.00
   -4    9    6     -1.10      0.00
   -3    9    6      2.75      0.00
   -2    9    6      4.41      0.00
   -1    9    6     -2.34      0.00
    0    9    6    -10.01      0.00
    1    9    6     -3.71      0.00
    2    9    6     -6.51      0.00
    3    9    6     -3.53      0.00
    4    9    6      6.01      0.00
    5    9    6     -0.83      0.00
    6    9    6      1.13      0.00
    7    9    6      2.00      0.00
    8    9    6     -4.43      0.00
    9    9    6      1.82      0.00
   10    9    6      1.24      0.00
   11    9    6      1.31      0.00
   12    9    6      0.51      0.00
   13    9    6     -0.51      0.00
  -13   10    6     -1.09      0.00
  -12   10    6      0.21      0.00
  -11   10    6     -0.08      0.00
  -10   10    6      3.06      0.00
   -9   10    6     -1.60      0.00
   -8   10    6     -0.53      0.00
   -7   10    6     -2.22      0.00
   -6   10    6     -3.67      0.00
   -5   10    6      0.51      0.00
   -4   10    6      6.22      0.00
   -3   10    6     -3.91      0.00
   -2   10    6      1.41      0.00
   -1   10    6     -3.11      0.00
    0   10    6     -8.00      0.00
    1   10    6     -0.51      0.00
    2   10    6      4.61      0.00
    3   10    6     -3.49      0.00
    4   10    6      0.40      0.00
    5   10    6     -5.93      0.00
    6   10    6     -6.47      0.00
    7   10    6     -1.64      0.00
    8   10    6      1.26      0.00
    9   10    6      1.70      0.00
   10   10    6      1.63      0.00
   11   10    6      0.25      0.00
   12   10    6      0.35      0.00
   13   10    6     -0.78      0.00
  -12   11    6      0.38      0.00
  -11   11    6      0.65      0.00
  -10   11    6      1.13      0.00
   -9   11    6      2.85      0.00
   -8   11    6     -4.37      0.00
   -7   11    6      0.64      0.00
   -6   11    6      3.98      0.00
   -5   11    6     -2.51      0.00
   -4   11    6      0.52      0.00
   -3   11    6      1.71      0.00
   -2   11    6     -3.06      0.00
   -1   11    6     -3.72      0.00
    0   11    6      9.55      0.00
    1   11    6      5.71      0.00
    2   11    6      4.29      0.00
    3   11    6      3.01      0.00
    4   11    6     -8.68      0.00
    5   11    6     -6.13      0.00
    6   11    6     -0.65      0.00
    7   11    6     -4.00      0.00
    8   11    6      2.89      0.00
    9   11    6      1.02      0.00
   10   11    6     -2.58      0.00
   11   11    6     -0.53      0.00
   12   11    6      0.37      0.00
  -11   12    6      0.83      0.00
  -10   12    6      0.78      0.00
   -9   12    6     -1.56      0.00
   -8   12    6      2.08      0.00
   -7   12    6     -0.77      0.00
   -6   12    6      1.47      0.00
   -5   12    6      3.19      0.00
   -4   12    6     -5.98      0.00
   -3   12    6     -0.42      0.00
   -2   12    6      5.38      0.00
   -1   12    6      0.04      0.00
    0   12    6      7.54      0.00
    1   12    6      4.36      0.00
    2   12    6     -6.78      0.00
    3   12    6      1.58      0.00
    4   12    6      1.29      0.00
    5   12    6     -1.59      0.00
    6   12    6      7.01      0.00
    7   12    6      0.98      0.00
    8   12    6     -0.88      0.00
    9   12    6      0.75      0.00
   10   12    6     -0.84      0.00
   11   12    6      0.01      0.00
  -10   13    6      0.56      0.00
   -9   13    6     -1.65      0.00
   -8   13    6     -0.11      0.00
   -7   13    6     -1.07      0.00
   -6   13    6      0.14      0.00
   -5   13    6     -2.55      0.00
   -4   13    6      1.84      0.00
   -3   13    6      0.00      0.00
   -2   13    6     -0.72      0.00
   -1   13    6      3.06      0.00
    0   13    6     -3.14      0.00
    1   13    6     -1.38      0.00
    2   13    6     -2.38      0.00
    3   13    6     -4.72      0.00
    4   13    6      2.98      0.00
    5   13    6      0.40      0.00
    6   13    6      1.71      0.00
    7   13    6      1.52      0.00
    8   13    6     -0.33      0.00
    9   13    6     -0.91      0.00
   10   13    6     -1.63      0.00
   -9   14    6      1.95      0.00
   -8   14    6     -1.69      0.00
   -7   14    6     -0.11      0.00
   -6   14    6      1.16      0.00
   -5   14    6     -2.58      0.00
   -4   14    6     -2.32      0.00
   -3   14    6      1.44      0.00
   -2   14    6      1.41      0.00
   -1   14    6     -0.18      0.00
    0   14    6      1.14      0.00
    1   14    6     -3.04      0.00
    2   14    6     -3.64      0.00
    3   14    6     -0.30      0.00
    4   14    6     -1.86      0.00
    5   14    6      1.40      0.00
    6   14    6      1.79      0.00
    7   14    6      0.49      0.00
    8   14    6      0.18      0.00
    9   14    6      0.62      0.00
   -8   15    6      0.49      0.00
   -7   15    6      0.05      0.00
   -6   15    6     -2.93      0.00
   -5   15    6      0.24      0.00
   -4   15    6     -0.38      0.00
   -3   15    6      0.46      0.00
   -2   15    6      3.07      0.00
   -1   15    6     -0.61      0.00
    0   15    6     -1.76      0.00
    1   15    6      0.28      0.00
    2   15    6     -2.20      0.00
    3   15    6      1.86      0.00
    4   15    6      2.03      0.00
    5   15    6     -0.19      0.00
    6   15    6     -1.42      0.00
    7   15    6     -0.30      0.00
   -6   16    6     -1.54      0.00
   -5   16    6      0.25      0.00
   -4   16    6      1.48      0.00
   -3   16    6     -0.09      0.00
   -2   16    6      0.37      0.00
   -1   16    6     -0.28      0.00
    0   16    6     -1.33      0.00
    1   16    6      0.29      0.00
    2   16    6      2.76      0.00
    3   16    6      0.63      0.00
    4   16    6      0.55      0.00
    5   16    6     -1.16      0.00
    6   16    6     -2.45      0.00
   -3   17    6     -0.64      0.00
   -2   17    6     -0.85      0.00
   -1   17    6      0.07      0.00
    0   17    6     -0.19      0.00
    1   17    6     -0.28      0.00
    2   17    6      0.35      0.00
  -15    0    7     -0.02      0.00
  -13    0    7     -1.59      0.00
  -11    0    7     -0.75      0.00
   -9    0    7      7.58      0.00
   -7    0    7    -15.45      0.00
   -5    0    7     10.87      0.00
   -3    0    7     87.82      0.00
    1    0    7    -88.72      0.00
    3    0    7     23.64      0.00
    5    0    7     19.56      0.00
    7    0    7      1.88      0.00
    9    0    7      2.18      0.00
   11    0    7     -2.48      0.00
   13    0    7     -0.90      0.00
   15    0    7      0.21      0.00
  -16    1    7     -0.13      0.00
  -15    1    7      0.80      0.00
  -14    1    7      1.65      0.00
  -13    1    7      0.85      0.00
  -12    1    7      0.43      0.00
  -11    1    7      2.22      0.00
  -10    1    7     -7.50      0.00
   -9    1    7      1.75      0.00
   -8    1    7     -7.41      0.00
   -7    1    7    -11.39      0.00
   -6    1    7     -3.30      0.00
   -5    1    7     -1.79      0.00
   -4    1    7     11.17      0.00
   -3    1    7     -3.72      0.00
   -2    1    7     13.08      0.00
   -1    1    7    -15.73      0.00
    0    1    7     34.89      0.00
    1    1    7     19.09      0.00
    2    1    7      5.39      0.00
    3    1    7     27.41      0.00
    4    1    7      1.51      0.00
    5    1    7    -26.28      0.00
    6    1    7     -9.87      0.00
    7    1    7     -8.80      0.00
    8    1    7     -8.17      0.00
    9    1    7      7.18      0.00
   10    1    7     -0.44      0.00
   11    1    7      0.34      0.00
   12    1    7      1.50      0.00
   13    1    7     -0.34      0.00
   14    1    7     -0.50      0.00
   15    1    7      0.00      0.00
  -16    2    7      0.54      0.00
  -15    2    7     -1.50      0.00
  -14    2    7      2.13      0.00
  -13    2    7     -0.23      0.00
  -12    2    7      3.15      0.00
  -11    2    7      2.80      0.00
  -10    2    7      6.92      0.00
   -9    2    7      4.76      0.00
   -8    2    7     -6.30      0.00
   -7    2    7     10.07      0.00
   -6    2    7     -1.07      0.00
   -5    2    7      6.80      0.00
   -4    2    7     -6.30      0.00
   -3    2    7     22.45      0.00
   -2    2    7    -44.61      0.00
   -1    2    7     27.87      0.00
    0    2    7     13.91      0.00
    1    2    7     22.38      0.00
    2    2    7     33.54      0.00
    3    2    7      0.58      0.00
    4    2    7     12.54      0.00
    5    2    7      4.31      0.00
    6    2    7      0.20      0.00
    7    2    7      7.06      0.00
    8    2    7     -1.65      0.00
    9    2    7      1.86      0.00
   10    2    7     -1.03      0.00
   11    2    7     -1.18      0.00
   12    2    7     -0.02      0.00
   13    2    7     -0.11      0.00
   14    2    7     -0.70      0.00
   15    2    7     -0.37      0.00
  -16    3    7      0.16      0.00
  -15    3    7     -0.06      0.00
  -14    3    7     -0.04      0.00
  -13    3    7     -4.17      0.00
  -12    3    7      1.55      0.00
  -11    3    7     -2.23      0.00
  -10    3    7      1.81      0.00
   -9    3    7     -5.60      0.00
   -8    3    7      2.92      0.00
   -7    3    7     -7.54      0.00
   -6    3    7     12.92      0.00
   -5    3    7     16.44      0.00
   -4    3    7     13.42      0.00
   -3    3    7     37.25      0.00
   -2    3    7    -13.88      0.00
   -1    3    7      7.46      0.00
    0    3    7      6.47      0.00
    1    3    7    -11.44      0.00
    2    3    7     26.39      0.00
    3    3    7      1.56      0.00
    4    3    7     -3.80      0.00
    5    3    7     -2.45      0.00
    6    3    7     -4.07      0.00
    7    3    7     10.29      0.00
    8    3    7      2.59      0.00
    9    3    7      8.34      0.00
   10    3    7      2.68      0.00
   11    3    7     -0.68      0.00
   12    3    7     -0.39      0.00
   13    3    7     -0.43      0.00
   14    3    7      1.09      0.00
   15    3    7      1.30      0.00
  -15    4    7     -1.32      0.00
  -14    4    7     -0.75      0.00
  -13    4    7      3.41      0.00
  -12    4    7      0.43      0.00
  -11    4    7      1.83      0.00
  -10    4    7     -0.26      0.00
   -9    4    7    -15.37      0.00
   -8    4    7      9.96      0.00
   -7    4    7     -5.05      0.00
   -6    4    7      1.01      0.00
   -5    4    7      1.94      0.00
   -4    4    7     -7.13      0.00
   -3    4    7    -14.44      0.00
   -2    4    7      2.73      0.00
   -1    4    7     23.48      0.00
    0    4    7      0.77      0.00
    1    4    7      2.88      0.00
    2    4    7    -19.68      0.00
    3    4    7    -48.26      0.00
    4    4    7      0.85      0.00
    5    4    7      0.48      0.00
    6    4    7      4.73      0.00
    7    4    7     15.98      0.00
    8    4    7     -2.09      0.00
    9    4    7     -5.48      0.00
   10    4    7     -3.78      0.00
   11    4    7     -0.79      0.00
   12    4    7      0.95      0.00
   13    4    7      1.38      0.00
   14    4    7     -0.58      0.00
   15    4    7      0.06      0.00
  -15    5    7     -0.60      0.00
  -14    5    7      0.22      0.00
  -13    5    7      2.94      0.00
  -12    5    7     -0.12      0.00
  -11    5    7     -2.36      0.00
  -10    5    7     -0.29      0.00
   -9    5    7      2.24      0.00
   -8    5    7     -2.65      0.00
   -7    5    7      5.42      0.00
   -6    5    7      5.49      0.00
   -5    5    7      0.96      0.00
   -4    5    7     22.92      0.00
   -3    5    7      6.52      0.00
   -2    5    7      8.45      0.00
   -1    5    7     21.04      0.00
    0    5    7    -46.44      0.00
    1    5    7    -22.65      0.00
    2    5    7     -7.85      0.00
    3    5    7    -27.30      0.00
    4    5    7     13.91      0.00
    5    5    7      6.00      0.00
    6    5    7     -2.70      0.00
    7    5    7     -1.10      0.00
    8    5    7     -1.35      0.00
    9    5    7     -6.47      0.00
   10    5    7      1.14      0.00
   11    5    7      3.51      0.00
   12    5    7     -0.34      0.00
   13    5    7      0.96      0.00
   14    5    7      0.18      0.00
   15    5    7     -0.53      0.00
  -15    6    7      2.14      0.00
  -14    6    7      1.97      0.00
  -13    6    7     -1.30      0.00
  -12    6    7      1.72      0.00
  -11    6    7      0.93      0.00
  -10    6    7      1.27      0.00
   -9    6    7      0.07      0.00
   -8    6    7      7.16      0.00
   -7    6    7     -8.22      0.00
   -6    6    7      2.19      0.00
   -5    6    7      2.91      0.00
   -4    6    7     -8.16      0.00
   -3    6    7     20.89      0.00
   -2    6    7      1.72      0.00
   -1    6    7     11.50      0.00
    0    6    7     11.81      0.00
    1    6    7     -3.56      0.00
    2    6    7     12.21      0.00
    3    6    7      3.55      0.00
    4    6    7     -1.27      0.00
    5    6    7      0.06      0.00
    6    6    7    -15.52      0.00
    7    6    7     -9.30      0.00
    8    6    7     -2.44      0.00
    9    6    7     -3.83      0.00
   10    6    7      1.38      0.00
   11    6    7     -2.92      0.00
   12    6    7     -0.65      0.00
   13    6    7     -0.25      0.00
   14    6    7     -1.07      0.00
  -14    7    7     -0.16      0.00
  -13    7    7      1.46      0.00
  -12    7    7     -0.35      0.00
  -11    7    7      0.52      0.00
  -10    7    7      4.06      0.00
   -9    7    7     -0.33      0.00
   -8    7    7      5.79      0.00
   -7    7    7     -3.41      0.00
   -6    7    7      2.79      0.00
   -5    7    7      1.82      0.00
   -4    7    7      0.93      0.00
   -3    7    7     -5.08      0.00
   -2    7    7      9.30      0.00
   -1    7    7     -5.85      0.00
    0    7    7      5.84      0.00
    1    7    7      8.25      0.00
    2    7    7      6.22      0.00
    3    7    7     12.07      0.00
    4    7    7      5.25      0.00
    5    7    7      4.71      0.00
    6    7    7     -2.37      0.00
    7    7    7     -0.43      0.00
    8    7    7     -2.70      0.00
    9    7    7     -2.63      0.00
   10    7    7      2.69      0.00
   11    7    7      0.32      0.00
   12    7    7     -0.17      0.00
   13    7    7      0.41      0.00
   14    7    7     -1.76      0.00
  -14    8    7     -0.59      0.00
  -13    8    7      0.18      0.00
  -12    8    7     -2.16      0.00
  -11    8    7     -1.10      0.00
  -10    8    7      0.21      0.00
   -9    8    7     -0.52      0.00
   -8    8    7     -3.52      0.00
   -7    8    7    -12.49      0.00
   -6    8    7      4.32      0.00
   -5    8    7     -6.54      0.00
   -4    8    7     12.42      0.00
   -3    8    7      9.78      0.00
   -2    8    7     -0.52      0.00
   -1    8    7      1.68      0.00
    0    8    7     -7.32      0.00
    1    8    7     -4.37      0.00
    2    8    7      4.97      0.00
    3    8    7      5.91      0.00
    4    8    7     -3.92      0.00
    5    8    7     -2.78      0.00
    6    8    7      1.70      0.00
    7    8    7     -1.62      0.00
    8    8    7      7.99      0.00
    9    8    7      3.38      0.00
   10    8    7      0.24      0.00
   11    8    7     -0.76      0.00
   12    8    7     -1.12      0.00
   13    8    7     -1.80      0.00
   14    8    7      1.45      0.00
  -13    9    7     -0.39      0.00
  -12    9    7      1.17      0.00
  -11    9    7      2.10      0.00
  -10    9    7     -3.91      0.00
   -9    9    7      2.57      0.00
   -8    9    7     -7.90      0.00
   -7    9    7     -4.18      0.00
   -6    9    7      8.13      0.00
   -5    9    7     -1.65      0.00
   -4    9    7     -0.29      0.00
   -3    9    7      1.32      0.00
   -2    9    7     -5.60      0.00
   -1    9    7    -10.73      0.00
    0    9    7      5.74      0.00
    1    9    7     -2.30      0.00
    2    9    7    -12.25      0.00
    3    9    7     -0.29      0.00
    4    9    7     -8.72      0.00
    5    9    7     -4.64      0.00
    6    9    7      8.26      0.00
    7    9    7      1.13      0.00
    8    9    7      2.29      0.00
    9    9    7      2.62      0.00
   10    9    7     -2.63      0.00
   11    9    7     -2.05      0.00
   12    9    7      0.38      0.00
   13    9    7     -1.29      0.00
  -13   10    7      1.45      0.00
  -12   10    7     -0.57      0.00
  -11   10    7      0.88      0.00
  -10   10    7     -1.08      0.00
   -9   10    7     -2.55      0.00
   -8   10    7      0.36      0.00
   -7   10    7     -0.09      0.00
   -6   10    7      1.69      0.00
   -5   10    7      9.49      0.00
   -4   10    7     -3.84      0.00
   -3   10    7      1.23      0.00
   -2   10    7      4.04      0.00
   -1   10    7     -3.97      0.00
    0   10    7      1.70      0.00
    1   10    7     -6.56      0.00
    2   10    7     -9.42      0.00
    3   10    7     -5.60      0.00
    4   10    7     -5.12      0.00
    5   10    7      2.12      0.00
    6   10    7      1.19      0.00
    7   10    7      4.57      0.00
    8   10    7     -0.98      0.00
    9   10    7     -1.40      0.00
   10   10    7      1.31      0.00
   11   10    7      0.39      0.00
   12   10    7      0.86      0.00
  -12   11    7     -0.17      0.00
  -11   11    7     -1.01      0.00
  -10   11    7     -0.11      0.00
   -9   11    7      0.61      0.00
   -8   11    7     -0.27      0.00
   -7   11    7      1.27      0.00
   -6   11    7      0.42      0.00
   -5   11    7     -2.57      0.00
   -4   11    7      2.10      0.00
   -3   11    7     -0.44      0.00
   -2   11    7     -1.05      0.00
   -1   11    7      2.81      0.00
    0   11    7      0.94      0.00
    1   11    7     -1.35      0.00
    2   11    7      2.59      0.00
    3   11    7      1.44      0.00
    4   11    7      1.04      0.00
    5   11    7      1.33      0.00
    6   11    7     -3.55      0.00
    7   11    7     -2.44      0.00
    8   11    7     -1.31      0.00
    9   11    7     -1.00      0.00
   10   11    7     -0.73      0.00
   11   11    7      0.88      0.00
   12   11    7      0.63      0.00
  -11   12    7     -0.03      0.00
  -10   12    7     -2.39      0.00
   -9   12    7      3.27      0.00
   -8   12    7      1.79      0.00
   -7   12    7     -0.92      0.00
   -6   12    7      2.83      0.00
   -5   12    7     -0.07      0.00
   -4   12    7     -4.01      0.00
   -3   12    7      1.65      0.00
   -2   12    7      0.95      0.00
   -1   12    7      2.11      0.00
    0   12    7      1.74      0.00
    1   12    7     -0.74      0.00
    2   12    7      0.74      0.00
    3   12    7     -1.15      0.00
    4   12    7      2.44      0.00
    5   12    7      2.41      0.00
    6   12    7      1.39      0.00
    7   12    7      1.07      0.00
    8   12    7     -2.79      0.00
    9   12    7      0.56      0.00
   10   12    7     -0.21      0.00
   11   12    7     -0.13      0.00
  -10   13    7     -0.33      0.00
   -9   13    7     -0.68      0.00
   -8   13    7     -0.53      0.00
   -7   13    7      0.29      0.00
   -6   13    7     -7.42      0.00
   -5   13    7      2.13      0.00
   -4   13    7      2.32      0.00
   -3   13    7     -0.66      0.00
   -2   13    7      4.49      0.00
   -1   13    7      0.27      0.00
    0   13    7     -4.58      0.00
    1   13    7     -2.34      0.00
    2   13    7     -0.40      0.00
    3   13    7      0.15      0.00
    4   13    7      3.52      0.00
    5   13    7      2.65      0.00
    6   13    7     -3.40      0.00
    7   13    7      0.88      0.00
    8   13    7     -0.74      0.00
    9   13    7     -0.94      0.00
   10   13    7      1.24      0.00
   -9   14    7      0.06      0.00
   -8   14    7     -1.06      0.00
   -7   14    7     -0.64      0.00
   -6   14    7     -1.87      0.00
   -5   14    7      0.22      0.00
   -4   14    7      1.81      0.00
   -3   14    7      2.05      0.00
   -2   14    7     -3.30      0.00
   -1   14    7     -1.26      0.00
    0   14    7     -2.68      0.00
    1   14    7     -2.34      0.00
    2   14    7      3.98      0.00
    3   14    7     -0.99      0.00
    4   14    7     -1.89      0.00
    5   14    7      0.42      0.00
    6   14    7     -1.46      0.00
    7   14    7      0.39      0.00
    8   14    7      2.06      0.00
    9   14    7      0.10      0.00
   -8   15    7      0.32      0.00
   -7   15    7     -1.51      0.00
   -6   15    7      0.60      0.00
   -5   15    7      1.27      0.00
   -4   15    7     -0.56      0.00
   -3   15    7      0.90      0.00
   -2   15    7     -0.82      0.00
   -1   15    7     -0.40      0.00
    0   15    7     -0.33      0.00
    1   15    7      0.69      0.00
    2   15    7     -0.02      0.00
    3   15    7     -0.54      0.00
    4   15    7     -0.50      0.00
    5   15    7     -1.31      0.00
    6   15    7      1.40      0.00
    7   15    7      1.37      0.00
   -6   16    7     -0.23      0.00
   -5   16    7     -0.21      0.00
   -4   16    7      0.94      0.00
   -3   16    7     -0.73      0.00
   -2   16    7     -0.96      0.00
   -1   16    7      0.92      0.00
    0   16    7     -0.53      0.00
    1   16    7      1.37      0.00
    2   16    7      2.00      0.00
    3   16    7      0.05      0.00
    4   16    7      0.45      0.00
    5   16    7     -1.46      0.00
   -2   17    7     -0.82      0.00
   -1   17    7      1.53      0.00
    0   17    7      0.71      0.00
    1   17    7     -1.09      0.00
    2   17    7      0.04      0.00
  -16    0    8      0.59      0.00
  -14    0    8     -1.06      0.00
  -12    0    8      0.52      0.00
  -10    0    8      5.20      0.00
   -8    0    8     -9.52      0.00
   -6    0    8     24.08      0.00
   -4    0    8     56.82      0.00
   -2    0    8      0.71      0.00
    0    0    8    -39.67      0.00
    2    0    8    -43.03      0.00
    4    0    8    -24.67      0.00
    6    0    8     16.64      0.00
    8    0    8     13.70      0.00
   10    0    8     -7.15      0.00
   12    0    8     -3.93      0.00
   14    0    8      0.74      0.00
  -16    1    8     -0.55      0.00
  -15    1    8      0.29      0.00
  -14    1    8      0.94      0.00
  -13    1    8      1.22      0.00
  -12    1    8      2.92      0.00
  -11    1    8     -2.21      0.00
  -10    1    8     -2.64      0.00
   -9    1    8     -7.80      0.00
   -8    1    8     -0.42      0.00
   -7    1    8      1.70      0.00
   -6    1    8      2.57      0.00
   -5    1    8     24.38      0.00
   -4    1    8      3.72      0.00
   -3    1    8      5.74      0.00
   -2    1    8     13.85      0.00
   -1    1    8     10.75      0.00
    0    1    8     -8.10      0.00
    1    1    8     29.39      0.00
    2    1    8     -9.86      0.00
    3    1    8      1.48      0.00
    4    1    8     -0.57      0.00
    5    1    8    -23.43      0.00
    6    1    8      0.55      0.00
    7    1    8     -9.31      0.00
    8    1    8     -1.03      0.00
    9    1    8      0.46      0.00
   10    1    8     -0.50      0.00
   11    1    8     -1.13      0.00
   12    1    8      1.17      0.00
   13    1    8     -0.71      0.00
   14    1    8      0.81      0.00
   15    1    8      0.20      0.00
  -16    2    8      0.02      0.00
  -15    2    8     -1.17      0.00
  -14    2    8      0.24      0.00
  -13    2    8      4.71      0.00
  -12    2    8     -0.61      0.00
  -11    2    8      1.15      0.00
  -10    2    8      0.94      0.00
   -9    2    8    -11.39      0.00
   -8    2    8     10.49      0.00
   -7    2    8      8.76      0.00
   -6    2    8      8.54      0.00
   -5    2    8     -6.55      0.00
   -4    2    8      2.92      0.00
   -3    2    8    -51.91      0.00
   -2    2    8      2.93      0.00
   -1    2    8     18.58      0.00
    0    2    8     -0.91      0.00
    1    2    8     42.56      0.00
    2    2    8      8.09      0.00
    3    2    8    -19.07      0.00
    4    2    8     20.88      0.00
    5    2    8     19.24      0.00
    6    2    8      6.91      0.00
    7    2    8     10.44      0.00
    8    2    8     -2.39      0.00
    9    2    8    -10.84      0.00
   10    2    8      0.61      0.00
   11    2    8     -1.92      0.00
   12    2    8      1.92      0.00
   13    2    8      0.92      0.00
   14    2    8     -1.15      0.00
   15    2    8     -1.57      0.00
  -15    3    8      1.80      0.00
  -14    3    8     -0.61      0.00
  -13    3    8      1.57      0.00
  -12    3    8     -5.55      0.00
  -11    3    8     -4.28      0.00
  -10    3    8     -3.01      0.00
   -9    3    8      6.99      0.00
   -8    3    8     -5.31      0.00
   -7    3    8      7.61      0.00
   -6    3    8      0.76      0.00
   -5    3    8     -3.83      0.00
   -4    3    8      9.70      0.00
   -3    3    8    -16.18      0.00
   -2    3    8     29.72      0.00
   -1    3    8    -22.32      0.00
    1    3    8     -4.32      0.00
    2    3    8     -0.73      0.00
    3    3    8     27.93      0.00
    4    3    8      1.66      0.00
    5    3    8     14.40      0.00
    6    3    8     -1.05      0.00
    7    3    8    -11.56      0.00
    8    3    8      5.31      0.00
    9    3    8     -1.97      0.00
   10    3    8      5.89      0.00
   11    3    8      5.39      0.00
   12    3    8     -0.15      0.00
   13    3    8      0.83      0.00
   14    3    8      1.21      0.00
   15    3    8     -0.37      0.00
  -15    4    8      0.98      0.00
  -14    4    8      2.04      0.00
  -13    4    8     -3.04      0.00
  -12    4    8     -0.29      0.00
  -11    4    8      1.06      0.00
  -10    4    8     -3.84      0.00
   -9    4    8      5.06      0.00
   -8    4    8     -4.63      0.00
   -7    4    8     -2.66      0.00
   -6    4    8     -8.93      0.00
   -5    4    8    -10.76      0.00
   -4    4    8     -8.36      0.00
   -3    4    8    -15.17      0.00
   -2    4    8     22.94      0.00
   -1    4    8    -19.85      0.00
    0    4    8     -6.13      0.00
    1    4    8      0.98      0.00
    2    4    8    -34.33      0.00
    3    4    8      9.68      0.00
    4    4    8     -4.96      0.00
    5    4    8     -9.60      0.00
    6    4    8      4.36      0.00
    7    4    8     -4.61      0.00
    8    4    8     -1.16      0.00
    9    4    8      2.27      0.00
   10    4    8     -0.56      0.00
   11    4    8     -1.88      0.00
   12    4    8     -0.44      0.00
   13    4    8     -1.78      0.00
   14    4    8     -0.38      0.00
   15    4    8      0.63      0.00
  -15    5    8     -0.59      0.00
  -14    5    8      0.25      0.00
  -13    5    8      0.84      0.00
  -12    5    8      0.79      0.00
  -11    5    8     -2.26      0.00
  -10    5    8      4.34      0.00
   -9    5    8     -1.85      0.00
   -8    5    8     -4.70      0.00
   -7    5    8      6.21      0.00
   -6    5    8     -0.41      0.00
   -5    5    8     16.64      0.00
   -4    5    8     11.57      0.00
   -3    5    8      9.99      0.00
   -2    5    8      8.34      0.00
   -1    5    8    -20.11      0.00
    0    5    8    -11.02      0.00
    1    5    8    -26.84      0.00
    2    5    8    -18.29      0.00
    3    5    8    -14.54      0.00
    4    5    8    -11.21      0.00
    5    5    8     -1.67      0.00
    6    5    8     -3.09      0.00
    7    5    8      4.81      0.00
    8    5    8     -0.21      0.00
    9    5    8      1.81      0.00
   10    5    8      1.51      0.00
   11    5    8     -1.42      0.00
   12    5    8      0.98      0.00
   13    5    8     -0.09      0.00
   14    5    8     -0.21      0.00
  -15    6    8      1.86      0.00
  -14    6    8      0.39      0.00
  -13    6    8     -0.66      0.00
  -12    6    8      0.98      0.00
  -11    6    8      1.90      0.00
  -10    6    8     -1.14      0.00
   -9    6    8      4.58      0.00
   -8    6    8     -7.66      0.00
   -7    6    8     -4.10      0.00
   -6    6    8      9.03      0.00
   -5    6    8      3.14      0.00
   -4    6    8     17.93      0.00
   -3    6    8     15.98      0.00
   -2    6    8      5.63      0.00
   -1    6    8    -13.51      0.00
    0    6    8      5.08      0.00
    1    6    8    -10.37      0.00
    2    6    8      7.58      0.00
    3    6    8     14.69      0.00
    4    6    8    -11.05      0.00
    5    6    8     -8.02      0.00
    6    6    8     -3.50      0.00
    7    6    8     -7.90      0.00
    8    6    8     -1.74      0.00
    9    6    8      3.82      0.00
   10    6    8     -3.49      0.00
   11    6    8     -0.55      0.00
   12    6    8     -2.77      0.00
   13    6    8     -1.48      0.00
   14    6    8      2.08      0.00
  -14    7    8      0.90      0.00
  -13    7    8      0.00      0.00
  -12    7    8      0.25      0.00
  -11    7    8      2.02      0.00
  -10    7    8     -3.79      0.00
   -9    7    8      0.94      0.00
   -8    7    8     -4.13      0.00
   -7    7    8      9.29      0.00
   -6    7    8      4.48      0.00
   -5    7    8     12.67      0.00
   -4    7    8     -8.66      0.00
   -3    7    8    -12.64      0.00
   -2    7    8     -9.93      0.00
   -1    7    8    -14.24      0.00
    0    7    8      8.58      0.00
    1    7    8     21.48      0.00
    2    7    8     -0.97      0.00
    3    7    8      9.56      0.00
    4    7    8      5.03      0.00
    5    7    8     -5.93      0.00
    6    7    8     10.61      0.00
    7    7    8     -1.76      0.00
    8    7    8     -3.74      0.00
    9    7    8      2.45      0.00
   10    7    8     -4.22      0.00
   11    7    8      0.62      0.00
   12    7    8      1.29      0.00
   13    7    8     -0.35      0.00
   14    7    8      0.58      0.00
  -14    8    8      0.47      0.00
  -13    8    8     -0.98      0.00
  -12    8    8      0.52      0.00
  -11    8    8     -3.55      0.00
  -10    8    8     -2.72      0.00
   -9    8    8     -3.20      0.00
   -8    8    8     -3.25      0.00
   -7    8    8      6.56      0.00
   -6    8    8     -4.23      0.00
   -5    8    8      2.04      0.00
   -4    8    8     -2.56      0.00
   -3    8    8     -6.32      0.00
   -2    8    8     -3.34      0.00
   -1    8    8      7.34      0.00
    0    8    8     -6.60      0.00
    1    8    8      3.50      0.00
    2    8    8      6.46      0.00
    3    8    8     -9.21      0.00
    4    8    8      6.39      0.00
    5    8    8      1.54      0.00
    6    8    8     -0.28      0.00
    7    8    8      7.29      0.00
    8    8    8     -2.24      0.00
    9    8    8     -1.04      0.00
   10    8    8     -0.06      0.00
   11    8    8      1.68      0.00
   12    8    8      0.40      0.00
   13    8    8      0.01      0.00
  -13    9    8     -0.08      0.00
  -12    9    8      0.84      0.00
  -11    9    8     -2.27      0.00
  -10    9    8      0.94      0.00
   -9    9    8     -2.40      0.00
   -8    9    8      2.45      0.00
   -7    9    8      2.08      0.00
   -6    9    8     -4.86      0.00
   -5    9    8     -0.65      0.00
   -4    9    8     -8.24      0.00
   -3    9    8      1.11      0.00
   -2    9    8     -5.74      0.00
   -1    9    8      1.23      0.00
    0    9    8      2.05      0.00
    1    9    8    -12.72      0.00
    2    9    8      0.42      0.00
    3    9    8     -4.56      0.00
    4    9    8     -1.23      0.00
    5    9    8      4.14      0.00
    6    9    8     -2.09      0.00
    7    9    8     -0.47      0.00
    8    9    8      0.46      0.00
    9    9    8      0.22      0.00
   10    9    8     -1.28      0.00
   11    9    8     -0.70      0.00
   12    9    8     -1.02      0.00
   13    9    8     -0.84      0.00
  -13   10    8     -0.29      0.00
  -12   10    8     -0.71      0.00
  -11   10    8      1.94      0.00
  -10   10    8     -1.68      0.00
   -9   10    8      0.61      0.00
   -8   10    8      2.80      0.00
   -7   10    8      0.29      0.00
   -6   10    8      1.71      0.00
   -5   10    8      1.83      0.00
   -4   10    8      2.82      0.00
   -3   10    8      0.68      0.00
   -2   10    8      6.54      0.00
   -1   10    8      4.08      0.00
    0   10    8     -9.29      0.00
    1   10    8      0.63      0.00
    2   10    8    -10.68      0.00
    3   10    8     -9.14      0.00
    4   10    8      3.72      0.00
    5   10    8     -2.26      0.00
    6   10    8      3.68      0.00
    7   10    8      2.07      0.00
    8   10    8      0.21      0.00
    9   10    8      0.36      0.00
   10   10    8      0.23      0.00
   11   10    8      0.62      0.00
   12   10    8     -0.50      0.00
  -12   11    8      0.52      0.00
  -11   11    8     -0.59      0.00
  -10   11    8      1.93      0.00
   -9   11    8     -1.62      0.00
   -8   11    8     -1.28      0.00
   -7   11    8      2.88      0.00
   -6   11    8     -7.25      0.00
   -5   11    8      1.09      0.00
   -4   11    8      8.64      0.00
   -3   11    8      0.97      0.00
   -2   11    8      1.17      0.00
   -1   11    8      3.96      0.00
    0   11    8    -10.35      0.00
    1   11    8     -0.85      0.00
    2   11    8      3.82      0.00
    3   11    8      3.45      0.00
    4   11    8      6.82      0.00
    5   11    8      1.60      0.00
    6   11    8     -3.94      0.00
    7   11    8     -2.76      0.00
    8   11    8     -0.28      0.00
    9   11    8     -0.90      0.00
   10   11    8      2.52      0.00
   11   11    8      1.24      0.00
  -11   12    8     -1.00      0.00
  -10   12    8      0.64      0.00
   -9   12    8     -0.35      0.00
   -8   12    8     -1.04      0.00
   -7   12    8      1.05      0.00
   -6   12    8      2.60      0.00
   -5   12    8      0.10      0.00
   -4   12    8      2.04      0.00
   -3   12    8      1.32      0.00
   -2   12    8     -7.35      0.00
   -1   12    8     -4.44      0.00
    0   12    8     -0.46      0.00
    1   12    8      1.74      0.00
    2   12    8      4.42      0.00
    3   12    8      3.43      0.00
    4   12    8     -1.70      0.00
    5   12    8      0.44      0.00
    6   12    8     -0.87      0.00
    7   12    8     -1.75      0.00
    8   12    8      1.64      0.00
    9   12    8      0.21      0.00
   10   12    8      0.15      0.00
   11   12    8     -1.20      0.00
  -10   13    8     -0.84      0.00
   -9   13    8     -2.31      0.00
   -8   13    8      0.57      0.00
   -7   13    8     -1.91      0.00
   -6   13    8      0.76      0.00
   -5   13    8      2.28      0.00
   -4   13    8     -0.65      0.00
   -3   13    8     -1.59      0.00
   -2   13    8     -1.27      0.00
   -1   13    8     -2.02      0.00
    0   13    8      1.18      0.00
    1   13    8      3.08      0.00
    2   13    8     -0.44      0.00
    3   13    8      1.21      0.00
    4   13    8     -1.14      0.00
    5   13    8     -2.46      0.00
    6   13    8      1.69      0.00
    7   13    8      0.88      0.00
    8   13    8     -0.50      0.00
    9   13    8     -0.55      0.00
   10   13    8      0.29      0.00
   -9   14    8     -1.04      0.00
   -8   14    8     -1.27      0.00
   -7   14    8      1.34      0.00
   -6   14    8      0.49      0.00
   -5   14    8     -2.64      0.00
   -4   14    8      2.62      0.00
   -3   14    8     -2.16      0.00
   -2   14    8     -2.72      0.00
   -1   14    8      1.61      0.00
    0   14    8     -0.73      0.00
    1   14    8      1.63      0.00
    2   14    8      0.21      0.00
    3   14    8     -0.17      0.00
    4   14    8     -0.64      0.00
    5   14    8     -0.58      0.00
    6   14    8      0.12      0.00
    7   14    8      0.35      0.00
    8   14    8      1.17      0.00
   -7   15    8      0.27      0.00
   -6   15    8      2.05      0.00
   -5   15    8     -0.22      0.00
   -4   15    8      0.03      0.00
   -3   15    8     -0.03      0.00
   -2   15    8      0.50      0.00
   -1   15    8     -0.18      0.00
    0   15    8      3.53      0.00
    1   15    8     -2.14      0.00
    2   15    8     -1.56      0.00
    3   15    8     -1.25      0.00
    4   15    8     -2.30      0.00
    5   15    8      1.59      0.00
    6   15    8      3.30      0.00
    7   15    8      0.11      0.00
   -5   16    8     -0.16      0.00
   -4   16    8     -0.83      0.00
   -3   16    8     -0.05      0.00
   -2   16    8      2.11      0.00
   -1   16    8     -0.54      0.00
    0   16    8     -0.22      0.00
    1   16    8      0.01      0.00
    2   16    8     -1.20      0.00
    3   16    8      0.79      0.00
    4   16    8      1.41      0.00
    5   16    8      0.87      0.00
   -1   17    8     -0.44      0.00
    0   17    8     -0.46      0.00
  -15    0    9      0.47      0.00
  -13    0    9     -0.17      0.00
  -11    0    9     -1.63      0.00
   -9    0    9      0.93      0.00
   -7    0    9     16.93      0.00
   -5    0    9     10.07      0.00
   -1    0    9     18.08      0.00
    1    0    9    -25.26      0.00
    3    0    9    -61.82      0.00
    5    0    9      3.60      0.00
    7    0    9     16.62      0.00
    9    0    9     -5.79      0.00
   11    0    9     -3.40      0.00
   13    0    9     -0.63      0.00
   15    0    9     -0.52      0.00
  -15    1    9      0.64      0.00
  -14    1    9      1.33      0.00
  -13    1    9     -0.80      0.00
  -12    1    9     -1.82      0.00
  -11    1    9      0.99      0.00
  -10    1    9     -1.74      0.00
   -9    1    9      5.96      0.00
   -8    1    9     13.48      0.00
   -7    1    9     -9.90      0.00
   -6    1    9     11.93      0.00
   -5    1    9      1.55      0.00
   -4    1    9    -10.44      0.00
   -3    1    9     44.49      0.00
   -2    1    9      9.12      0.00
   -1    1    9     11.85      0.00
    0    1    9      7.79      0.00
    1    1    9    -29.08      0.00
    2    1    9      5.99      0.00
    3    1    9     -6.32      0.00
    4    1    9     -2.56      0.00
    5    1    9     -1.57      0.00
    6    1    9    -15.65      0.00
    7    1    9     -2.18      0.00
    8    1    9     -6.83      0.00
    9    1    9      3.47      0.00
   10    1    9      2.85      0.00
   11    1    9     -0.38      0.00
   12    1    9     -0.36      0.00
   13    1    9      0.18      0.00
   14    1    9     -0.34      0.00
   15    1    9      1.05      0.00
  -15    2    9     -0.59      0.00
  -14    2    9     -0.46      0.00
  -13    2    9     -1.72      0.00
  -12    2    9     -0.37      0.00
  -11    2    9      1.86      0.00
  -10    2    9     -1.90      0.00
   -9    2    9      1.09      0.00
   -8    2    9      0.15      0.00
   -7    2    9      4.90      0.00
   -6    2    9     -8.20      0.00
   -5    2    9      5.40      0.00
   -4    2    9     -7.54      0.00
   -3    2    9     -1.21      0.00
   -2    2    9     22.74      0.00
   -1    2    9    -19.95      0.00
    0    2    9     12.99      0.00
    1    2    9     -5.17      0.00
    2    2    9     -6.04      0.00
    3    2    9     14.72      0.00
    4    2    9      9.49      0.00
    5    2    9     10.95      0.00
    6    2    9      4.61      0.00
    7    2    9      4.42      0.00
    8    2    9     -4.16      0.00
    9    2    9      0.00      0.00
   10    2    9      0.09      0.00
   11    2    9     -0.41      0.00
   12    2    9     -1.22      0.00
   13    2    9      0.80      0.00
   14    2    9     -1.83      0.00
   15    2    9     -0.89      0.00
  -15    3    9      1.82      0.00
  -14    3    9      0.14      0.00
  -13    3    9     -1.59      0.00
  -12    3    9     -0.06      0.00
  -11    3    9     -5.10      0.00
  -10    3    9      1.93      0.00
   -9    3    9     -1.63      0.00
   -8    3    9     -3.74      0.00
   -7    3    9     -4.04      0.00
   -6    3    9      5.38      0.00
   -5    3    9     -4.59      0.00
   -4    3    9     -2.33      0.00
   -3    3    9      8.16      0.00
   -2    3    9    -48.18      0.00
   -1    3    9    -12.33      0.00
    0    3    9    -13.33      0.00
    1    3    9    -11.96      0.00
    2    3    9     29.45      0.00
    3    3    9     12.53      0.00
    4    3    9      8.48      0.00
    5    3    9      2.08      0.00
    6    3    9     -4.65      0.00
    7    3    9     -2.84      0.00
    8    3    9     -0.15      0.00
    9    3    9      2.08      0.00
   10    3    9      0.32      0.00
   11    3    9      3.56      0.00
   12    3    9      1.40      0.00
   13    3    9      1.42      0.00
   14    3    9      0.79      0.00
   15    3    9      0.36      0.00
  -15    4    9      1.83      0.00
  -14    4    9     -1.08      0.00
  -13    4    9     -1.87      0.00
  -12    4    9     -0.04      0.00
  -11    4    9      0.23      0.00
  -10    4    9     -2.65      0.00
   -9    4    9      2.33      0.00
   -8    4    9      2.89      0.00
   -7    4    9    -10.89      0.00
   -6    4    9      1.93      0.00
   -5    4    9     -4.77      0.00
   -4    4    9    -24.02      0.00
   -3    4    9      8.25      0.00
   -2    4    9    -40.32      0.00
   -1    4    9    -13.87      0.00
    0    4    9     -4.84      0.00
    1    4    9    -18.65      0.00
    2    4    9     20.78      0.00
    3    4    9      7.69      0.00
    4    4    9      1.36      0.00
    5    4    9     -8.96      0.00
    6    4    9     -1.81      0.00
    7    4    9     -4.01      0.00
    8    4    9     -1.97      0.00
    9    4    9      3.55      0.00
   10    4    9     -2.19      0.00
   11    4    9     -0.90      0.00
   12    4    9     -1.28      0.00
   13    4    9     -2.40      0.00
   14    4    9      0.64      0.00
   15    4    9      0.74      0.00
  -15    5    9     -1.91      0.00
  -14    5    9     -0.64      0.00
  -13    5    9      2.53      0.00
  -12    5    9     -2.23      0.00
  -11    5    9      3.55      0.00
  -10    5    9     -3.76      0.00
   -9    5    9     -5.14      0.00
   -8    5    9      5.87      0.00
   -7    5    9      1.71      0.00
   -6    5    9      9.29      0.00
   -5    5    9      7.08      0.00
   -4    5    9     -4.88      0.00
   -3    5    9    -10.97      0.00
   -2    5    9    -17.67      0.00
   -1    5    9      4.75      0.00
    0    5    9      4.45      0.00
    1    5    9      7.77      0.00
    2    5    9    -10.97      0.00
    3    5    9    -27.01      0.00
    4    5    9    -15.11      0.00
    5    5    9     -4.70      0.00
    6    5    9     -1.55      0.00
    7    5    9      7.06      0.00
    8    5    9      6.14      0.00
    9    5    9     -0.43      0.00
   10    5    9     -0.78      0.00
   11    5    9     -1.21      0.00
   12    5    9     -0.04      0.00
   13    5    9      0.77      0.00
   14    5    9     -1.77      0.00
  -14    6    9     -1.20      0.00
  -13    6    9      0.37      0.00
  -12    6    9      1.84      0.00
  -11    6    9     -1.68      0.00
  -10    6    9      0.04      0.00
   -9    6    9      1.56      0.00
   -8    6    9     -0.99      0.00
   -7    6    9      8.43      0.00
   -6    6    9     -2.62      0.00
   -5    6    9     -0.14      0.00
   -4    6    9      9.25      0.00
   -3    6    9      3.36      0.00
   -2    6    9      3.62      0.00
   -1    6    9     17.55      0.00
    0    6    9     -4.96      0.00
    1    6    9     -1.41      0.00
    2    6    9     -4.45      0.00
    3    6    9     -8.93      0.00
    4    6    9    -10.23      0.00
    5    6    9      4.07      0.00
    6    6    9     -0.17      0.00
    7    6    9      0.98      0.00
    8    6    9      5.17      0.00
    9    6    9     -4.69      0.00
   10    6    9     -0.35      0.00
   11    6    9      0.56      0.00
   12    6    9     -1.30      0.00
   13    6    9      0.42      0.00
   14    6    9     -0.07      0.00
  -14    7    9     -0.22      0.00
  -13    7    9     -0.91      0.00
  -12    7    9     -1.11      0.00
  -11    7    9     -1.88      0.00
  -10    7    9     -1.14      0.00
   -9    7    9     -3.10      0.00
   -8    7    9     10.67      0.00
   -7    7    9     -4.59      0.00
   -6    7    9      5.80      0.00
   -5    7    9     -2.92      0.00
   -4    7    9     -8.24      0.00
   -3    7    9      1.96      0.00
   -2    7    9     -8.71      0.00
   -1    7    9      2.40      0.00
    0    7    9      0.87      0.00
    1    7    9     -9.30      0.00
    2    7    9      1.84      0.00
    3    7    9      1.59      0.00
    4    7    9      7.68      0.00
    5    7    9      9.22      0.00
    6    7    9     -1.70      0.00
    7    7    9     -1.12      0.00
    8    7    9     -2.11      0.00
    9    7    9     -1.17      0.00
   10    7    9      1.90      0.00
   11    7    9     -0.81      0.00
   12    7    9      2.10      0.00
   13    7    9      0.41      0.00
   14    7    9     -0.25      0.00
  -14    8    9     -1.11      0.00
  -13    8    9      1.34      0.00
  -12    8    9     -3.24      0.00
  -11    8    9      0.29      0.00
  -10    8    9     -2.25      0.00
   -9    8    9     -3.37      0.00
   -8    8    9      3.22      0.00
   -7    8    9      1.24      0.00
   -6    8    9     -3.46      0.00
   -5    8    9     -1.43      0.00
   -4    8    9     -2.73      0.00
   -3    8    9     -7.70      0.00
   -2    8    9      0.30      0.00
   -1    8    9     -6.04      0.00
    0    8    9     -4.38      0.00
    1    8    9      0.30      0.00
    2    8    9      1.42      0.00
    3    8    9      1.83      0.00
    4    8    9      6.10      0.00
    5    8    9      5.49      0.00
    6    8    9     -2.43      0.00
    7    8    9      1.56      0.00
    8    8    9     -1.36      0.00
    9    8    9     -3.52      0.00
   10    8    9      2.07      0.00
   11    8    9      0.25      0.00
   12    8    9      1.62      0.00
   13    8    9      2.69      0.00
  -13    9    9      0.43      0.00
  -12    9    9     -1.20      0.00
  -11    9    9      0.45      0.00
  -10    9    9     -0.04      0.00
   -9    9    9      2.87      0.00
   -8    9    9     -0.48      0.00
   -7    9    9      1.13      0.00
   -6    9    9     -1.77      0.00
   -5    9    9     -7.99      0.00
   -4    9    9      5.63      0.00
   -3    9    9     -2.79      0.00
   -2    9    9     -6.87      0.00
   -1    9    9     -3.26      0.00
    0    9    9     -9.02      0.00
    1    9    9     -3.57      0.00
    2    9    9      4.69      0.00
    3    9    9     11.83      0.00
    4    9    9     -0.71      0.00
    5    9    9      1.66      0.00
    6    9    9     -4.70      0.00
    7    9    9     -6.69      0.00
    8    9    9      1.57      0.00
    9    9    9     -0.84      0.00
   10    9    9      1.41      0.00
   11    9    9     -0.11      0.00
   12    9    9     -1.65      0.00
   13    9    9      0.04      0.00
  -12   10    9      1.61      0.00
  -11   10    9     -0.12      0.00
  -10   10    9      1.62      0.00
   -9   10    9      1.62      0.00
   -8   10    9     -0.07      0.00
   -7   10    9      0.21      0.00
   -6   10    9      3.06      0.00
   -5   10    9      2.73      0.00
   -4   10    9     -0.73      0.00
   -3   10    9      2.71      0.00
   -2   10    9     -0.44      0.00
   -1   10    9     -5.98      0.00
    0   10    9      9.09      0.00
    1   10    9      3.44      0.00
    2   10    9     -2.98      0.00
    3   10    9      1.51      0.00
    4   10    9     -6.22      0.00
    5   10    9     -4.48      0.00
    6   10    9      0.70      0.00
    7   10    9      1.33      0.00
    8   10    9      1.87      0.00
    9   10    9      3.48      0.00
   10   10    9      0.12      0.00
   11   10    9     -3.02      0.00
   12   10    9     -0.06      0.00
  -12   11    9     -0.13      0.00
  -11   11    9      0.74      0.00
  -10   11    9      0.62      0.00
   -9   11    9     -2.37      0.00
   -8   11    9      1.98      0.00
   -7   11    9     -3.22      0.00
   -6   11    9      1.49      0.00
   -5   11    9      3.58      0.00
   -4   11    9     -0.72      0.00
   -3   11    9      0.88      0.00
   -2   11    9      1.25      0.00
   -1   11    9      1.52      0.00
    0   11    9      4.61      0.00
    1   11    9      0.31      0.00
    2   11    9      5.68      0.00
    3   11    9     -2.51      0.00
    4   11    9     -0.42      0.00
    5   11    9      0.83      0.00
    6   11    9      0.30      0.00
    7   11    9      4.35      0.00
    8   11    9     -0.47      0.00
    9   11    9      0.23      0.00
   10   11    9      0.89      0.00
   11   11    9      0.67      0.00
  -11   12    9     -0.61      0.00
  -10   12    9     -0.83      0.00
   -9   12    9      0.15      0.00
   -8   12    9     -2.28      0.00
   -7   12    9      2.11      0.00
   -6   12    9      3.09      0.00
   -5   12    9     -2.88      0.00
   -4   12    9     -0.04      0.00
   -3   12    9     -1.67      0.00
   -2   12    9     -3.83      0.00
   -1   12    9     -1.14      0.00
    0   12    9      3.22      0.00
    1   12    9     -2.24      0.00
    2   12    9     -0.11      0.00
    3   12    9      1.18      0.00
    4   12    9     -1.40      0.00
    5   12    9      1.74      0.00
    6   12    9      1.22      0.00
    7   12    9     -0.89      0.00
    8   12    9      1.07      0.00
    9   12    9     -0.48      0.00
   10   12    9     -1.79      0.00
  -10   13    9     -1.71      0.00
   -9   13    9     -0.01      0.00
   -8   13    9      0.94      0.00
   -7   13    9     -0.94      0.00
   -6   13    9      2.80      0.00
   -5   13    9      0.91      0.00
   -4   13    9     -4.33      0.00
   -3   13    9     -1.61      0.00
   -2   13    9     -0.06      0.00
   -1   13    9     -1.80      0.00
    0   13    9      1.53      0.00
    1   13    9      0.16      0.00
    2   13    9     -1.43      0.00
    3   13    9     -0.68      0.00
    4   13    9     -0.96      0.00
    5   13    9     -0.41      0.00
    6   13    9      3.06      0.00
    7   13    9     -0.81      0.00
    8   13    9     -1.31      0.00
    9   13    9     -0.97      0.00
   -9   14    9     -0.15      0.00
   -8   14    9      1.54      0.00
   -7   14    9      0.38      0.00
   -6   14    9     -1.07      0.00
   -5   14    9     -0.09      0.00
   -4   14    9     -1.92      0.00
   -3   14    9     -2.04      0.00
   -2   14    9      3.22      0.00
   -1   14    9      0.23      0.00
    0   14    9     -1.13      0.00
    1   14    9     -1.14      0.00
    2   14    9      0.55      0.00
    3   14    9      0.43      0.00
    4   14    9      3.76      0.00
    5   14    9      0.74      0.00
    6   14    9     -2.21      0.00
    7   14    9     -0.95      0.00
    8   14    9     -0.29      0.00
   -7   15    9     -0.54      0.00
   -6   15    9      1.06      0.00
   -5   15    9      0.18      0.00
   -4   15    9      0.35      0.00
   -3   15    9      2.84      0.00
   -2   15    9     -0.55      0.00
   -1   15    9      1.18      0.00
    0   15    9     -0.73      0.00
    1   15    9      0.19      0.00
    2   15    9     -0.06      0.00
    3   15    9      0.15      0.00
    4   15    9     -0.16      0.00
    5   15    9      1.32      0.00
    6   15    9     -0.16      0.00
   -5   16    9      0.82      0.00
   -4   16    9     -0.57      0.00
   -3   16    9      1.03      0.00
   -2   16    9      0.09      0.00
   -1   16    9     -0.65      0.00
    0   16    9      0.11      0.00
    1   16    9      0.49      0.00
    2   16    9     -1.09      0.00
    3   16    9      1.25      0.00
    4   16    9      0.35      0.00
  -14    0   10      0.40      0.00
  -12    0   10     -2.09      0.00
  -10    0   10      4.52      0.00
   -8    0   10     -0.32      0.00
   -6    0   10     -4.89      0.00
   -4    0   10     -4.50      0.00
   -2    0   10     -0.37      0.00
    0    0   10    -21.76      0.00
    2    0   10    -22.86      0.00
    4    0   10     -4.48      0.00
    6    0   10     -2.68      0.00
    8    0   10     -1.62      0.00
   10    0   10      0.00      0.00
   12    0   10      0.37      0.00
   14    0   10     -1.79      0.00
  -15    1   10      1.98      0.00
  -14    1   10     -1.28      0.00
  -13    1   10     -1.14      0.00
  -12    1   10      0.96      0.00
  -11    1   10      2.03      0.00
  -10    1   10      2.99      0.00
   -9    1   10     13.25      0.00
   -8    1   10     -7.27      0.00
   -7    1   10      5.63      0.00
   -6    1   10     -1.82      0.00
   -5    1   10    -12.73      0.00
   -4    1   10     25.16      0.00
   -3    1   10    -10.44      0.00
   -2    1   10      4.05      0.00
   -1    1   10    -20.43      0.00
    0    1   10     21.74      0.00
    1    1   10      6.86      0.00
    2    1   10      7.83      0.00
    3    1   10     22.68      0.00
    4    1   10    -29.84      0.00
    5    1   10     -7.85      0.00
    6    1   10     -9.14      0.00
    7    1   10    -12.40      0.00
    8    1   10     11.05      0.00
    9    1   10      3.33      0.00
   10    1   10     -0.85      0.00
   11    1   10      1.41      0.00
   12    1   10     -1.67      0.00
   13    1   10     -0.98      0.00
   14    1   10      0.22      0.00
   15    1   10      0.29      0.00
  -15    2   10     -2.03      0.00
  -14    2   10     -3.31      0.00
  -13    2   10     -1.50      0.00
  -12    2   10     -0.27      0.00
  -11    2   10      1.14      0.00
  -10    2   10      1.95      0.00
   -9    2   10      0.17      0.00
   -8    2   10     -1.70      0.00
   -7    2   10      1.05      0.00
   -6    2   10     -4.04      0.00
   -5    2   10      9.88      0.00
   -4    2   10     -3.58      0.00
   -3    2   10     13.14      0.00
   -2    2   10     12.51      0.00
   -1    2   10      3.65      0.00
    0    2   10     -0.69      0.00
    1    2   10      6.56      0.00
    2    2   10    -10.26      0.00
    3    2   10      1.63      0.00
    4    2   10     -4.18      0.00
    5    2   10     -8.19      0.00
    6    2   10     13.22      0.00
    7    2   10      0.34      0.00
    8    2   10      4.25      0.00
    9    2   10      5.28      0.00
   10    2   10     -0.55      0.00
   11    2   10      0.01      0.00
   12    2   10     -1.01      0.00
   13    2   10     -3.13      0.00
   14    2   10      0.51      0.00
   15    2   10     -0.78      0.00
  -15    3   10     -1.84      0.00
  -14    3   10      0.68      0.00
  -13    3   10      1.48      0.00
  -12    3   10      0.16      0.00
  -11    3   10      0.66      0.00
  -10    3   10     -3.73      0.00
   -9    3   10     -4.02      0.00
   -8    3   10     -8.07      0.00
   -7    3   10      5.57      0.00
   -6    3   10     -3.75      0.00
   -5    3   10     -4.66      0.00
   -4    3   10      2.28      0.00
   -3    3   10    -31.46      0.00
   -2    3   10    -19.85      0.00
   -1    3   10      9.98      0.00
    0    3   10     -5.50      0.00
    1    3   10     20.88      0.00
    2    3   10      6.46      0.00
    3    3   10    -21.26      0.00
    4    3   10      2.47      0.00
    5    3   10     -1.13      0.00
    6    3   10     -0.42      0.00
    7    3   10      8.13      0.00
    8    3   10      0.20      0.00
    9    3   10     -2.62      0.00
   10    3   10     -2.12      0.00
   11    3   10     -0.55      0.00
   12    3   10      2.16      0.00
   13    3   10      1.40      0.00
   14    3   10      0.58      0.00
   15    3   10     -0.43      0.00
  -15    4   10     -0.19      0.00
  -14    4   10      0.53      0.00
  -13    4   10     -0.40      0.00
  -12    4   10      1.30      0.00
  -11    4   10     -2.34      0.00
  -10    4   10      0.11      0.00
   -9    4   10      3.30      0.00
   -8    4   10      2.93      0.00
   -7    4   10      7.15      0.00
   -6    4   10     -5.09      0.00
   -5    4   10     -7.91      0.00
   -4    4   10    -12.40      0.00
   -3    4   10    -18.31      0.00
   -2    4   10     -7.78      0.00
   -1    4   10    -17.38      0.00
    0    4   10     -5.32      0.00
    1    4   10    -12.84      0.00
    2    4   10     -2.06      0.00
    3    4   10     13.15      0.00
    4    4   10      0.97      0.00
    5    4   10     16.17      0.00
    6    4   10      3.05      0.00
    7    4   10     -2.19      0.00
    8    4   10     -1.65      0.00
    9    4   10     -6.47      0.00
   10    4   10     -2.36      0.00
   11    4   10      0.34      0.00
   12    4   10     -0.44      0.00
   13    4   10      0.51      0.00
   14    4   10      0.59      0.00
  -15    5   10     -1.29      0.00
  -14    5   10      1.94      0.00
  -13    5   10     -1.54      0.00
  -12    5   10      0.18      0.00
  -11    5   10     -2.34      0.00
  -10    5   10      1.23      0.00
   -9    5   10      0.71      0.00
   -8    5   10      4.82      0.00
   -7    5   10      6.96      0.00
   -6    5   10     -5.98      0.00
   -5    5   10     -1.53      0.00
   -4    5   10     -8.09      0.00
   -3    5   10    -17.31      0.00
   -2    5   10     15.23      0.00
   -1    5   10     -2.17      0.00
    0    5   10      3.72      0.00
    1    5   10     10.87      0.00
    2    5   10    -16.05      0.00
    3    5   10      1.11      0.00
    4    5   10      7.60      0.00
    5    5   10     -5.36      0.00
    6    5   10      2.04      0.00
    7    5   10     -3.43      0.00
    8    5   10     -5.36      0.00
    9    5   10      3.42      0.00
   10    5   10      0.95      0.00
   11    5   10     -0.32      0.00
   12    5   10      0.21      0.00
   13    5   10     -0.27      0.00
   14    5   10     -1.52      0.00
  -14    6   10     -0.64      0.00
  -13    6   10      0.01      0.00
  -12    6   10     -0.10      0.00
  -11    6   10      0.92      0.00
  -10    6   10      7.09      0.00
   -9    6   10     -0.87      0.00
   -8    6   10      5.40      0.00
   -7    6   10      0.59      0.00
   -6    6   10     -6.49      0.00
   -5    6   10     -6.48      0.00
   -4    6   10      1.47      0.00
   -3    6   10      3.73      0.00
   -2    6   10      2.68      0.00
   -1    6   10     13.18      0.00
    0    6   10     -2.79      0.00
    1    6   10      4.92      0.00
    2    6   10      5.88      0.00
    3    6   10    -11.92      0.00
    4    6   10      6.73      0.00
    5    6   10     -6.34      0.00
    6    6   10      0.49      0.00
    7    6   10      5.76      0.00
    8    6   10     -0.37      0.00
    9    6   10      3.41      0.00
   10    6   10      1.45      0.00
   11    6   10      0.01      0.00
   12    6   10     -0.23      0.00
   13    6   10     -0.63      0.00
   14    6   10      0.15      0.00
  -14    7   10     -0.77      0.00
  -13    7   10     -2.85      0.00
  -12    7   10     -0.72      0.00
  -11    7   10     -0.30      0.00
  -10    7   10     -0.88      0.00
   -9    7   10      6.83      0.00
   -8    7   10     -4.75      0.00
   -7    7   10     -1.54      0.00
   -6    7   10     -3.20      0.00
   -5    7   10     -7.43      0.00
   -4    7   10      4.78      0.00
   -3    7   10      8.05      0.00
   -2    7   10      1.07      0.00
   -1    7   10     -1.63      0.00
    0    7   10     -5.80      0.00
    1    7   10     -6.98      0.00
    2    7   10     -0.64      0.00
    3    7   10      7.67      0.00
    4    7   10      1.00      0.00
    5    7   10     -4.78      0.00
    6    7   10      0.99      0.00
    7    7   10     -3.49      0.00
    8    7   10      0.72      0.00
    9    7   10      4.59      0.00
   10    7   10      2.68      0.00
   11    7   10      2.36      0.00
   12    7   10     -1.28      0.00
   13    7   10     -0.10      0.00
  -13    8   10     -1.35      0.00
  -12    8   10      1.58      0.00
  -11    8   10     -0.60      0.00
  -10    8   10      1.57      0.00
   -9    8   10     -2.93      0.00
   -8    8   10     -1.38      0.00
   -7    8   10     -4.03      0.00
   -6    8   10     -0.96      0.00
   -5    8   10      3.42      0.00
   -4    8   10     -3.39      0.00
   -3    8   10     -5.74      0.00
   -2    8   10     -1.01      0.00
   -1    8   10     -9.77      0.00
    0    8   10      1.61      0.00
    1    8   10      9.90      0.00
    2    8   10     -6.07      0.00
    3    8   10      3.37      0.00
    4    8   10     -1.16      0.00
    5    8   10     -5.77      0.00
    6    8   10      4.47      0.00
    7    8   10      0.03      0.00
    8    8   10      0.78      0.00
    9    8   10      0.14      0.00
   10    8   10     -1.11      0.00
   11    8   10     -0.62      0.00
   12    8   10      1.12      0.00
   13    8   10      0.59      0.00
  -13    9   10      0.66      0.00
  -12    9   10      1.49      0.00
  -11    9   10     -1.57      0.00
  -10    9   10      2.06      0.00
   -9    9   10     -0.90      0.00
   -8    9   10     -0.28      0.00
   -7    9   10      2.47      0.00
   -6    9   10      4.39      0.00
   -5    9   10      0.90      0.00
   -4    9   10      2.97      0.00
   -3    9   10     -7.59      0.00
   -2    9   10     -5.80      0.00
   -1    9   10     -1.18      0.00
    0    9   10     -8.04      0.00
    1    9   10      3.13      0.00
    2    9   10      8.58      0.00
    3    9   10     -2.77      0.00
    4    9   10      4.16      0.00
    5    9   10     -1.48      0.00
    6    9   10     -0.13      0.00
    7    9   10      1.83      0.00
    8    9   10     -1.85      0.00
    9    9   10     -2.78      0.00
   10    9   10     -1.54      0.00
   11    9   10      0.94      0.00
   12    9   10      0.22      0.00
  -12   10   10     -0.41      0.00
  -11   10   10      0.26      0.00
  -10   10   10      0.20      0.00
   -9   10   10      2.01      0.00
   -8   10   10      0.80      0.00
   -7   10   10      0.89      0.00
   -6   10   10      5.80      0.00
   -5   10   10     -3.07      0.00
   -4   10   10     -3.60      0.00
   -3   10   10      2.49      0.00
   -2   10   10     -2.84      0.00
   -1   10   10      6.61      0.00
    0   10   10      9.50      0.00
    1   10   10     -0.57      0.00
    2   10   10      1.78      0.00
    3   10   10      0.32      0.00
    4   10   10     -1.51      0.00
    5   10   10      0.65      0.00
    6   10   10      0.73      0.00
    7   10   10     -1.98      0.00
    8   10   10      0.93      0.00
    9   10   10      0.42      0.00
   10   10   10     -1.88      0.00
   11   10   10      0.07      0.00
   12   10   10     -1.04      0.00
  -11   11   10      1.70      0.00
  -10   11   10     -1.54      0.00
   -9   11   10      2.24      0.00
   -8   11   10      1.41      0.00
   -7   11   10      0.79      0.00
   -6   11   10     -1.01      0.00
   -5   11   10     -0.84      0.00
   -4   11   10     -2.27      0.00
   -3   11   10     -4.55      0.00
   -2   11   10      8.75      0.00
   -1   11   10      4.01      0.00
    0   11   10      2.28      0.00
    1   11   10      9.59      0.00
    2   11   10     -4.32      0.00
    3   11   10      0.47      0.00
    4   11   10     -0.60      0.00
    5   11   10      0.31      0.00
    6   11   10      3.49      0.00
    7   11   10      1.03      0.00
    8   11   10      1.13      0.00
    9   11   10     -0.57      0.00
   10   11   10      0.86      0.00
   11   11   10      0.56      0.00
  -11   12   10     -1.19      0.00
  -10   12   10      0.58      0.00
   -9   12   10      0.01      0.00
   -8   12   10      0.14      0.00
   -7   12   10      1.22      0.00
   -6   12   10     -4.13      0.00
   -5   12   10     -3.24      0.00
   -4   12   10      0.10      0.00
   -3   12   10     -1.30      0.00
   -2   12   10      3.23      0.00
   -1   12   10      3.46      0.00
    0   12   10     -2.95      0.00
    1   12   10     -2.48      0.00
    2   12   10     -1.44      0.00
    3   12   10     -0.05      0.00
    4   12   10      1.53      0.00
    5   12   10      1.90      0.00
    6   12   10     -0.74      0.00
    7   12   10     -1.00      0.00
    8   12   10      0.09      0.00
    9   12   10     -0.14      0.00
   10   12   10      0.45      0.00
  -10   13   10      0.47      0.00
   -9   13   10      1.31      0.00
   -8   13   10     -1.19      0.00
   -7   13   10     -0.93      0.00
   -6   13   10      0.83      0.00
   -5   13   10     -1.97      0.00
   -4   13   10     -0.60      0.00
   -3   13   10      2.80      0.00
   -2   13   10     -1.50      0.00
   -1   13   10     -3.75      0.00
    0   13   10     -2.11      0.00
    1   13   10     -0.72      0.00
    2   13   10     -0.76      0.00
    3   13   10      1.10      0.00
    4   13   10     -0.14      0.00
    5   13   10     -0.24      0.00
    6   13   10     -0.97      0.00
    7   13   10     -0.84      0.00
    8   13   10     -1.52      0.00
    9   13   10      1.26      0.00
   -8   14   10      0.51      0.00
   -7   14   10      1.59      0.00
   -6   14   10     -1.27      0.00
   -5   14   10      1.82      0.00
   -4   14   10     -0.35      0.00
   -3   14   10     -0.34      0.00
   -2   14   10     -0.52      0.00
   -1   14   10     -1.66      0.00
    0   14   10     -1.79      0.00
    1   14   10      0.62      0.00
    2   14   10      0.03      0.00
    3   14   10      2.48      0.00
    4   14   10      1.09      0.00
    5   14   10     -2.10      0.00
    6   14   10     -1.62      0.00
    7   14   10      0.81      0.00
    8   14   10     -0.93      0.00
   -7   15   10      0.15      0.00
   -6   15   10     -0.69      0.00
   -5   15   10      0.51      0.00
   -4   15   10      2.28      0.00
   -3   15   10     -0.63      0.00
   -2   15   10     -0.27      0.00
   -1   15   10      1.21      0.00
    0   15   10      1.35      0.00
    1   15   10      0.67      0.00
    2   15   10      1.80      0.00
    3   15   10     -0.23      0.00
    4   15   10     -0.46      0.00
    5   15   10     -0.05      0.00
    6   15   10     -0.91      0.00
   -4   16   10     -0.22      0.00
   -3   16   10     -0.07      0.00
   -2   16   10      0.17      0.00
   -1   16   10      0.22      0.00
    0   16   10      2.64      0.00
    1   16   10     -0.19      0.00
    2   16   10     -0.27      0.00
    3   16   10     -1.06      0.00
    4   16   10     -1.27      0.00
  -15    0   11     -3.68      0.00
  -13    0   11      3.82      0.00
  -11    0   11      2.70      0.00
   -9    0   11     -7.68      0.00
   -7    0   11     -7.01      0.00
   -5    0   11      7.76      0.00
   -3    0   11     -4.98      0.00
   -1    0   11    -13.74      0.00
    1    0   11    -21.58      0.00
    3    0   11    -11.58      0.00
    5    0   11      8.35      0.00
    7    0   11      4.63      0.00
    9    0   11     -4.63      0.00
   11    0   11      1.01      0.00
   13    0   11      0.73      0.00
   15    0   11     -0.52      0.00
  -15    1   11      0.22      0.00
  -14    1   11     -0.05      0.00
  -13    1   11      1.99      0.00
  -12    1   11      5.10      0.00
  -11    1   11     -1.92      0.00
  -10    1   11      2.42      0.00
   -9    1   11     -1.98      0.00
   -8    1   11      2.93      0.00
   -7    1   11      3.33      0.00
   -6    1   11     -6.22      0.00
   -5    1   11     -1.52      0.00
   -4    1   11    -14.71      0.00
   -3    1   11     -9.64      0.00
   -2    1   11    -42.26      0.00
   -1    1   11     24.19      0.00
    0    1   11      8.63      0.00
    1    1   11     20.95      0.00
    2    1   11     26.88      0.00
    3    1   11    -15.24      0.00
    4    1   11      0.41      0.00
    5    1   11     -8.13      0.00
    6    1   11     -2.31      0.00
    7    1   11     -0.44      0.00
    8    1   11      4.69      0.00
    9    1   11     -1.41      0.00
   10    1   11     -2.28      0.00
   11    1   11     -0.91      0.00
   12    1   11     -0.81      0.00
   13    1   11      1.22      0.00
   14    1   11      0.05      0.00
   15    1   11     -0.54      0.00
  -15    2   11     -1.32      0.00
  -14    2   11      0.22      0.00
  -13    2   11     -3.05      0.00
  -12    2   11     -0.77      0.00
  -11    2   11      0.41      0.00
  -10    2   11     -1.10      0.00
   -9    2   11      0.60      0.00
   -8    2   11     13.90      0.00
   -7    2   11    -12.93      0.00
   -6    2   11     12.19      0.00
   -5    2   11    -13.65      0.00
   -4    2   11     -8.31      0.00
   -3    2   11     22.40      0.00
   -2    2   11      2.85      0.00
   -1    2   11     25.32      0.00
    0    2   11      1.43      0.00
    1    2   11    -10.29      0.00
    2    2   11    -12.55      0.00
    3    2   11    -10.83      0.00
    4    2   11      1.18      0.00
    5    2   11     -0.63      0.00
    6    2   11      7.47      0.00
    7    2   11      3.76      0.00
    8    2   11     -2.17      0.00
    9    2   11      3.58      0.00
   10    2   11      2.45      0.00
   11    2   11      1.14      0.00
   12    2   11     -0.36      0.00
   13    2   11     -0.56      0.00
   14    2   11     -0.35      0.00
  -15    3   11     -1.06      0.00
  -14    3   11      0.48      0.00
  -13    3   11      1.50      0.00
  -12    3   11     -0.99      0.00
  -11    3   11     -0.85      0.00
  -10    3   11      2.29      0.00
   -9    3   11     -6.30      0.00
   -8    3   11      2.79      0.00
   -7    3   11     -8.46      0.00
   -6    3   11    -15.99      0.00
   -5    3   11     -2.65      0.00
   -4    3   11    -12.70      0.00
   -3    3   11     -5.24      0.00
   -2    3   11     24.57      0.00
   -1    3   11      6.45      0.00
    0    3   11     14.00      0.00
    1    3   11      0.82      0.00
    2    3   11    -14.37      0.00
    3    3   11     -4.15      0.00
    4    3   11     -3.45      0.00
    5    3   11     -3.03      0.00
    6    3   11     -6.31      0.00
    7    3   11     -1.32      0.00
    8    3   11     -2.09      0.00
    9    3   11     -2.99      0.00
   10    3   11      4.25      0.00
   11    3   11     -1.66      0.00
   12    3   11      0.95      0.00
   13    3   11      1.02      0.00
   14    3   11     -1.73      0.00
  -15    4   11      1.66      0.00
  -14    4   11     -1.05      0.00
  -13    4   11      0.88      0.00
  -12    4   11      0.32      0.00
  -11    4   11      3.45      0.00
  -10    4   11      3.24      0.00
   -9    4   11      1.36      0.00
   -8    4   11      2.04      0.00
   -7    4   11     -5.44      0.00
   -6    4   11      2.85      0.00
   -5    4   11    -12.27      0.00
   -4    4   11      9.89      0.00
   -3    4   11      4.74      0.00
   -2    4   11    -12.13      0.00
   -1    4   11     -3.70      0.00
    0    4   11    -15.80      0.00
    1    4   11    -11.64      0.00
    2    4   11     -1.89      0.00
    3    4   11      8.29      0.00
    4    4   11      5.82      0.00
    5    4   11      9.82      0.00
    6    4   11      3.56      0.00
    7    4   11      0.79      0.00
    8    4   11      2.90      0.00
    9    4   11     -4.06      0.00
   10    4   11     -2.12      0.00
   11    4   11     -0.90      0.00
   12    4   11     -0.38      0.00
   13    4   11      0.69      0.00
   14    4   11      0.45      0.00
  -14    5   11     -0.71      0.00
  -13    5   11      0.73      0.00
  -12    5   11     -0.79      0.00
  -11    5   11      1.92      0.00
  -10    5   11     -0.64      0.00
   -9    5   11      3.16      0.00
   -8    5   11     -0.05      0.00
   -7    5   11     -7.73      0.00
   -6    5   11      4.73      0.00
   -5    5   11      1.16      0.00
   -4    5   11      1.73      0.00
   -3    5   11     14.98      0.00
   -2    5   11      0.08      0.00
   -1    5   11     -5.02      0.00
    0    5   11     -1.42      0.00
    1    5   11     -1.65      0.00
    2    5   11      4.60      0.00
    3    5   11     17.47      0.00
    4    5   11      7.25      0.00
    5    5   11      0.09      0.00
    6    5   11     -0.38      0.00
    7    5   11     -7.11      0.00
    8    5   11     -2.49      0.00
    9    5   11      1.87      0.00
   10    5   11      1.16      0.00
   11    5   11     -0.81      0.00
   12    5   11      0.00      0.00
   13    5   11     -1.13      0.00
   14    5   11     -0.02      0.00
  -14    6   11      0.22      0.00
  -13    6   11      1.72      0.00
  -12    6   11      0.94      0.00
  -11    6   11      4.56      0.00
  -10    6   11      1.27      0.00
   -9    6   11      2.55      0.00
   -8    6   11     -1.51      0.00
   -7    6   11     -3.57      0.00
   -6    6   11      0.04      0.00
   -5    6   11      0.57      0.00
   -4    6   11      0.32      0.00
   -3    6   11    -11.65      0.00
   -2    6   11     -0.18      0.00
   -1    6   11     -4.46      0.00
    0    6   11     12.29      0.00
    1    6   11     13.38      0.00
    2    6   11     11.92      0.00
    3    6   11      3.55      0.00
    4    6   11     -6.26      0.00
    5    6   11      4.46      0.00
    6    6   11     -4.23      0.00
    7    6   11      5.96      0.00
    8    6   11      6.46      0.00
    9    6   11     -1.27      0.00
   10    6   11      2.80      0.00
   11    6   11     -1.81      0.00
   12    6   11     -0.46      0.00
   13    6   11      0.08      0.00
   14    6   11     -0.60      0.00
  -14    7   11     -0.83      0.00
  -13    7   11      1.00      0.00
  -12    7   11     -0.14      0.00
  -11    7   11     -2.47      0.00
  -10    7   11      1.85      0.00
   -9    7   11     -0.06      0.00
   -8    7   11     -3.44      0.00
   -7    7   11      1.82      0.00
   -6    7   11     -0.45      0.00
   -5    7   11     -0.90      0.00
   -4    7   11     -1.28      0.00
   -3    7   11     -2.72      0.00
   -2    7   11      3.67      0.00
   -1    7   11     -2.81      0.00
    0    7   11     11.05      0.00
    1    7   11     -4.61      0.00
    2    7   11      3.97      0.00
    3    7   11     -0.18      0.00
    4    7   11    -16.78      0.00
    5    7   11      4.38      0.00
    6    7   11     -3.02      0.00
    7    7   11      0.98      0.00
    8    7   11      6.39      0.00
    9    7   11     -0.30      0.00
   10    7   11      1.97      0.00
   11    7   11      2.42      0.00
   12    7   11      1.22      0.00
   13    7   11     -0.43      0.00
  -13    8   11      0.61      0.00
  -12    8   11     -2.06      0.00
  -11    8   11      2.72      0.00
  -10    8   11     -2.56      0.00
   -9    8   11      2.79      0.00
   -8    8   11     -1.51      0.00
   -7    8   11     -4.30      0.00
   -6    8   11      0.54      0.00
   -5    8   11     -4.32      0.00
   -4    8   11     -8.90      0.00
   -3    8   11      2.53      0.00
   -2    8   11      3.08      0.00
   -1    8   11      6.02      0.00
    0    8   11     10.31      0.00
    1    8   11     -3.63      0.00
    2    8   11     -6.06      0.00
    3    8   11     -5.82      0.00
    4    8   11     -3.57      0.00
    5    8   11      0.83      0.00
    6    8   11      0.27      0.00
    7    8   11     -0.05      0.00
    8    8   11     -2.05      0.00
    9    8   11      1.33      0.00
   10    8   11     -2.49      0.00
   11    8   11     -0.06      0.00
   12    8   11      0.23      0.00
   13    8   11     -0.15      0.00
  -13    9   11      0.36      0.00
  -12    9   11     -0.20      0.00
  -11    9   11      2.55      0.00
  -10    9   11     -0.37      0.00
   -9    9   11     -0.06      0.00
   -8    9   11      2.37      0.00
   -7    9   11      4.80      0.00
   -6    9   11     -2.55      0.00
   -5    9   11      7.50      0.00
   -4    9   11     -1.52      0.00
   -3    9   11      0.83      0.00
   -2    9   11      4.53      0.00
   -1    9   11     -2.69      0.00
    0    9   11     -2.64      0.00
    1    9   11     -1.95      0.00
    2    9   11     -2.58      0.00
    3    9   11     -2.59      0.00
    4    9   11      1.40      0.00
    5    9   11      4.40      0.00
    6    9   11      0.04      0.00
    7    9   11      2.00      0.00
    8    9   11     -2.10      0.00
    9    9   11     -2.06      0.00
   10    9   11     -1.68      0.00
   11    9   11     -0.98      0.00
   12    9   11      1.18      0.00
  -12   10   11      1.00      0.00
  -11   10   11     -0.98      0.00
  -10   10   11      0.12      0.00
   -9   10   11      2.40      0.00
   -8   10   11     -0.67      0.00
   -7   10   11      1.49      0.00
   -6   10   11     -1.80      0.00
   -5   10   11     -0.64      0.00
   -4   10   11      3.21      0.00
   -3   10   11      6.12      0.00
   -2   10   11      5.22      0.00
   -1   10   11      3.23      0.00
    0   10   11      0.83      0.00
    1   10   11     -5.36      0.00
    2   10   11      1.73      0.00
    3   10   11      5.86      0.00
    4   10   11      2.07      0.00
    5   10   11      5.50      0.00
    6   10   11     -1.02      0.00
    7   10   11     -4.03      0.00
    8   10   11     -1.54      0.00
    9   10   11     -0.41      0.00
   10   10   11     -0.94      0.00
   11   10   11      0.28      0.00
  -11   11   11     -0.18      0.00
  -10   11   11      1.56      0.00
   -9   11   11      1.53      0.00
   -8   11   11      1.08      0.00
   -7   11   11     -2.71      0.00
   -6   11   11     -1.78      0.00
   -5   11   11      1.59      0.00
   -4   11   11     -4.60      0.00
   -3   11   11      5.97      0.00
   -2   11   11      0.91      0.00
   -1   11   11     -4.63      0.00
    0   11   11      5.68      0.00
    1   11   11      4.07      0.00
    2   11   11      1.82      0.00
    3   11   11      3.02      0.00
    4   11   11      3.67      0.00
    5   11   11     -3.51      0.00
    6   11   11      0.41      0.00
    7   11   11      0.08      0.00
    8   11   11     -1.55      0.00
    9   11   11      3.25      0.00
   10   11   11      0.31      0.00
   11   11   11     -0.09      0.00
  -10   12   11      0.79      0.00
   -9   12   11     -1.59      0.00
   -8   12   11      1.06      0.00
   -7   12   11     -1.22      0.00
   -6   12   11     -3.47      0.00
   -5   12   11      0.65      0.00
   -4   12   11     -0.57      0.00
   -3   12   11     -0.01      0.00
   -2   12   11     -2.54      0.00
   -1   12   11      2.35      0.00
    0   12   11     -1.87      0.00
    1   12   11      1.94      0.00
    2   12   11      3.89      0.00
    3   12   11     -4.01      0.00
    4   12   11      0.10      0.00
    5   12   11     -3.67      0.00
    6   12   11     -1.92      0.00
    7   12   11      3.00      0.00
    8   12   11      0.35      0.00
    9   12   11      0.39      0.00
   10   12   11      0.71      0.00
   -9   13   11      0.56      0.00
   -8   13   11     -1.30      0.00
   -7   13   11     -0.17      0.00
   -6   13   11     -0.82      0.00
   -5   13   11     -1.31      0.00
   -4   13   11      0.45      0.00
   -3   13   11      0.42      0.00
   -2   13   11     -2.74      0.00
   -1   13   11     -0.53      0.00
    0   13   11      1.33      0.00
    1   13   11     -1.96      0.00
    2   13   11      0.63      0.00
    3   13   11     -0.92      0.00
    4   13   11     -1.93      0.00
    5   13   11     -0.45      0.00
    6   13   11     -0.35      0.00
    7   13   11     -0.34      0.00
    8   13   11      1.44      0.00
    9   13   11      0.22      0.00
   -8   14   11      1.88      0.00
   -7   14   11     -0.34      0.00
   -6   14   11      2.22      0.00
   -5   14   11      2.15      0.00
   -4   14   11     -0.59      0.00
   -3   14   11     -0.31      0.00
   -2   14   11      0.27      0.00
   -1   14   11     -1.29      0.00
    0   14   11     -0.53      0.00
    1   14   11     -0.45      0.00
    2   14   11     -1.81      0.00
    3   14   11     -1.08      0.00
    4   14   11     -0.69      0.00
    5   14   11     -0.78      0.00
    6   14   11      1.45      0.00
    7   14   11      0.98      0.00
   -6   15   11     -0.11      0.00
   -5   15   11      0.40      0.00
   -4   15   11      0.55      0.00
   -3   15   11     -0.40      0.00
   -2   15   11      1.75      0.00
   -1   15   11      2.43      0.00
    0   15   11     -0.17      0.00
    1   15   11      0.35      0.00
    2   15   11     -0.58      0.00
    3   15   11     -1.61      0.00
    4   15   11      1.66      0.00
    5   15   11      1.06      0.00
    6   15   11     -0.77      0.00
   -3   16   11      1.02      0.00
   -2   16   11      0.28      0.00
   -1   16   11      1.62      0.00
    0   16   11     -0.48      0.00
    1   16   11      0.11      0.00
    2   16   11      0.20      0.00
    3   16   11     -0.30      0.00
  -14    0   12      1.07      0.00
  -12    0   12      1.28      0.00
  -10    0   12     -2.35      0.00
   -8    0   12     -6.79      0.00
   -6    0   12     -2.11      0.00
   -4    0   12      7.03      0.00
   -2    0   12     29.33      0.00
    0    0   12    -18.89      0.00
    2    0   12    -44.21      0.00
    4    0   12     14.30      0.00
    6    0   12     21.83      0.00
    8    0   12     -7.44      0.00
   10    0   12     -1.31      0.00
   12    0   12      2.61      0.00
   14    0   12      1.34      0.00
  -15    1   12      0.49      0.00
  -14    1   12      1.36      0.00
  -13    1   12      1.86      0.00
  -12    1   12      0.06      0.00
  -11    1   12      0.14      0.00
  -10    1   12      1.98      0.00
   -9    1   12     -2.90      0.00
   -8    1   12     -1.46      0.00
   -7    1   12     -3.25      0.00
   -6    1   12     -5.33      0.00
   -5    1   12    -11.22      0.00
   -4    1   12      2.21      0.00
   -3    1   12    -18.90      0.00
   -2    1   12      6.07      0.00
   -1    1   12     -0.44      0.00
    0    1   12    -12.88      0.00
    1    1   12     13.06      0.00
    2    1   12      4.01      0.00
    3    1   12      9.72      0.00
    4    1   12     16.51      0.00
    5    1   12      5.36      0.00
    6    1   12     -5.34      0.00
    7    1   12      3.06      0.00
    8    1   12     -7.03      0.00
    9    1   12      0.24      0.00
   10    1   12      0.23      0.00
   11    1   12     -2.69      0.00
   12    1   12      0.83      0.00
   13    1   12      0.26      0.00
   14    1   12     -0.43      0.00
  -15    2   12      3.46      0.00
  -14    2   12      0.39      0.00
  -13    2   12     -2.47      0.00
  -12    2   12     -1.81      0.00
  -11    2   12      1.30      0.00
  -10    2   12     -2.13      0.00
   -9    2   12      5.95      0.00
   -8    2   12    -10.76      0.00
   -7    2   12      8.10      0.00
   -6    2   12     -7.78      0.00
   -5    2   12     -0.59      0.00
   -4    2   12      9.40      0.00
   -3    2   12      0.88      0.00
   -2    2   12     12.83      0.00
   -1    2   12    -22.05      0.00
    0    2   12      4.77      0.00
    1    2   12    -18.22      0.00
    2    2   12      1.76      0.00
    3    2   12      9.08      0.00
    4    2   12     -6.04      0.00
    5    2   12      7.63      0.00
    6    2   12     -3.46      0.00
    7    2   12      0.56      0.00
    8    2   12      1.86      0.00
    9    2   12      1.35      0.00
   10    2   12      3.53      0.00
   11    2   12      1.02      0.00
   12    2   12      0.45      0.00
   13    2   12     -0.87      0.00
   14    2   12      0.93      0.00
  -15    3   12      0.54      0.00
  -14    3   12     -0.02      0.00
  -13    3   12      1.16      0.00
  -12    3   12     -1.89      0.00
  -11    3   12     -0.22      0.00
  -10    3   12      0.68      0.00
   -9    3   12     -1.58      0.00
   -8    3   12     -5.96      0.00
   -7    3   12     -7.11      0.00
   -6    3   12     -9.52      0.00
   -5    3   12      0.12      0.00
   -4    3   12     -3.21      0.00
   -3    3   12      2.59      0.00
   -2    3   12     16.30      0.00
   -1    3   12     -0.23      0.00
    0    3   12      2.57      0.00
    1    3   12     12.57      0.00
    2    3   12     -0.74      0.00
    3    3   12      2.56      0.00
    4    3   12     -5.26      0.00
    5    3   12    -15.75      0.00
    6    3   12    -10.98      0.00
    7    3   12     -6.64      0.00
    8    3   12     -5.43      0.00
    9    3   12      4.27      0.00
   10    3   12      0.49      0.00
   11    3   12      2.35      0.00
   12    3   12     -0.09      0.00
   13    3   12     -1.73      0.00
   14    3   12     -0.38      0.00
  -15    4   12      0.24      0.00
  -14    4   12     -0.20      0.00
  -13    4   12     -0.27      0.00
  -12    4   12      3.75      0.00
  -11    4   12      0.58      0.00
  -10    4   12      1.70      0.00
   -9    4   12      0.87      0.00
   -8    4   12    -11.40      0.00
   -7    4   12      6.13      0.00
   -6    4   12     -2.42      0.00
   -5    4   12      6.78      0.00
   -4    4   12     14.03      0.00
   -3    4   12     -8.58      0.00
   -2    4   12     -3.36      0.00
   -1    4   12      6.43      0.00
    0    4   12     -7.25      0.00
    1    4   12      6.34      0.00
    2    4   12      9.38      0.00
    3    4   12    -17.70      0.00
    4    4   12      1.58      0.00
    5    4   12     -5.29      0.00
    6    4   12      1.18      0.00
    7    4   12      9.00      0.00
    8    4   12      4.26      0.00
    9    4   12      1.35      0.00
   10    4   12     -3.44      0.00
   11    4   12     -1.02      0.00
   12    4   12     -1.56      0.00
   13    4   12      0.35      0.00
   14    4   12      0.21      0.00
  -14    5   12      1.46      0.00
  -13    5   12      0.19      0.00
  -12    5   12      1.48      0.00
  -11    5   12     -1.40      0.00
  -10    5   12     -0.65      0.00
   -9    5   12     -1.96      0.00
   -8    5   12     -4.47      0.00
   -7    5   12      0.15      0.00
   -6    5   12      8.55      0.00
   -5    5   12      8.53      0.00
   -4    5   12      1.12      0.00
   -3    5   12     16.26      0.00
   -2    5   12      2.53      0.00
   -1    5   12      2.06      0.00
    0    5   12     10.05      0.00
    1    5   12     -8.01      0.00
    2    5   12      8.04      0.00
    3    5   12     -2.91      0.00
    4    5   12     -2.09      0.00
    5    5   12      7.67      0.00
    6    5   12      4.70      0.00
    7    5   12      0.81      0.00
    8    5   12      0.42      0.00
    9    5   12     -1.37      0.00
   10    5   12     -3.07      0.00
   11    5   12      0.02      0.00
   12    5   12     -0.22      0.00
   13    5   12     -0.28      0.00
   14    5   12      1.09      0.00
  -14    6   12      1.25      0.00
  -13    6   12      0.63      0.00
  -12    6   12      0.86      0.00
  -11    6   12      0.61      0.00
  -10    6   12     -0.13      0.00
   -9    6   12     -0.26      0.00
   -8    6   12     -0.83      0.00
   -7    6   12      2.29      0.00
   -6    6   12     -5.36      0.00
   -5    6   12      4.51      0.00
   -4    6   12     -9.71      0.00
   -3    6   12     -3.64      0.00
   -2    6   12      6.15      0.00
   -1    6   12      2.88      0.00
    0    6   12     -0.34      0.00
    1    6   12      9.12      0.00
    2    6   12     -5.04      0.00
    3    6   12      3.67      0.00
    4    6   12     12.48      0.00
    5    6   12      1.73      0.00
    6    6   12      9.72      0.00
    7    6   12      1.90      0.00
    8    6   12     -3.96      0.00
    9    6   12      1.63      0.00
   10    6   12     -1.78      0.00
   11    6   12      0.89      0.00
   12    6   12     -1.35      0.00
   13    6   12     -0.04      0.00
  -13    7   12     -0.47      0.00
  -12    7   12      0.04      0.00
  -11    7   12      0.36      0.00
  -10    7   12     -1.51      0.00
   -9    7   12     -4.01      0.00
   -8    7   12      2.77      0.00
   -7    7   12      1.39      0.00
   -6    7   12      0.36      0.00
   -5    7   12     -3.63      0.00
   -4    7   12     -0.05      0.00
   -3    7   12      0.05      0.00
   -2    7   12     -8.42      0.00
   -1    7   12     12.19      0.00
    0    7   12    -11.07      0.00
    1    7   12      7.08      0.00
    2    7   12      0.31      0.00
    3    7   12     -6.91      0.00
    4    7   12      6.70      0.00
    5    7   12     -6.37      0.00
    6    7   12      1.53      0.00
    7    7   12      0.39      0.00
    8    7   12     -0.98      0.00
    9    7   12      2.41      0.00
   10    7   12     -0.21      0.00
   11    7   12      3.68      0.00
   12    7   12      1.31      0.00
   13    7   12      0.58      0.00
  -13    8   12     -0.75      0.00
  -12    8   12      1.93      0.00
  -11    8   12     -2.77      0.00
  -10    8   12      0.92      0.00
   -9    8   12      3.28      0.00
   -8    8   12     -0.40      0.00
   -7    8   12     -3.77      0.00
   -6    8   12     -3.08      0.00
   -5    8   12     -7.19      0.00
   -4    8   12     -1.43      0.00
   -3    8   12      6.60      0.00
   -2    8   12      3.63      0.00
   -1    8   12      6.58      0.00
    0    8   12     -1.14      0.00
    1    8   12     -2.19      0.00
    2    8   12     -3.60      0.00
    3    8   12      1.49      0.00
    4    8   12      2.29      0.00
    5    8   12     -6.01      0.00
    6    8   12     -1.00      0.00
    7    8   12     -5.39      0.00
    8    8   12     -3.10      0.00
    9    8   12      0.14      0.00
   10    8   12      1.07      0.00
   11    8   12      0.08      0.00
   12    8   12     -0.10      0.00
  -12    9   12      0.22      0.00
  -11    9   12      1.27      0.00
  -10    9   12      2.71      0.00
   -9    9   12     -0.23      0.00
   -8    9   12      3.11      0.00
   -7    9   12     -3.30      0.00
   -6    9   12      1.90      0.00
   -5    9   12      3.97      0.00
   -4    9   12      5.22      0.00
   -3    9   12      4.24      0.00
   -2    9   12      2.19      0.00
   -1    9   12     -4.12      0.00
    0    9   12     -2.47      0.00
    1    9   12      2.34      0.00
    2    9   12     -4.12      0.00
    3    9   12     -0.45      0.00
    4    9   12      1.56      0.00
    5    9   12     -5.44      0.00
    6    9   12     -0.79      0.00
    7    9   12      0.43      0.00
    8    9   12      0.09      0.00
    9    9   12      0.01      0.00
   10    9   12      0.71      0.00
   11    9   12     -1.57      0.00
   12    9   12     -1.12      0.00
  -12   10   12      0.57      0.00
  -11   10   12      0.58      0.00
  -10   10   12      1.06      0.00
   -9   10   12     -3.14      0.00
   -8   10   12     -2.44      0.00
   -7   10   12      0.87      0.00
   -6   10   12      0.42      0.00
   -5   10   12      2.34      0.00
   -4   10   12     11.24      0.00
   -3   10   12      1.61      0.00
   -2   10   12      0.59      0.00
   -1   10   12      5.50      0.00
    0   10   12     -6.21      0.00
    1   10   12      2.21      0.00
    2   10   12      2.87      0.00
    3   10   12     -2.96      0.00
    4   10   12      1.71      0.00
    5   10   12     -0.39      0.00
    6   10   12      0.46      0.00
    7   10   12      2.49      0.00
    8   10   12      0.47      0.00
    9   10   12     -2.88      0.00
   10   10   12      0.35      0.00
   11   10   12     -1.17      0.00
  -11   11   12      0.39      0.00
  -10   11   12     -1.00      0.00
   -9   11   12      0.36      0.00
   -8   11   12     -1.03      0.00
   -7   11   12     -2.37      0.00
   -6   11   12      2.91      0.00
   -5   11   12     -2.20      0.00
   -4   11   12      2.61      0.00
   -3   11   12     -0.12      0.00
   -2   11   12     -4.76      0.00
   -1   11   12      2.61      0.00
    0   11   12      1.76      0.00
    1   11   12     -0.65      0.00
    2   11   12      1.58      0.00
    3   11   12      2.51      0.00
    4   11   12     -0.35      0.00
    5   11   12      1.87      0.00
    6   11   12      0.38      0.00
    7   11   12     -0.43      0.00
    8   11   12      0.24      0.00
    9   11   12     -0.41      0.00
   10   11   12      0.54      0.00
  -10   12   12     -0.64      0.00
   -9   12   12     -0.72      0.00
   -8   12   12     -0.04      0.00
   -7   12   12      0.04      0.00
   -6   12   12     -0.46      0.00
   -5   12   12      0.81      0.00
   -4   12   12      0.32      0.00
   -3   12   12     -7.36      0.00
   -2   12   12      2.48      0.00
   -1   12   12     -2.25      0.00
    0   12   12      0.19      0.00
    1   12   12      3.71      0.00
    2   12   12     -1.13      0.00
    3   12   12     -1.91      0.00
    4   12   12     -3.19      0.00
    5   12   12     -0.19      0.00
    6   12   12     -0.96      0.00
    7   12   12      1.78      0.00
    8   12   12      0.85      0.00
    9   12   12     -1.17      0.00
   -9   13   12     -0.25      0.00
   -8   13   12      0.12      0.00
   -7   13   12      1.43      0.00
   -6   13   12     -1.16      0.00
   -5   13   12     -2.47      0.00
   -4   13   12      0.20      0.00
   -3   13   12     -2.37      0.00
   -2   13   12     -0.49      0.00
   -1   13   12      3.57      0.00
    0   13   12     -0.49      0.00
    1   13   12     -1.82      0.00
    2   13   12      0.21      0.00
    3   13   12     -0.75      0.00
    4   13   12     -0.87      0.00
    5   13   12      2.34      0.00
    6   13   12     -0.61      0.00
    7   13   12     -1.20      0.00
    8   13   12      0.64      0.00
   -7   14   12     -0.17      0.00
   -6   14   12      2.19      0.00
   -5   14   12      0.02      0.00
   -4   14   12      0.95      0.00
   -3   14   12      2.00      0.00
   -2   14   12      0.90      0.00
   -1   14   12     -0.44      0.00
    0   14   12     -1.41      0.00
    1   14   12     -2.60      0.00
    2   14   12     -1.63      0.00
    3   14   12      0.33      0.00
    4   14   12      0.03      0.00
    5   14   12      0.93      0.00
    6   14   12      1.47      0.00
    7   14   12      0.40      0.00
   -6   15   12     -0.10      0.00
   -5   15   12      1.16      0.00
   -4   15   12      1.88      0.00
   -3   15   12      0.89      0.00
   -2   15   12      1.35      0.00
   -1   15   12      0.08      0.00
    0   15   12     -0.86      0.00
    1   15   12      0.01      0.00
    2   15   12     -0.74      0.00
    3   15   12     -0.08      0.00
    4   15   12      0.83      0.00
    5   15   12      0.11      0.00
   -2   16   12     -0.24      0.00
   -1   16   12     -0.13      0.00
    0   16   12     -0.04      0.00
    1   16   12     -0.44      0.00
    2   16   12      2.60      0.00
  -15    0   13      1.67      0.00
  -13    0   13     -2.15      0.00
  -11    0   13      0.24      0.00
   -9    0   13     -3.61      0.00
   -7    0   13     -8.20      0.00
   -5    0   13     10.09      0.00
   -3    0   13     32.27      0.00
   -1    0   13      5.01      0.00
    1    0   13    -17.20      0.00
    3    0   13     -6.05      0.00
    5    0   13      2.88      0.00
    7    0   13      1.62      0.00
    9    0   13      1.02      0.00
   11    0   13      1.54      0.00
   13    0   13      0.90      0.00
  -15    1   13     -2.38      0.00
  -14    1   13     -0.91      0.00
  -13    1   13      1.42      0.00
  -12    1   13     -2.21      0.00
  -11    1   13      2.77      0.00
  -10    1   13     -1.86      0.00
   -9    1   13     -1.35      0.00
   -8    1   13     -2.93      0.00
   -7    1   13     -4.34      0.00
   -6    1   13     -2.04      0.00
   -5    1   13      8.57      0.00
   -4    1   13      3.21      0.00
   -3    1   13      2.80      0.00
   -2    1   13      0.68      0.00
   -1    1   13    -13.29      0.00
    0    1   13     -3.54      0.00
    1    1   13     -3.42      0.00
    2    1   13     16.40      0.00
    3    1   13      4.62      0.00
    4    1   13      6.99      0.00
    5    1   13      8.16      0.00
    6    1   13     -6.03      0.00
    7    1   13      2.83      0.00
    8    1   13      2.95      0.00
    9    1   13     -2.93      0.00
   10    1   13      1.30      0.00
   11    1   13     -2.19      0.00
   12    1   13     -1.33      0.00
   13    1   13     -0.13      0.00
   14    1   13     -0.54      0.00
  -15    2   13      0.31      0.00
  -14    2   13     -0.74      0.00
  -13    2   13      1.41      0.00
  -12    2   13      0.96      0.00
  -11    2   13     -4.01      0.00
  -10    2   13     -0.33      0.00
   -9    2   13     -7.03      0.00
   -8    2   13     -3.24      0.00
   -7    2   13     -1.78      0.00
   -6    2   13      9.42      0.00
   -5    2   13      8.39      0.00
   -4    2   13      4.06      0.00
   -3    2   13      0.05      0.00
   -2    2   13    -21.70      0.00
   -1    2   13     -0.86      0.00
    0    2   13     -8.72      0.00
    1    2   13     -1.51      0.00
    2    2   13      3.19      0.00
    3    2   13      0.93      0.00
    4    2   13     -9.73      0.00
    5    2   13      5.06      0.00
    6    2   13      4.68      0.00
    7    2   13     -0.22      0.00
    8    2   13      9.99      0.00
    9    2   13     -2.25      0.00
   10    2   13     -1.49      0.00
   11    2   13      1.55      0.00
   12    2   13     -2.17      0.00
   13    2   13      1.59      0.00
   14    2   13      0.70      0.00
  -14    3   13      2.39      0.00
  -13    3   13      0.50      0.00
  -12    3   13     -0.64      0.00
  -11    3   13     -0.62      0.00
  -10    3   13     -6.66      0.00
   -9    3   13      1.16      0.00
   -8    3   13      1.54      0.00
   -7    3   13     -2.85      0.00
   -6    3   13     12.56      0.00
   -5    3   13     -6.60      0.00
   -4    3   13    -11.09      0.00
   -3    3   13      1.23      0.00
   -2    3   13     -8.27      0.00
   -1    3   13     -0.11      0.00
    0    3   13     11.18      0.00
    1    3   13      7.53      0.00
    2    3   13     -0.89      0.00
    3    3   13      2.02      0.00
    4    3   13     -6.18      0.00
    5    3   13     -8.09      0.00
    6    3   13      1.34      0.00
    7    3   13    -10.06      0.00
    8    3   13     -2.54      0.00
    9    3   13     -2.58      0.00
   10    3   13     -2.10      0.00
   11    3   13      1.78      0.00
   12    3   13      1.48      0.00
   13    3   13      0.06      0.00
   14    3   13      0.42      0.00
  -14    4   13     -0.45      0.00
  -13    4   13      0.42      0.00
  -12    4   13     -1.58      0.00
  -11    4   13     -0.47      0.00
  -10    4   13     -0.98      0.00
   -9    4   13     -3.30      0.00
   -8    4   13      6.67      0.00
   -7    4   13      1.39      0.00
   -6    4   13     -1.07      0.00
   -5    4   13      8.47      0.00
   -4    4   13     -8.46      0.00
   -3    4   13      3.74      0.00
   -2    4   13      8.87      0.00
   -1    4   13      4.21      0.00
    0    4   13      9.86      0.00
    1    4   13     -0.81      0.00
    2    4   13     -6.64      0.00
    3    4   13     -0.57      0.00
    4    4   13     -4.89      0.00
    5    4   13      2.07      0.00
    6    4   13     -2.53      0.00
    7    4   13      0.96      0.00
    8    4   13     -0.36      0.00
    9    4   13     -1.67      0.00
   10    4   13      2.79      0.00
   11    4   13     -2.06      0.00
   12    4   13      0.98      0.00
   13    4   13      0.68      0.00
   14    4   13     -0.38      0.00
  -14    5   13     -0.38      0.00
  -13    5   13     -0.63      0.00
  -12    5   13     -0.46      0.00
  -11    5   13      0.78      0.00
  -10    5   13     -3.64      0.00
   -9    5   13     -0.03      0.00
   -8    5   13     -0.43      0.00
   -7    5   13      2.30      0.00
   -6    5   13      3.68      0.00
   -5    5   13     -2.16      0.00
   -4    5   13     11.64      0.00
   -3    5   13     10.53      0.00
   -2    5   13      6.04      0.00
   -1    5   13      8.28      0.00
    0    5   13      7.75      0.00
    1    5   13     -1.69      0.00
    2    5   13     -7.16      0.00
    3    5   13      3.05      0.00
    4    5   13     -7.31      0.00
    5    5   13      5.64      0.00
    6    5   13      0.38      0.00
    7    5   13     -0.88      0.00
    8    5   13      2.46      0.00
    9    5   13     -0.61      0.00
   10    5   13     -1.02      0.00
   11    5   13     -0.10      0.00
   12    5   13     -0.19      0.00
   13    5   13      0.75      0.00
  -14    6   13     -0.62      0.00
  -13    6   13      0.25      0.00
  -12    6   13     -0.07      0.00
  -11    6   13     -1.93      0.00
  -10    6   13     -0.32      0.00
   -9    6   13     -0.22      0.00
   -8    6   13      3.66      0.00
   -7    6   13     -8.06      0.00
   -6    6   13     -1.29      0.00
   -5    6   13     -1.36      0.00
   -4    6   13      1.18      0.00
   -3    6   13      9.49      0.00
   -2    6   13      9.32      0.00
   -1    6   13     -7.41      0.00
    0    6   13     -4.05      0.00
    1    6   13     -9.21      0.00
    2    6   13     -8.35      0.00
    3    6   13     10.73      0.00
    4    6   13      7.00      0.00
    5    6   13      4.01      0.00
    6    6   13      6.26      0.00
    7    6   13     -0.69      0.00
    8    6   13     -2.81      0.00
    9    6   13      0.88      0.00
   10    6   13      1.06      0.00
   11    6   13     -1.43      0.00
   12    6   13      0.04      0.00
   13    6   13     -1.75      0.00
  -13    7   13     -0.69      0.00
  -12    7   13     -0.70      0.00
  -11    7   13      0.67      0.00
  -10    7   13     -1.30      0.00
   -9    7   13     -3.45      0.00
   -8    7   13     -4.28      0.00
   -7    7   13      1.29      0.00
   -6    7   13     -2.83      0.00
   -5    7   13      3.96      0.00
   -4    7   13      7.07      0.00
   -3    7   13     -6.61      0.00
   -2    7   13     -3.20      0.00
   -1    7   13    -10.33      0.00
    0    7   13     -1.72      0.00
    1    7   13     -2.31      0.00
    2    7   13      7.91      0.00
    3    7   13     -0.37      0.00
    4    7   13      1.55      0.00
    5    7   13      0.80      0.00
    6    7   13     -7.54      0.00
    7    7   13      2.51      0.00
    8    7   13      1.87      0.00
    9    7   13     -0.56      0.00
   10    7   13      3.36      0.00
   11    7   13     -1.36      0.00
   12    7   13      1.45      0.00
   13    7   13      1.65      0.00
  -13    8   13      1.16      0.00
  -12    8   13      0.01      0.00
  -11    8   13     -0.57      0.00
  -10    8   13      1.19      0.00
   -9    8   13     -3.20      0.00
   -8    8   13     -1.77      0.00
   -7    8   13      2.52      0.00
   -6    8   13     -1.06      0.00
   -5    8   13      1.90      0.00
   -4    8   13      0.02      0.00
   -3    8   13     -2.28      0.00
   -2    8   13     -5.52      0.00
   -1    8   13     -4.66      0.00
    0    8   13      5.85      0.00
    1    8   13     -3.35      0.00
    2    8   13      9.16      0.00
    3    8   13      2.82      0.00
    4    8   13     -8.55      0.00
    5    8   13      3.26      0.00
    6    8   13     -5.79      0.00
    7    8   13     -2.30      0.00
    8    8   13      1.03      0.00
    9    8   13     -2.31      0.00
   10    8   13     -0.62      0.00
   11    8   13     -0.33      0.00
   12    8   13      0.45      0.00
  -12    9   13     -0.21      0.00
  -11    9   13      0.70      0.00
  -10    9   13     -2.11      0.00
   -9    9   13      2.52      0.00
   -8    9   13      1.45      0.00
   -7    9   13      0.67      0.00
   -6    9   13      2.73      0.00
   -5    9   13      2.98      0.00
   -4    9   13     -0.10      0.00
   -3    9   13     -2.39      0.00
   -2    9   13     -0.28      0.00
   -1    9   13      0.74      0.00
    0    9   13      3.11      0.00
    1    9   13      1.08      0.00
    2    9   13     -1.58      0.00
    3    9   13     -0.77      0.00
    4    9   13     -3.03      0.00
    5    9   13     -1.26      0.00
    6    9   13     -1.31      0.00
    7    9   13     -1.67      0.00
    8    9   13     -0.78      0.00
    9    9   13      1.60      0.00
   10    9   13     -0.24      0.00
   11    9   13     -1.37      0.00
  -11   10   13      0.58      0.00
  -10   10   13     -0.09      0.00
   -9   10   13     -3.48      0.00
   -8   10   13     -0.17      0.00
   -7   10   13      1.77      0.00
   -6   10   13     -0.17      0.00
   -5   10   13      4.12      0.00
   -4   10   13      0.76      0.00
   -3   10   13     -0.79      0.00
   -2   10   13      4.45      0.00
   -1   10   13      1.37      0.00
    0   10   13      1.68      0.00
    1   10   13      1.13      0.00
    2   10   13     -1.58      0.00
    3   10   13     -6.80      0.00
    4   10   13     -2.52      0.00
    5   10   13      2.04      0.00
    6   10   13      0.74      0.00
    7   10   13      3.12      0.00
    8   10   13      1.16      0.00
    9   10   13     -0.77      0.00
   10   10   13     -1.67      0.00
   11   10   13     -0.34      0.00
  -11   11   13     -1.35      0.00
  -10   11   13     -0.52      0.00
   -9   11   13     -0.66      0.00
   -8   11   13     -1.64      0.00
   -7   11   13      1.80      0.00
   -6   11   13     -0.57      0.00
   -5   11   13     -1.52      0.00
   -4   11   13     -1.01      0.00
   -3   11   13      0.90      0.00
   -2   11   13      0.64      0.00
   -1   11   13      1.01      0.00
    0   11   13     -0.14      0.00
    1   11   13     -7.06      0.00
    2   11   13     -1.05      0.00
    3   11   13      0.51      0.00
    4   11   13     -0.84      0.00
    5   11   13      4.77      0.00
    6   11   13      1.58      0.00
    7   11   13     -2.27      0.00
    8   11   13      0.22      0.00
    9   11   13     -0.86      0.00
   10   11   13     -0.73      0.00
  -10   12   13     -0.52      0.00
   -9   12   13     -0.15      0.00
   -8   12   13      0.32      0.00
   -7   12   13     -2.51      0.00
   -6   12   13      0.42      0.00
   -5   12   13      0.97      0.00
   -4   12   13     -4.49      0.00
   -3   12   13      3.37      0.00
   -2   12   13     -1.10      0.00
   -1   12   13     -4.46      0.00
    0   12   13     -1.23      0.00
    1   12   13     -0.91      0.00
    2   12   13     -3.20      0.00
    3   12   13      1.92      0.00
    4   12   13      1.54      0.00
    5   12   13     -2.22      0.00
    6   12   13      1.44      0.00
    7   12   13     -1.84      0.00
    8   12   13     -0.94      0.00
    9   12   13     -0.08      0.00
   -9   13   13      0.05      0.00
   -8   13   13      0.34      0.00
   -7   13   13      0.77      0.00
   -6   13   13      0.04      0.00
   -5   13   13     -0.82      0.00
   -4   13   13     -0.06      0.00
   -3   13   13     -1.36      0.00
   -2   13   13     -0.96      0.00
   -1   13   13     -0.86      0.00
    0   13   13     -2.34      0.00
    1   13   13      1.94      0.00
    2   13   13      2.05      0.00
    3   13   13      0.74      0.00
    4   13   13      1.27      0.00
    5   13   13     -0.62      0.00
    6   13   13     -1.39      0.00
    7   13   13     -0.70      0.00
    8   13   13     -1.18      0.00
   -7   14   13      1.45      0.00
   -6   14   13      0.64      0.00
   -5   14   13      0.06      0.00
   -4   14   13      0.32      0.00
   -3   14   13      1.81      0.00
   -2   14   13     -0.79      0.00
   -1   14   13     -1.12      0.00
    0   14   13      1.51      0.00
    1   14   13     -1.43      0.00
    2   14   13      0.82      0.00
    3   14   13      2.05      0.00
    4   14   13     -0.40      0.00
    5   14   13      0.37      0.00
    6   14   13      0.84      0.00
   -5   15   13      2.18      0.00
   -4   15   13      0.45      0.00
   -3   15   13      0.96      0.00
   -2   15   13     -0.16      0.00
   -1   15   13     -1.22      0.00
    0   15   13      2.16      0.00
    1   15   13      1.03      0.00
    2   15   13     -1.51      0.00
    3   15   13     -0.53      0.00
    4   15   13     -0.62      0.00
  -14    0   14      0.81      0.00
  -12    0   14     -0.56      0.00
  -10    0   14     -3.13      0.00
   -8    0   14     -2.14      0.00
   -6    0   14     13.40      0.00
   -4    0   14      1.28      0.00
   -2    0   14      1.15      0.00
    0    0   14     25.79      0.00
    2    0   14      5.41      0.00
    4    0   14    -20.87      0.00
    6    0   14     -5.17      0.00
    8    0   14      2.25      0.00
   10    0   14     -0.15      0.00
   12    0   14      1.38      0.00
   14    0   14      1.70      0.00
  -14    1   14     -0.66      0.00
  -13    1   14     -2.64      0.00
  -12    1   14     -0.04      0.00
  -11    1   14     -2.04      0.00
  -10    1   14      0.26      0.00
   -9    1   14      1.81      0.00
   -8    1   14      2.32      0.00
   -7    1   14     10.77      0.00
   -6    1   14     -0.89      0.00
   -5    1   14      5.99      0.00
   -4    1   14     -5.68      0.00
   -3    1   14     -2.10      0.00
   -2    1   14      9.64      0.00
   -1    1   14     -5.15      0.00
    0    1   14      7.97      0.00
    1    1   14     10.25      0.00
    2    1   14    -16.50      0.00
    3    1   14      2.20      0.00
    4    1   14     -0.01      0.00
    5    1   14     -4.94      0.00
    6    1   14     12.66      0.00
    7    1   14      0.98      0.00
    8    1   14     -1.12      0.00
    9    1   14      1.83      0.00
   10    1   14     -3.26      0.00
   11    1   14     -0.24      0.00
   12    1   14     -0.19      0.00
   13    1   14     -0.44      0.00
   14    1   14      0.02      0.00
  -14    2   14     -0.74      0.00
  -13    2   14     -1.40      0.00
  -12    2   14     -0.18      0.00
  -11    2   14     -2.11      0.00
  -10    2   14     -1.95      0.00
   -9    2   14     -1.74      0.00
   -8    2   14     -0.75      0.00
   -7    2   14      1.30      0.00
   -6    2   14      1.16      0.00
   -5    2   14     -1.93      0.00
   -4    2   14      7.45      0.00
   -3    2   14      2.40      0.00
   -2    2   14      1.87      0.00
   -1    2   14     12.41      0.00
    0    2   14    -12.02      0.00
    1    2   14     -9.32      0.00
    2    2   14     -6.75      0.00
    3    2   14    -14.48      0.00
    4    2   14      9.48      0.00
    5    2   14     -2.30      0.00
    6    2   14      5.27      0.00
    7    2   14      5.35      0.00
    8    2   14     -3.98      0.00
    9    2   14      2.68      0.00
   10    2   14     -0.64      0.00
   11    2   14     -0.47      0.00
   12    2   14      0.00      0.00
   13    2   14      0.27      0.00
   14    2   14      0.19      0.00
  -14    3   14      0.42      0.00
  -13    3   14     -1.40      0.00
  -12    3   14      3.31      0.00
  -11    3   14     -1.59      0.00
  -10    3   14      0.07      0.00
   -9    3   14      1.03      0.00
   -8    3   14      4.03      0.00
   -7    3   14      7.65      0.00
   -6    3   14     -2.00      0.00
   -5    3   14     -0.40      0.00
   -4    3   14     -6.78      0.00
   -3    3   14      1.04      0.00
   -2    3   14    -13.39      0.00
   -1    3   14     -3.47      0.00
    0    3   14      2.42      0.00
    1    3   14     -7.85      0.00
    2    3   14      5.31      0.00
    3    3   14      0.56      0.00
    4    3   14      7.05      0.00
    5    3   14      1.45      0.00
    6    3   14     -1.56      0.00
    7    3   14     -1.47      0.00
    8    3   14     -5.84      0.00
    9    3   14     -0.72      0.00
   10    3   14     -2.13      0.00
   11    3   14     -0.10      0.00
   12    3   14      2.37      0.00
   13    3   14     -0.39      0.00
  -14    4   14     -0.31      0.00
  -13    4   14     -0.35      0.00
  -12    4   14     -2.03      0.00
  -11    4   14     -1.31      0.00
  -10    4   14      1.54      0.00
   -9    4   14      0.37      0.00
   -8    4   14      8.00      0.00
   -7    4   14     -1.32      0.00
   -6    4   14      2.00      0.00
   -5    4   14      2.16      0.00
   -4    4   14      7.08      0.00
   -3    4   14      0.63      0.00
   -2    4   14      6.87      0.00
   -1    4   14     -2.18      0.00
    0    4   14    -13.42      0.00
    1    4   14      3.34      0.00
    2    4   14      0.67      0.00
    3    4   14      5.61      0.00
    4    4   14     12.30      0.00
    5    4   14     -4.98      0.00
    6    4   14     -2.34      0.00
    7    4   14     -2.71      0.00
    8    4   14     -6.50      0.00
    9    4   14      2.05      0.00
   10    4   14      1.57      0.00
   11    4   14      1.17      0.00
   12    4   14      0.55      0.00
   13    4   14      0.22      0.00
  -14    5   14     -0.79      0.00
  -13    5   14     -1.24      0.00
  -12    5   14     -0.02      0.00
  -11    5   14     -1.76      0.00
  -10    5   14      4.13      0.00
   -9    5   14     -2.01      0.00
   -8    5   14     -1.97      0.00
   -7    5   14      5.80      0.00
   -6    5   14     -2.19      0.00
   -5    5   14      1.45      0.00
   -4    5   14     14.54      0.00
   -3    5   14     -7.20      0.00
   -2    5   14     -4.45      0.00
   -1    5   14     13.11      0.00
    0    5   14     -5.68      0.00
    1    5   14     14.50      0.00
    2    5   14     12.33      0.00
    3    5   14     -8.27      0.00
    4    5   14      3.83      0.00
    5    5   14    -10.27      0.00
    6    5   14     -6.30      0.00
    7    5   14     -0.89      0.00
    8    5   14      2.13      0.00
    9    5   14      1.45      0.00
   10    5   14      1.12      0.00
   11    5   14     -0.16      0.00
   12    5   14     -0.98      0.00
   13    5   14      0.73      0.00
  -13    6   14     -0.44      0.00
  -12    6   14     -0.39      0.00
  -11    6   14     -0.37      0.00
  -10    6   14     -2.03      0.00
   -9    6   14      0.88      0.00
   -8    6   14     -0.60      0.00
   -7    6   14     -1.10      0.00
   -6    6   14      4.65      0.00
   -5    6   14     -0.95      0.00
   -4    6   14      1.68      0.00
   -3    6   14      5.23      0.00
   -2    6   14     -7.40      0.00
   -1    6   14      4.33      0.00
    0    6   14     -3.94      0.00
    1    6   14     -5.75      0.00
    2    6   14      2.09      0.00
    3    6   14     -8.35      0.00
    4    6   14     -4.92      0.00
    5    6   14      0.49      0.00
    6    6   14      1.99      0.00
    7    6   14      3.50      0.00
    8    6   14      2.97      0.00
    9    6   14     -1.07      0.00
   10    6   14     -0.40      0.00
   11    6   14     -0.13      0.00
   12    6   14     -0.72      0.00
   13    6   14     -1.11      0.00
  -13    7   14     -0.78      0.00
  -12    7   14     -0.76      0.00
  -11    7   14     -1.06      0.00
  -10    7   14     -1.96      0.00
   -9    7   14     -4.02      0.00
   -8    7   14     -0.05      0.00
   -7    7   14     -2.86      0.00
   -6    7   14     -0.42      0.00
   -5    7   14      3.69      0.00
   -4    7   14     -1.25      0.00
   -3    7   14     -5.75      0.00
   -2    7   14      2.51      0.00
   -1    7   14      0.68      0.00
    0    7   14     -5.15      0.00
    1    7   14      3.97      0.00
    2    7   14     -7.04      0.00
    3    7   14     -2.14      0.00
    4    7   14     -0.96      0.00
    5    7   14     -1.07      0.00
    6    7   14      0.50      0.00
    7    7   14      2.00      0.00
    8    7   14      0.49      0.00
    9    7   14     -0.34      0.00
   10    7   14      0.23      0.00
   11    7   14     -0.06      0.00
   12    7   14     -0.04      0.00
  -12    8   14     -0.72      0.00
  -11    8   14      0.93      0.00
  -10    8   14     -1.84      0.00
   -9    8   14      0.03      0.00
   -8    8   14     -1.53      0.00
   -7    8   14      2.28      0.00
   -6    8   14      6.09      0.00
   -5    8   14     -5.82      0.00
   -4    8   14      1.93      0.00
   -3    8   14     -7.56      0.00
   -2    8   14     -6.01      0.00
   -1    8   14      2.85      0.00
    0    8   14     -4.94      0.00
    1    8   14      4.59      0.00
    2    8   14     -0.09      0.00
    3    8   14     -1.89      0.00
    4    8   14      2.48      0.00
    5    8   14      1.33      0.00
    6    8   14      1.82      0.00
    7    8   14     -0.29      0.00
    8    8   14      0.24      0.00
    9    8   14     -2.28      0.00
   10    8   14     -2.67      0.00
   11    8   14      1.47      0.00
   12    8   14      0.11      0.00
  -12    9   14     -0.05      0.00
  -11    9   14     -2.74      0.00
  -10    9   14     -1.19      0.00
   -9    9   14      3.26      0.00
   -8    9   14      1.97      0.00
   -7    9   14      2.55      0.00
   -6    9   14      2.55      0.00
   -5    9   14     -2.15      0.00
   -4    9   14     -3.74      0.00
   -3    9   14      0.72      0.00
   -2    9   14     -0.03      0.00
   -1    9   14     -0.72      0.00
    0    9   14      0.48      0.00
    1    9   14     -3.03      0.00
    2    9   14     -1.28      0.00
    3    9   14      5.19      0.00
    4    9   14      2.38      0.00
    5    9   14      0.56      0.00
    6    9   14      1.17      0.00
    7    9   14     -3.85      0.00
    8    9   14     -2.87      0.00
    9    9   14     -0.25      0.00
   10    9   14      0.87      0.00
   11    9   14      0.92      0.00
  -11   10   14      0.90      0.00
  -10   10   14     -0.62      0.00
   -9   10   14      0.71      0.00
   -8   10   14      1.39      0.00
   -7   10   14     -1.78      0.00
   -6   10   14     -1.16      0.00
   -5   10   14     -0.80      0.00
   -4   10   14     -2.66      0.00
   -3   10   14      2.12      0.00
   -2   10   14      1.36      0.00
   -1   10   14     -1.37      0.00
    0   10   14      1.09      0.00
    1   10   14      1.07      0.00
    2   10   14     -2.00      0.00
    3   10   14      1.10      0.00
    4   10   14      0.65      0.00
    5   10   14     -1.68      0.00
    6   10   14     -0.40      0.00
    7   10   14      0.95      0.00
    8   10   14     -0.02      0.00
    9   10   14      0.39      0.00
   10   10   14      1.21      0.00
  -10   11   14     -0.46      0.00
   -9   11   14      0.16      0.00
   -8   11   14     -2.09      0.00
   -7   11   14      1.00      0.00
   -6   11   14      0.03      0.00
   -5   11   14     -2.34      0.00
   -4   11   14      1.51      0.00
   -3   11   14     -1.02      0.00
   -2   11   14     -0.75      0.00
   -1   11   14     -1.15      0.00
    0   11   14     -3.89      0.00
    1   11   14     -0.80      0.00
    2   11   14     -0.25      0.00
    3   11   14     -1.47      0.00
    4   11   14     -1.65      0.00
    5   11   14     -1.25      0.00
    6   11   14     -0.69      0.00
    7   11   14      0.55      0.00
    8   11   14      0.68      0.00
    9   11   14      0.52      0.00
   10   11   14      0.56      0.00
   -9   12   14      0.66      0.00
   -8   12   14     -2.35      0.00
   -7   12   14     -1.36      0.00
   -6   12   14     -0.07      0.00
   -5   12   14     -1.73      0.00
   -4   12   14      0.25      0.00
   -3   12   14      1.08      0.00
   -2   12   14     -2.16      0.00
   -1   12   14     -1.88      0.00
    0   12   14      0.67      0.00
    1   12   14     -3.91      0.00
    2   12   14     -1.37      0.00
    3   12   14      1.72      0.00
    4   12   14     -1.00      0.00
    5   12   14     -1.49      0.00
    6   12   14     -0.31      0.00
    7   12   14     -0.05      0.00
    8   12   14     -0.67      0.00
    9   12   14      1.68      0.00
   -8   13   14      0.88      0.00
   -7   13   14      0.02      0.00
   -6   13   14     -1.05      0.00
   -5   13   14      2.53      0.00
   -4   13   14     -0.83      0.00
   -3   13   14     -2.23      0.00
   -2   13   14     -0.45      0.00
   -1   13   14     -2.49      0.00
    0   13   14      0.68      0.00
    1   13   14      2.06      0.00
    2   13   14      1.09      0.00
    3   13   14     -1.00      0.00
    4   13   14      1.59      0.00
    5   13   14     -1.30      0.00
    6   13   14     -1.01      0.00
    7   13   14      0.05      0.00
   -6   14   14      0.90      0.00
   -5   14   14     -0.41      0.00
   -4   14   14     -0.50      0.00
   -3   14   14     -0.84      0.00
   -2   14   14     -0.80      0.00
   -1   14   14      2.86      0.00
    0   14   14      0.06      0.00
    1   14   14      0.49      0.00
    2   14   14      1.19      0.00
    3   14   14      0.41      0.00
    4   14   14      0.98      0.00
    5   14   14      1.36      0.00
    6   14   14     -0.16      0.00
   -4   15   14     -0.49      0.00
   -3   15   14      0.20      0.00
   -2   15   14     -0.63      0.00
   -1   15   14      0.49      0.00
    0   15   14      1.54      0.00
    1   15   14      0.41      0.00
    2   15   14     -1.39      0.00
    3   15   14     -0.28      0.00
  -13    0   15      2.61      0.00
  -11    0   15      0.02      0.00
   -9    0   15      4.05      0.00
   -7    0   15      4.99      0.00
   -5    0   15     -5.96      0.00
   -3    0   15     -2.25      0.00
   -1    0   15     13.58      0.00
    1    0   15      3.80      0.00
    3    0   15      4.70      0.00
    5    0   15     -2.20      0.00
    7    0   15    -12.10      0.00
    9    0   15     -2.48      0.00
   11    0   15      2.37      0.00
   13    0   15      1.97      0.00
  -14    1   15     -0.68      0.00
  -13    1   15     -0.54      0.00
  -12    1   15     -0.55      0.00
  -11    1   15     -1.08      0.00
  -10    1   15      2.66      0.00
   -9    1   15      1.52      0.00
   -8    1   15     14.64      0.00
   -7    1   15     -2.47      0.00
   -6    1   15      6.24      0.00
   -5    1   15     -4.19      0.00
   -4    1   15     -4.45      0.00
   -3    1   15      1.24      0.00
   -2    1   15     -5.90      0.00
   -1    1   15      7.06      0.00
    0    1   15     -1.37      0.00
    1    1   15      3.88      0.00
    2    1   15     -6.15      0.00
    3    1   15      0.68      0.00
    4    1   15      1.08      0.00
    5    1   15     -2.65      0.00
    6    1   15      3.15      0.00
    7    1   15     -2.18      0.00
    8    1   15      0.36      0.00
    9    1   15      1.03      0.00
   10    1   15     -0.53      0.00
   11    1   15      0.75      0.00
   12    1   15      0.96      0.00
   13    1   15     -0.57      0.00
  -14    2   15     -0.20      0.00
  -13    2   15      0.18      0.00
  -12    2   15     -3.51      0.00
  -11    2   15      0.49      0.00
  -10    2   15      0.71      0.00
   -9    2   15      2.32      0.00
   -8    2   15     -1.52      0.00
   -7    2   15     -4.37      0.00
   -6    2   15     -8.90      0.00
   -5    2   15      1.04      0.00
   -4    2   15     13.38      0.00
   -3    2   15      4.71      0.00
   -2    2   15     17.98      0.00
   -1    2   15      1.84      0.00
    0    2   15    -10.14      0.00
    1    2   15     -5.53      0.00
    2    2   15     -3.70      0.00
    3    2   15     -5.85      0.00
    4    2   15     -3.54      0.00
    5    2   15     -0.84      0.00
    6    2   15     -9.31      0.00
    7    2   15      2.03      0.00
    8    2   15      0.52      0.00
    9    2   15     -1.32      0.00
   10    2   15      5.47      0.00
   11    2   15     -1.15      0.00
   12    2   15     -0.20      0.00
   13    2   15     -0.93      0.00
  -14    3   15     -0.73      0.00
  -13    3   15      2.28      0.00
  -12    3   15     -0.21      0.00
  -11    3   15      3.94      0.00
  -10    3   15      3.84      0.00
   -9    3   15      0.99      0.00
   -8    3   15      0.53      0.00
   -7    3   15      0.15      0.00
   -6    3   15      2.05      0.00
   -5    3   15     -2.51      0.00
   -4    3   15      4.60      0.00
   -3    3   15    -12.50      0.00
   -2    3   15     -5.23      0.00
   -1    3   15     -7.42      0.00
    0    3   15      2.90      0.00
    1    3   15      1.79      0.00
    2    3   15      3.05      0.00
    3    3   15      8.43      0.00
    4    3   15    -11.66      0.00
    5    3   15      8.24      0.00
    6    3   15     -6.01      0.00
    7    3   15     -0.56      0.00
    8    3   15      7.23      0.00
    9    3   15     -2.53      0.00
   10    3   15      0.10      0.00
   11    3   15     -0.39      0.00
   12    3   15     -1.59      0.00
   13    3   15      0.15      0.00
  -14    4   15      0.39      0.00
  -13    4   15      0.51      0.00
  -12    4   15      0.18      0.00
  -11    4   15      2.34      0.00
  -10    4   15     -1.74      0.00
   -9    4   15      5.51      0.00
   -8    4   15     -2.27      0.00
   -7    4   15      5.85      0.00
   -6    4   15      5.39      0.00
   -5    4   15      7.88      0.00
   -4    4   15      1.01      0.00
   -3    4   15     -3.38      0.00
   -2    4   15      0.58      0.00
   -1    4   15    -14.36      0.00
    0    4   15      0.75      0.00
    1    4   15     -0.13      0.00
    2    4   15     -3.18      0.00
    3    4   15      8.08      0.00
    4    4   15     -2.65      0.00
    5    4   15      4.57      0.00
    6    4   15      4.90      0.00
    7    4   15     -0.14      0.00
    8    4   15      1.75      0.00
    9    4   15     -1.48      0.00
   10    4   15     -0.96      0.00
   11    4   15     -0.05      0.00
   12    4   15      0.30      0.00
   13    4   15      0.72      0.00
  -13    5   15      1.14      0.00
  -12    5   15     -1.30      0.00
  -11    5   15      0.96      0.00
  -10    5   15      0.53      0.00
   -9    5   15      0.87      0.00
   -8    5   15      3.84      0.00
   -7    5   15      1.19      0.00
   -6    5   15      0.38      0.00
   -5    5   15      4.01      0.00
   -4    5   15     -9.36      0.00
   -3    5   15     -6.00      0.00
   -2    5   15      1.56      0.00
   -1    5   15     -3.57      0.00
    0    5   15     10.78      0.00
    1    5   15      3.90      0.00
    2    5   15      7.55      0.00
    3    5   15      3.55      0.00
    4    5   15     -3.09      0.00
    5    5   15      3.40      0.00
    6    5   15     -6.81      0.00
    7    5   15     -0.20      0.00
    8    5   15     -2.17      0.00
    9    5   15     -1.63      0.00
   10    5   15      1.35      0.00
   11    5   15     -1.05      0.00
   12    5   15      0.35      0.00
   13    5   15      0.63      0.00
  -13    6   15     -0.19      0.00
  -12    6   15     -0.27      0.00
  -11    6   15     -0.99      0.00
  -10    6   15     -1.12      0.00
   -9    6   15      4.70      0.00
   -8    6   15     -1.26      0.00
   -7    6   15      7.64      0.00
   -6    6   15      3.13      0.00
   -5    6   15     -3.62      0.00
   -4    6   15     -5.48      0.00
   -3    6   15     -2.06      0.00
   -2    6   15     -0.04      0.00
   -1    6   15     -5.21      0.00
    0    6   15     11.79      0.00
    1    6   15     -7.85      0.00
    2    6   15     -4.92      0.00
    3    6   15     -2.34      0.00
    4    6   15    -10.75      0.00
    5    6   15      3.20      0.00
    6    6   15      0.61      0.00
    7    6   15     -0.46      0.00
    8    6   15      1.41      0.00
    9    6   15     -0.54      0.00
   10    6   15     -1.55      0.00
   11    6   15      1.98      0.00
   12    6   15     -0.15      0.00
  -13    7   15     -0.87      0.00
  -12    7   15     -1.18      0.00
  -11    7   15     -0.54      0.00
  -10    7   15     -1.64      0.00
   -9    7   15      1.29      0.00
   -8    7   15      0.69      0.00
   -7    7   15     -2.63      0.00
   -6    7   15     -4.47      0.00
   -5    7   15      0.38      0.00
   -4    7   15     -7.87      0.00
   -3    7   15      8.48      0.00
   -2    7   15     10.70      0.00
   -1    7   15     -3.51      0.00
    0    7   15      6.28      0.00
    1    7   15     -6.28      0.00
    2    7   15     -9.16      0.00
    3    7   15      1.79      0.00
    4    7   15     -2.60      0.00
    5    7   15     -3.99      0.00
    6    7   15      3.53      0.00
    7    7   15     -3.29      0.00
    8    7   15     -2.04      0.00
    9    7   15      2.23      0.00
   10    7   15     -0.65      0.00
   11    7   15      0.87      0.00
   12    7   15     -0.01      0.00
  -12    8   15     -0.09      0.00
  -11    8   15      0.24      0.00
  -10    8   15      3.64      0.00
   -9    8   15      0.03      0.00
   -8    8   15     -0.38      0.00
   -7    8   15      1.10      0.00
   -6    8   15     -6.85      0.00
   -5    8   15      2.45      0.00
   -4    8   15     -2.64      0.00
   -3    8   15      2.19      0.00
   -2    8   15      0.04      0.00
   -1    8   15     -2.10      0.00
    0    8   15     -1.87      0.00
    1    8   15     -1.90      0.00
    2    8   15      1.04      0.00
    3    8   15     -0.29      0.00
    4    8   15      4.61      0.00
    5    8   15      1.12      0.00
    6    8   15     -0.77      0.00
    7    8   15      1.17      0.00
    8    8   15      0.22      0.00
    9    8   15      0.86      0.00
   10    8   15      0.09      0.00
   11    8   15     -0.88      0.00
  -12    9   15      0.35      0.00
  -11    9   15     -1.12      0.00
  -10    9   15      1.63      0.00
   -9    9   15      0.25      0.00
   -8    9   15      0.65      0.00
   -7    9   15      0.30      0.00
   -6    9   15      2.44      0.00
   -5    9   15      1.45      0.00
   -4    9   15     -1.50      0.00
   -3    9   15      3.53      0.00
   -2    9   15     -5.41      0.00
   -1    9   15     -5.00      0.00
    0    9   15     -0.16      0.00
    1    9   15     -2.83      0.00
    2    9   15      5.38      0.00
    3    9   15      3.98      0.00
    4    9   15      0.16      0.00
    5    9   15      2.29      0.00
    6    9   15      0.34      0.00
    7    9   15     -1.57      0.00
    8    9   15      0.36      0.00
    9    9   15      0.73      0.00
   10    9   15     -0.38      0.00
   11    9   15      0.58      0.00
  -11   10   15     -0.16      0.00
  -10   10   15      0.33      0.00
   -9   10   15      0.29      0.00
   -8   10   15      0.20      0.00
   -7   10   15     -0.89      0.00
   -6   10   15     -1.56      0.00
   -5   10   15     -0.81      0.00
   -4   10   15     -1.53      0.00
   -3   10   15     -2.24      0.00
   -2   10   15     -0.69      0.00
   -1   10   15     -2.15      0.00
    0   10   15      1.17      0.00
    1   10   15      3.03      0.00
    2   10   15      0.42      0.00
    3   10   15      3.88      0.00
    4   10   15      2.22      0.00
    5   10   15     -2.50      0.00
    6   10   15      2.26      0.00
    7   10   15     -0.49      0.00
    8   10   15      0.11      0.00
    9   10   15      1.84      0.00
   10   10   15      0.28      0.00
  -10   11   15      0.88      0.00
   -9   11   15     -2.36      0.00
   -8   11   15      1.56      0.00
   -7   11   15      0.84      0.00
   -6   11   15     -1.01      0.00
   -5   11   15      1.41      0.00
   -4   11   15     -1.70      0.00
   -3   11   15     -2.42      0.00
   -2   11   15     -2.74      0.00
   -1   11   15     -0.50      0.00
    0   11   15     -1.11      0.00
    1   11   15      3.37      0.00
    2   11   15      0.12      0.00
    3   11   15     -4.77      0.00
    4   11   15     -0.92      0.00
    5   11   15     -2.74      0.00
    6   11   15     -0.84      0.00
    7   11   15      1.58      0.00
    8   11   15      1.46      0.00
    9   11   15      0.82      0.00
   -9   12   15     -0.42      0.00
   -8   12   15      0.21      0.00
   -7   12   15     -1.69      0.00
   -6   12   15      0.20      0.00
   -5   12   15     -1.81      0.00
   -4   12   15     -0.93      0.00
   -3   12   15     -0.45      0.00
   -2   12   15      0.37      0.00
   -1   12   15      3.29      0.00
    0   12   15     -0.53      0.00
    1   12   15     -1.83      0.00
    2   12   15     -0.74      0.00
    3   12   15     -2.31      0.00
    4   12   15     -2.16      0.00
    5   12   15      0.00      0.00
    6   12   15      0.23      0.00
    7   12   15      0.02      0.00
    8   12   15      1.27      0.00
   -8   13   15     -0.23      0.00
   -7   13   15     -1.34      0.00
   -6   13   15     -0.42      0.00
   -5   13   15     -0.06      0.00
   -4   13   15     -0.86      0.00
   -3   13   15      0.82      0.00
   -2   13   15      1.17      0.00
   -1   13   15     -0.39      0.00
    0   13   15     -0.17      0.00
    1   13   15      1.34      0.00
    2   13   15     -3.09      0.00
    3   13   15      0.82      0.00
    4   13   15      0.66      0.00
    5   13   15      0.02      0.00
    6   13   15     -0.33      0.00
    7   13   15     -0.05      0.00
   -6   14   15     -0.80      0.00
   -5   14   15     -0.23      0.00
   -4   14   15      0.88      0.00
   -3   14   15     -0.86      0.00
   -2   14   15      2.11      0.00
   -1   14   15      0.55      0.00
    0   14   15     -1.39      0.00
    1   14   15      0.29      0.00
    2   14   15      1.82      0.00
    3   14   15     -0.02      0.00
    4   14   15      1.15      0.00
    5   14   15      1.19      0.00
   -3   15   15     -1.01      0.00
   -2   15   15     -0.65      0.00
   -1   15   15     -0.16      0.00
    0   15   15      0.03      0.00
    1   15   15     -0.04      0.00
    2   15   15      1.08      0.00
  -14    0   16      1.28      0.00
  -12    0   16      3.01      0.00
  -10    0   16      7.52      0.00
   -8    0   16     -2.44      0.00
   -6    0   16     -8.77      0.00
   -4    0   16     10.20      0.00
   -2    0   16     -0.46      0.00
    0    0   16    -19.25      0.00
    2    0   16     12.78      0.00
    4    0   16     14.27      0.00
    6    0   16     -7.57      0.00
    8    0   16     -7.23      0.00
   10    0   16      1.98      0.00
   12    0   16     -1.26      0.00
  -14    1   16     -0.20      0.00
  -13    1   16      0.27      0.00
  -12    1   16      0.22      0.00
  -11    1   16      3.35      0.00
  -10    1   16     -1.89      0.00
   -9    1   16      5.13      0.00
   -8    1   16     -2.69      0.00
   -7    1   16      4.14      0.00
   -6    1   16      5.82      0.00
   -5    1   16      2.27      0.00
   -4    1   16     -4.57      0.00
   -3    1   16     -8.52      0.00
   -2    1   16    -11.41      0.00
   -1    1   16     -8.84      0.00
    0    1   16      8.45      0.00
    1    1   16     -4.65      0.00
    2    1   16     14.37      0.00
    3    1   16     -2.42      0.00
    4    1   16     -0.54      0.00
    5    1   16      1.52      0.00
    6    1   16     -4.18      0.00
    7    1   16      4.42      0.00
    8    1   16     -0.16      0.00
    9    1   16      1.60      0.00
   10    1   16      0.57      0.00
   11    1   16     -0.43      0.00
   12    1   16      0.08      0.00
   13    1   16     -0.61      0.00
  -14    2   16      0.91      0.00
  -13    2   16     -0.64      0.00
  -12    2   16      0.59      0.00
  -11    2   16     -1.17      0.00
  -10    2   16      0.52      0.00
   -9    2   16     -3.35      0.00
   -8    2   16     -1.35      0.00
   -7    2   16     -1.01      0.00
   -6    2   16     -6.83      0.00
   -5    2   16      8.13      0.00
   -4    2   16     -5.03      0.00
   -3    2   16      3.72      0.00
   -2    2   16      7.46      0.00
   -1    2   16     -1.34      0.00
    0    2   16      6.75      0.00
    1    2   16      5.17      0.00
    2    2   16     -5.18      0.00
    3    2   16     -5.28      0.00
    4    2   16     -8.21      0.00
    5    2   16     -9.08      0.00
    6    2   16     -1.15      0.00
    7    2   16      1.42      0.00
    8    2   16     -1.07      0.00
    9    2   16      1.70      0.00
   10    2   16     -0.76      0.00
   11    2   16      0.20      0.00
   12    2   16     -0.45      0.00
   13    2   16      0.84      0.00
  -14    3   16     -0.15      0.00
  -13    3   16     -0.23      0.00
  -12    3   16      2.04      0.00
  -11    3   16      1.54      0.00
  -10    3   16      1.86      0.00
   -9    3   16      2.84      0.00
   -8    3   16     -1.40      0.00
   -7    3   16      0.16      0.00
   -6    3   16     -0.56      0.00
   -5    3   16    -10.02      0.00
   -4    3   16     -6.83      0.00
   -3    3   16     -1.00      0.00
   -2    3   16     -3.47      0.00
   -1    3   16     15.89      0.00
    0    3   16      1.04      0.00
    1    3   16      4.35      0.00
    2    3   16      3.93      0.00
    3    3   16    -11.51      0.00
    4    3   16      3.85      0.00
    5    3   16     -6.77      0.00
    6    3   16      1.76      0.00
    7    3   16      0.25      0.00
    8    3   16      0.94      0.00
    9    3   16      1.71      0.00
   10    3   16     -0.89      0.00
   11    3   16      0.23      0.00
   12    3   16     -0.40      0.00
   13    3   16     -0.13      0.00
  -13    4   16     -0.40      0.00
  -12    4   16      2.83      0.00
  -11    4   16      0.08      0.00
  -10    4   16      2.69      0.00
   -9    4   16     -0.06      0.00
   -8    4   16      2.74      0.00
   -7    4   16     -1.70      0.00
   -6    4   16      6.21      0.00
   -5    4   16     -1.47      0.00
   -4    4   16     -6.46      0.00
   -3    4   16      9.72      0.00
   -2    4   16     -8.97      0.00
   -1    4   16      5.07      0.00
    0    4   16      0.76      0.00
    1    4   16     -8.34      0.00
    2    4   16     -4.49      0.00
    3    4   16     -6.41      0.00
    4    4   16      3.81      0.00
    5    4   16      2.16      0.00
    6    4   16      8.91      0.00
    7    4   16      2.85      0.00
    8    4   16     -0.37      0.00
    9    4   16      1.28      0.00
   10    4   16     -2.01      0.00
   11    4   16      0.35      0.00
   12    4   16      0.52      0.00
   13    4   16     -0.09      0.00
  -13    5   16     -0.34      0.00
  -12    5   16      0.56      0.00
  -11    5   16      2.35      0.00
  -10    5   16      0.50      0.00
   -9    5   16      2.46      0.00
   -8    5   16      2.44      0.00
   -7    5   16     -2.93      0.00
   -6    5   16     -3.33      0.00
   -5    5   16     -4.27      0.00
   -4    5   16     -3.02      0.00
   -3    5   16      2.00      0.00
   -2    5   16      1.10      0.00
   -1    5   16     -2.65      0.00
    0    5   16     -9.49      0.00
    1    5   16      0.52      0.00
    2    5   16     -0.70      0.00
    3    5   16      5.57      0.00
    4    5   16     10.72      0.00
    5    5   16     -0.51      0.00
    6    5   16      3.26      0.00
    7    5   16     -2.89      0.00
    8    5   16     -4.24      0.00
    9    5   16     -0.61      0.00
   10    5   16     -0.05      0.00
   11    5   16      0.08      0.00
   12    5   16     -0.46      0.00
  -13    6   16      0.32      0.00
  -12    6   16      0.45      0.00
  -11    6   16     -1.58      0.00
  -10    6   16      4.59      0.00
   -9    6   16     -1.19      0.00
   -8    6   16      2.96      0.00
   -7    6   16      1.61      0.00
   -6    6   16     -0.29      0.00
   -5    6   16     -2.35      0.00
   -4    6   16      2.92      0.00
   -3    6   16     -3.85      0.00
   -2    6   16     -8.08      0.00
   -1    6   16      3.56      0.00
    0    6   16    -12.37      0.00
    1    6   16      3.22      0.00
    2    6   16     -0.38      0.00
    3    6   16      0.46      0.00
    4    6   16      4.21      0.00
    5    6   16     -2.71      0.00
    6    6   16     -1.48      0.00
    7    6   16     -3.05      0.00
    8    6   16      0.37      0.00
    9    6   16     -0.39      0.00
   10    6   16      0.80      0.00
   11    6   16      0.75      0.00
   12    6   16     -0.02      0.00
  -12    7   16      0.40      0.00
  -11    7   16      0.48      0.00
  -10    7   16      0.02      0.00
   -9    7   16      1.19      0.00
   -8    7   16     -1.56      0.00
   -7    7   16     -5.13      0.00
   -6    7   16      4.99      0.00
   -5    7   16     -4.52      0.00
   -4    7   16      3.59      0.00
   -3    7   16      4.39      0.00
   -2    7   16     -3.33      0.00
   -1    7   16      5.94      0.00
    0    7   16     -0.34      0.00
    1    7   16      3.54      0.00
    2    7   16      3.18      0.00
    3    7   16     -2.32      0.00
    4    7   16     -3.54      0.00
    5    7   16     -5.81      0.00
    6    7   16     -2.89      0.00
    7    7   16      0.15      0.00
    8    7   16     -0.28      0.00
    9    7   16      0.69      0.00
   10    7   16      0.42      0.00
   11    7   16     -0.86      0.00
  -12    8   16      0.11      0.00
  -11    8   16      1.94      0.00
  -10    8   16      1.98      0.00
   -9    8   16     -0.77      0.00
   -8    8   16      1.37      0.00
   -7    8   16     -3.02      0.00
   -6    8   16     -2.51      0.00
   -5    8   16     -1.81      0.00
   -4    8   16      3.08      0.00
   -3    8   16     -2.81      0.00
   -2    8   16      4.99      0.00
   -1    8   16      3.49      0.00
    0    8   16     -0.07      0.00
    1    8   16      3.83      0.00
    2    8   16     -0.63      0.00
    3    8   16     -1.53      0.00
    4    8   16      0.68      0.00
    5    8   16     -2.01      0.00
    6    8   16     -0.66      0.00
    7    8   16      2.70      0.00
    8    8   16      1.31      0.00
    9    8   16      0.60      0.00
   10    8   16      1.06      0.00
   11    8   16     -1.47      0.00
  -11    9   16      0.82      0.00
  -10    9   16      0.01      0.00
   -9    9   16      1.02      0.00
   -8    9   16     -1.42      0.00
   -7    9   16      1.92      0.00
   -6    9   16      1.60      0.00
   -5    9   16     -1.53      0.00
   -4    9   16      5.76      0.00
   -3    9   16     -4.39      0.00
   -2    9   16     -2.74      0.00
   -1    9   16      2.64      0.00
    0    9   16     -1.67      0.00
    1    9   16      2.45      0.00
    2    9   16      0.93      0.00
    3    9   16     -3.78      0.00
    4    9   16     -0.66      0.00
    5    9   16      1.85      0.00
    6    9   16      0.83      0.00
    7    9   16      2.68      0.00
    8    9   16      1.64      0.00
    9    9   16     -0.23      0.00
   10    9   16     -0.02      0.00
  -10   10   16     -1.51      0.00
   -9   10   16      1.22      0.00
   -8   10   16      0.71      0.00
   -7   10   16     -1.63      0.00
   -6   10   16      0.76      0.00
   -5   10   16     -0.69      0.00
   -4   10   16     -2.23      0.00
   -3   10   16     -1.05      0.00
   -2   10   16     -0.08      0.00
   -1   10   16      1.13      0.00
    0   10   16     -0.43      0.00
    1   10   16     -1.20      0.00
    2   10   16      0.80      0.00
    3   10   16      1.66      0.00
    4   10   16      1.74      0.00
    5   10   16      3.48      0.00
    6   10   16      1.64      0.00
    7   10   16      2.05      0.00
    8   10   16     -1.15      0.00
    9   10   16     -0.33      0.00
   -9   11   16      0.81      0.00
   -8   11   16      0.89      0.00
   -7   11   16     -0.02      0.00
   -6   11   16     -0.30      0.00
   -5   11   16      0.02      0.00
   -4   11   16      0.57      0.00
   -3   11   16     -2.03      0.00
   -2   11   16      0.71      0.00
   -1   11   16     -1.42      0.00
    0   11   16     -0.36      0.00
    1   11   16     -0.19      0.00
    2   11   16     -0.58      0.00
    3   11   16     -0.62      0.00
    4   11   16      1.71      0.00
    5   11   16      1.33      0.00
    6   11   16     -2.11      0.00
    7   11   16      1.65      0.00
    8   11   16     -0.68      0.00
    9   11   16     -0.27      0.00
   -8   12   16     -0.99      0.00
   -7   12   16      1.36      0.00
   -6   12   16     -1.39      0.00
   -5   12   16     -0.20      0.00
   -4   12   16      0.99      0.00
   -3   12   16     -0.39      0.00
   -2   12   16      1.51      0.00
   -1   12   16      1.17      0.00
    0   12   16     -0.25      0.00
    1   12   16     -0.11      0.00
    2   12   16      1.90      0.00
    3   12   16     -1.38      0.00
    4   12   16     -1.88      0.00
    5   12   16      0.52      0.00
    6   12   16     -1.04      0.00
    7   12   16      0.48      0.00
   -7   13   16     -1.16      0.00
   -6   13   16     -0.52      0.00
   -5   13   16     -0.55      0.00
   -4   13   16      0.45      0.00
   -3   13   16      0.93      0.00
   -2   13   16     -0.07      0.00
   -1   13   16      0.90      0.00
    0   13   16      1.81      0.00
    1   13   16     -1.56      0.00
    2   13   16      0.39      0.00
    3   13   16      0.85      0.00
    4   13   16     -0.46      0.00
    5   13   16     -0.73      0.00
    6   13   16      0.02      0.00
   -5   14   16      0.37      0.00
   -4   14   16      0.89      0.00
   -3   14   16      0.96      0.00
   -2   14   16      0.70      0.00
   -1   14   16      0.14      0.00
    0   14   16     -0.63      0.00
    1   14   16      0.89      0.00
    2   14   16     -0.03      0.00
    3   14   16     -0.59      0.00
    4   14   16      0.17      0.00
  -13    0   17      0.82      0.00
  -11    0   17      4.24      0.00
   -9    0   17     -0.80      0.00
   -7    0   17     -6.08      0.00
   -5    0   17      0.52      0.00
   -3    0   17     -0.14      0.00
   -1    0   17     -7.48      0.00
    1    0   17     -1.08      0.00
    3    0   17      1.67      0.00
    5    0   17      4.79      0.00
    7    0   17      2.21      0.00
    9    0   17     -2.44      0.00
   11    0   17     -2.98      0.00
   13    0   17      0.60      0.00
  -14    1   17     -0.33      0.00
  -13    1   17     -0.40      0.00
  -12    1   17      0.62      0.00
  -11    1   17     -0.62      0.00
  -10    1   17      0.13      0.00
   -9    1   17      0.12      0.00
   -8    1   17     -3.17      0.00
   -7    1   17      3.56      0.00
   -6    1   17      3.39      0.00
   -5    1   17     -2.72      0.00
   -4    1   17     -5.59      0.00
   -3    1   17     -0.28      0.00
   -2    1   17     -3.78      0.00
   -1    1   17     -4.21      0.00
    0    1   17      1.77      0.00
    1    1   17     -5.11      0.00
    2    1   17     -6.81      0.00
    3    1   17      9.51      0.00
    4    1   17     -4.77      0.00
    5    1   17     11.99      0.00
    6    1   17      4.27      0.00
    7    1   17     -1.62      0.00
    8    1   17      4.60      0.00
    9    1   17     -3.13      0.00
   10    1   17     -0.69      0.00
   11    1   17      1.17      0.00
   12    1   17      0.07      0.00
   13    1   17     -0.60      0.00
  -13    2   17      1.45      0.00
  -12    2   17     -0.11      0.00
  -11    2   17     -0.21      0.00
  -10    2   17     -3.42      0.00
   -9    2   17     -3.01      0.00
   -8    2   17      0.14      0.00
   -7    2   17     -6.12      0.00
   -6    2   17      3.97      0.00
   -5    2   17     -4.61      0.00
   -4    2   17     -2.44      0.00
   -3    2   17      0.37      0.00
   -2    2   17      2.12      0.00
   -1    2   17     -2.36      0.00
    0    2   17      6.32      0.00
    1    2   17      1.56      0.00
    2    2   17     -7.81      0.00
    3    2   17      5.12      0.00
    4    2   17     -2.69      0.00
    5    2   17     -1.16      0.00
    6    2   17      4.90      0.00
    7    2   17     -4.02      0.00
    8    2   17     -0.06      0.00
    9    2   17     -1.11      0.00
   10    2   17     -1.76      0.00
   11    2   17      0.44      0.00
   12    2   17      0.86      0.00
   13    2   17     -0.18      0.00
  -13    3   17      0.04      0.00
  -12    3   17     -0.29      0.00
  -11    3   17      0.06      0.00
  -10    3   17      1.23      0.00
   -9    3   17      0.16      0.00
   -8    3   17     -1.76      0.00
   -7    3   17      1.39      0.00
   -6    3   17    -10.95      0.00
   -5    3   17     -5.02      0.00
   -4    3   17     -1.90      0.00
   -3    3   17      2.17      0.00
   -2    3   17      9.72      0.00
   -1    3   17      1.45      0.00
    0    3   17      0.46      0.00
    1    3   17      2.21      0.00
    2    3   17      1.86      0.00
    3    3   17      2.82      0.00
    4    3   17      0.42      0.00
    5    3   17     -0.16      0.00
    6    3   17     -5.46      0.00
    7    3   17     -1.01      0.00
    8    3   17     -1.79      0.00
    9    3   17      0.82      0.00
   10    3   17      2.25      0.00
   11    3   17      0.46      0.00
   12    3   17      0.70      0.00
  -13    4   17      0.96      0.00
  -12    4   17     -0.40      0.00
  -11    4   17      0.32      0.00
  -10    4   17      0.95      0.00
   -9    4   17      0.53      0.00
   -8    4   17     -3.08      0.00
   -7    4   17     -3.26      0.00
   -6    4   17     -2.74      0.00
   -5    4   17     -1.27      0.00
   -4    4   17      2.37      0.00
   -3    4   17      0.70      0.00
   -2    4   17      4.52      0.00
   -1    4   17     -2.08      0.00
    0    4   17      8.30      0.00
    1    4   17     -5.39      0.00
    2    4   17     -0.22      0.00
    3    4   17      2.85      0.00
    4    4   17     -8.60      0.00
    5    4   17      4.04      0.00
    6    4   17     -3.25      0.00
    7    4   17     -1.12      0.00
    8    4   17      3.17      0.00
    9    4   17      0.42      0.00
   10    4   17      1.70      0.00
   11    4   17      0.46      0.00
   12    4   17     -0.35      0.00
  -13    5   17     -0.07      0.00
  -12    5   17      1.21      0.00
  -11    5   17      0.93      0.00
  -10    5   17      2.41      0.00
   -9    5   17     -1.24      0.00
   -8    5   17     -3.40      0.00
   -7    5   17     -2.19      0.00
   -6    5   17     -4.70      0.00
   -5    5   17      2.41      0.00
   -4    5   17      0.36      0.00
   -3    5   17     -2.14      0.00
   -2    5   17      0.50      0.00
   -1    5   17    -11.58      0.00
    0    5   17     -2.12      0.00
    1    5   17      0.39      0.00
    2    5   17     -3.38      0.00
    3    5   17      4.82      0.00
    4    5   17     -1.16      0.00
    5    5   17     -1.24      0.00
    6    5   17      3.07      0.00
    7    5   17      1.33      0.00
    8    5   17      0.95      0.00
    9    5   17      0.56      0.00
   10    5   17     -1.53      0.00
   11    5   17     -1.00      0.00
   12    5   17     -0.37      0.00
  -12    6   17     -0.58      0.00
  -11    6   17      1.70      0.00
  -10    6   17     -1.36      0.00
   -9    6   17     -2.34      0.00
   -8    6   17     -0.71      0.00
   -7    6   17      1.22      0.00
   -6    6   17     -1.76      0.00
   -5    6   17      2.97      0.00
   -4    6   17      1.83      0.00
   -3    6   17     -4.60      0.00
   -2    6   17     -1.19      0.00
   -1    6   17     -4.98      0.00
    0    6   17     -5.03      0.00
    1    6   17     -4.30      0.00
    2    6   17      2.68      0.00
    3    6   17     -2.50      0.00
    4    6   17      4.63      0.00
    5    6   17      2.11      0.00
    6    6   17     -1.26      0.00
    7    6   17      2.71      0.00
    8    6   17     -1.02      0.00
    9    6   17     -0.06      0.00
   10    6   17     -0.51      0.00
   11    6   17     -0.97      0.00
  -12    7   17      2.00      0.00
  -11    7   17     -1.04      0.00
  -10    7   17     -0.74      0.00
   -9    7   17     -0.74      0.00
   -8    7   17     -2.19      0.00
   -7    7   17      2.78      0.00
   -6    7   17     -0.15      0.00
   -5    7   17      3.65      0.00
   -4    7   17     -0.65      0.00
   -3    7   17     -2.41      0.00
   -2    7   17     -2.99      0.00
   -1    7   17      0.16      0.00
    0    7   17      8.00      0.00
    1    7   17      1.95      0.00
    2    7   17      3.40      0.00
    3    7   17     -1.13      0.00
    4    7   17     -3.91      0.00
    5    7   17      1.39      0.00
    6    7   17     -0.26      0.00
    7    7   17     -0.29      0.00
    8    7   17      0.78      0.00
    9    7   17     -0.79      0.00
   10    7   17     -1.31      0.00
   11    7   17     -0.34      0.00
  -11    8   17      1.10      0.00
  -10    8   17     -2.30      0.00
   -9    8   17      0.64      0.00
   -8    8   17      2.43      0.00
   -7    8   17     -1.42      0.00
   -6    8   17     -1.72      0.00
   -5    8   17      1.93      0.00
   -4    8   17     -5.23      0.00
   -3    8   17      2.39      0.00
   -2    8   17      6.82      0.00
   -1    8   17      1.39      0.00
    0    8   17      4.86      0.00
    1    8   17      1.94      0.00
    2    8   17     -3.16      0.00
    3    8   17      1.38      0.00
    4    8   17     -0.56      0.00
    5    8   17      0.21      0.00
    6    8   17      1.11      0.00
    7    8   17     -0.13      0.00
    8    8   17     -0.81      0.00
    9    8   17      0.37      0.00
   10    8   17     -0.02      0.00
  -11    9   17     -0.13      0.00
  -10    9   17      1.11      0.00
   -9    9   17     -0.29      0.00
   -8    9   17      1.02      0.00
   -7    9   17      0.56      0.00
   -6    9   17     -3.46      0.00
   -5    9   17      0.11      0.00
   -4    9   17      0.51      0.00
   -3    9   17      0.53      0.00
   -2    9   17      2.95      0.00
   -1    9   17      2.47      0.00
    0    9   17      0.02      0.00
    1    9   17      0.97      0.00
    2    9   17     -2.10      0.00
    3    9   17     -2.79      0.00
    4    9   17      0.92      0.00
    5    9   17      0.45      0.00
    6    9   17     -1.00      0.00
    7    9   17      0.47      0.00
    8    9   17      0.43      0.00
    9    9   17      0.33      0.00
   10    9   17      0.70      0.00
  -10   10   17      1.01      0.00
   -9   10   17     -0.22      0.00
   -8   10   17     -0.78      0.00
   -7   10   17     -0.38      0.00
   -6   10   17      0.60      0.00
   -5   10   17     -0.35      0.00
   -4   10   17     -0.40      0.00
   -3   10   17      2.51      0.00
   -2   10   17     -0.71      0.00
   -1   10   17     -1.49      0.00
    0   10   17     -0.35      0.00
    1   10   17     -2.93      0.00
    2   10   17      1.10      0.00
    3   10   17      1.02      0.00
    4   10   17     -1.15      0.00
    5   10   17      1.85      0.00
    6   10   17      1.35      0.00
    7   10   17     -0.42      0.00
    8   10   17      0.86      0.00
    9   10   17     -1.38      0.00
   -9   11   17     -1.12      0.00
   -8   11   17      0.00      0.00
   -7   11   17     -0.16      0.00
   -6   11   17     -0.15      0.00
   -5   11   17      2.04      0.00
   -4   11   17      0.82      0.00
   -3   11   17      0.81      0.00
   -2   11   17      0.52      0.00
   -1   11   17     -1.63      0.00
    0   11   17     -1.25      0.00
    1   11   17     -1.09      0.00
    2   11   17     -1.98      0.00
    3   11   17      3.55      0.00
    4   11   17      1.48      0.00
    5   11   17      0.07      0.00
    6   11   17      1.69      0.00
    7   11   17     -2.50      0.00
    8   11   17      0.47      0.00
   -8   12   17     -0.28      0.00
   -7   12   17      1.38      0.00
   -6   12   17      0.31      0.00
   -5   12   17      0.36      0.00
   -4   12   17      1.46      0.00
   -3   12   17      0.94      0.00
   -2   12   17     -0.73      0.00
   -1   12   17      0.22      0.00
    0   12   17      0.23      0.00
    1   12   17      2.56      0.00
    2   12   17      1.04      0.00
    3   12   17      0.12      0.00
    4   12   17     -0.50      0.00
    5   12   17      0.13      0.00
    6   12   17      0.36      0.00
    7   12   17      0.30      0.00
   -6   13   17      1.06      0.00
   -5   13   17     -0.74      0.00
   -4   13   17     -0.41      0.00
   -3   13   17     -0.25      0.00
   -2   13   17     -0.66      0.00
   -1   13   17      1.05      0.00
    0   13   17      2.31      0.00
    1   13   17      0.29      0.00
    2   13   17      1.42      0.00
    3   13   17      0.40      0.00
    4   13   17     -1.39      0.00
    5   13   17      0.10      0.00
   -4   14   17     -0.59      0.00
   -3   14   17      0.91      0.00
   -2   14   17      1.19      0.00
   -1   14   17     -0.22      0.00
    0   14   17      0.86      0.00
    1   14   17     -0.14      0.00
    2   14   17     -1.93      0.00
    3   14   17     -0.51      0.00
  -12    0   18      0.57      0.00
  -10    0   18     -1.35      0.00
   -8    0   18     -1.75      0.00
   -6    0   18     -5.61      0.00
   -4    0   18     -6.04      0.00
   -2    0   18      0.18      0.00
    0    0   18      3.10      0.00
    2    0   18     -0.36      0.00
    4    0   18      0.44      0.00
    6    0   18      1.78      0.00
    8    0   18     -1.62      0.00
   10    0   18     -1.03      0.00
   12    0   18     -0.24      0.00
  -13    1   18     -1.64      0.00
  -12    1   18     -1.55      0.00
  -11    1   18     -2.61      0.00
  -10    1   18      2.16      0.00
   -9    1   18     -3.88      0.00
   -8    1   18      1.50      0.00
   -7    1   18     -1.83      0.00
   -6    1   18     -2.86      0.00
   -5    1   18     -4.71      0.00
   -4    1   18      8.40      0.00
   -3    1   18      7.84      0.00
   -2    1   18     -0.05      0.00
   -1    1   18      6.36      0.00
    0    1   18    -16.30      0.00
    1    1   18     -6.68      0.00
    2    1   18     -0.78      0.00
    3    1   18     -5.57      0.00
    4    1   18     10.64      0.00
    5    1   18      0.02      0.00
    6    1   18      5.20      0.00
    7    1   18      0.44      0.00
    8    1   18     -0.11      0.00
    9    1   18      0.80      0.00
   10    1   18      0.12      0.00
   11    1   18      1.79      0.00
   12    1   18     -0.94      0.00
  -13    2   18      0.53      0.00
  -12    2   18      1.10      0.00
  -11    2   18     -1.60      0.00
  -10    2   18     -3.35      0.00
   -9    2   18     -0.28      0.00
   -8    2   18     -5.20      0.00
   -7    2   18     -4.18      0.00
   -6    2   18      1.06      0.00
   -5    2   18      1.89      0.00
   -4    2   18      0.70      0.00
   -3    2   18      4.10      0.00
   -2    2   18    -10.37      0.00
   -1    2   18      2.63      0.00
    0    2   18     -4.80      0.00
    1    2   18     -1.43      0.00
    2    2   18      6.81      0.00
    3    2   18      0.42      0.00
    4    2   18      8.02      0.00
    5    2   18     -0.27      0.00
    6    2   18      1.35      0.00
    7    2   18     -0.26      0.00
    8    2   18     -1.81      0.00
    9    2   18      0.65      0.00
   10    2   18     -0.97      0.00
   11    2   18     -0.93      0.00
   12    2   18     -0.29      0.00
  -13    3   18     -0.28      0.00
  -12    3   18     -0.02      0.00
  -11    3   18      0.00      0.00
  -10    3   18     -0.07      0.00
   -9    3   18     -5.43      0.00
   -8    3   18      2.60      0.00
   -7    3   18     -3.48      0.00
   -6    3   18      1.56      0.00
   -5    3   18      3.88      0.00
   -4    3   18      3.62      0.00
   -3    3   18     -3.70      0.00
   -2    3   18     -2.51      0.00
   -1    3   18     -4.14      0.00
    0    3   18     -3.39      0.00
    1    3   18      7.00      0.00
    2    3   18      4.20      0.00
    3    3   18      2.21      0.00
    4    3   18      3.05      0.00
    5    3   18     -3.17      0.00
    6    3   18     -0.89      0.00
    7    3   18      1.68      0.00
    8    3   18      0.93      0.00
    9    3   18      1.04      0.00
   10    3   18      0.67      0.00
   11    3   18     -0.40      0.00
   12    3   18      0.39      0.00
  -13    4   18      0.53      0.00
  -12    4   18     -0.08      0.00
  -11    4   18     -1.25      0.00
  -10    4   18     -3.32      0.00
   -9    4   18     -1.11      0.00
   -8    4   18     -3.17      0.00
   -7    4   18      0.25      0.00
   -6    4   18     -0.95      0.00
   -5    4   18     -3.76      0.00
   -4    4   18      4.84      0.00
   -3    4   18     -3.02      0.00
   -2    4   18     -0.11      0.00
   -1    4   18     14.62      0.00
    0    4   18     -1.95      0.00
    1    4   18      9.84      0.00
    2    4   18      3.87      0.00
    3    4   18     -5.18      0.00
    4    4   18      0.89      0.00
    5    4   18     -5.04      0.00
    6    4   18     -2.59      0.00
    7    4   18     -1.38      0.00
    8    4   18     -0.29      0.00
    9    4   18      0.23      0.00
   10    4   18      1.12      0.00
   11    4   18      0.21      0.00
   12    4   18      0.26      0.00
  -12    5   18      0.16      0.00
  -11    5   18      0.32      0.00
  -10    5   18     -3.00      0.00
   -9    5   18     -0.17      0.00
   -8    5   18      2.22      0.00
   -7    5   18     -4.15      0.00
   -6    5   18      3.39      0.00
   -5    5   18     -2.53      0.00
   -4    5   18     -3.16      0.00
   -3    5   18     -3.29      0.00
   -2    5   18     -6.41      0.00
   -1    5   18      5.09      0.00
    0    5   18      2.20      0.00
    1    5   18      2.36      0.00
    2    5   18     -1.86      0.00
    3    5   18     -5.65      0.00
    4    5   18     -2.73      0.00
    5    5   18     -1.31      0.00
    6    5   18      1.01      0.00
    7    5   18      3.12      0.00
    8    5   18     -0.16      0.00
    9    5   18     -0.21      0.00
   10    5   18     -0.80      0.00
   11    5   18     -0.25      0.00
  -12    6   18     -0.14      0.00
  -11    6   18     -0.32      0.00
  -10    6   18     -3.38      0.00
   -9    6   18     -0.75      0.00
   -8    6   18     -0.38      0.00
   -7    6   18     -1.43      0.00
   -6    6   18      0.12      0.00
   -5    6   18     -0.12      0.00
   -4    6   18      1.10      0.00
   -3    6   18      1.97      0.00
   -2    6   18      5.50      0.00
   -1    6   18     -0.49      0.00
    0    6   18     -6.94      0.00
    1    6   18     -4.66      0.00
    2    6   18     -6.26      0.00
    3    6   18     -1.99      0.00
    4    6   18      2.70      0.00
    5    6   18      4.81      0.00
    6    6   18      0.51      0.00
    7    6   18      2.81      0.00
    8    6   18     -0.88      0.00
    9    6   18     -1.59      0.00
   10    6   18      0.40      0.00
   11    6   18     -0.51      0.00
  -12    7   18     -1.29      0.00
  -11    7   18     -0.80      0.00
  -10    7   18      0.37      0.00
   -9    7   18     -0.07      0.00
   -8    7   18     -0.88      0.00
   -7    7   18     -0.16      0.00
   -6    7   18     -0.02      0.00
   -5    7   18     -2.10      0.00
   -4    7   18      3.75      0.00
   -3    7   18     -1.32      0.00
   -2    7   18     -0.15      0.00
   -1    7   18      0.96      0.00
    0    7   18     -1.31      0.00
    1    7   18     -1.92      0.00
    2    7   18      1.51      0.00
    3    7   18      2.50      0.00
    4    7   18      2.20      0.00
    5    7   18      5.09      0.00
    6    7   18      0.05      0.00
    7    7   18     -0.68      0.00
    8    7   18      0.58      0.00
    9    7   18     -1.19      0.00
   10    7   18      0.29      0.00
   11    7   18     -0.07      0.00
  -11    8   18      0.44      0.00
  -10    8   18     -0.56      0.00
   -9    8   18      0.79      0.00
   -8    8   18     -1.51      0.00
   -7    8   18      0.31      0.00
   -6    8   18      3.51      0.00
   -5    8   18     -0.88      0.00
   -4    8   18      1.35      0.00
   -3    8   18      2.06      0.00
   -2    8   18     -2.26      0.00
   -1    8   18     -0.61      0.00
    0    8   18      0.27      0.00
    1    8   18     -1.32      0.00
    2    8   18      3.40      0.00
    3    8   18      2.40      0.00
    4    8   18      0.71      0.00
    5    8   18     -0.22      0.00
    6    8   18      0.26      0.00
    7    8   18     -0.63      0.00
    8    8   18     -0.74      0.00
    9    8   18     -0.09      0.00
   10    8   18      0.71      0.00
  -10    9   18     -0.18      0.00
   -9    9   18     -1.36      0.00
   -8    9   18     -0.43      0.00
   -7    9   18     -0.13      0.00
   -6    9   18     -1.98      0.00
   -5    9   18      0.29      0.00
   -4    9   18     -0.33      0.00
   -3    9   18      0.51      0.00
   -2    9   18      1.64      0.00
   -1    9   18      0.82      0.00
    0    9   18      1.10      0.00
    1    9   18      0.27      0.00
    2    9   18      2.13      0.00
    3    9   18      0.52      0.00
    4    9   18     -0.43      0.00
    5    9   18     -1.47      0.00
    6    9   18     -2.46      0.00
    7    9   18     -1.36      0.00
    8    9   18      0.95      0.00
    9    9   18      0.38      0.00
   -9   10   18      0.10      0.00
   -8   10   18     -2.35      0.00
   -7   10   18      1.81      0.00
   -6   10   18      0.54      0.00
   -5   10   18     -1.40      0.00
   -4   10   18      1.17      0.00
   -3   10   18     -0.44      0.00
   -2   10   18     -2.32      0.00
   -1   10   18      0.38      0.00
    0   10   18      0.64      0.00
    1   10   18      0.03      0.00
    2   10   18      1.32      0.00
    3   10   18     -1.64      0.00
    4   10   18     -3.28      0.00
    5   10   18     -1.28      0.00
    6   10   18     -0.39      0.00
    7   10   18     -0.26      0.00
    8   10   18      0.24      0.00
   -8   11   18     -0.89      0.00
   -7   11   18     -0.48      0.00
   -6   11   18      1.80      0.00
   -5   11   18      1.41      0.00
   -4   11   18     -0.85      0.00
   -3   11   18      1.97      0.00
   -2   11   18      0.03      0.00
   -1   11   18      0.33      0.00
    0   11   18      0.74      0.00
    1   11   18     -2.79      0.00
    2   11   18     -1.19      0.00
    3   11   18     -0.32      0.00
    4   11   18     -0.05      0.00
    5   11   18      0.15      0.00
    6   11   18      0.10      0.00
    7   11   18     -0.23      0.00
   -7   12   18     -1.66      0.00
   -6   12   18      0.51      0.00
   -5   12   18      0.35      0.00
   -4   12   18      0.59      0.00
   -3   12   18      0.86      0.00
   -2   12   18      1.37      0.00
   -1   12   18      0.49      0.00
    0   12   18      0.37      0.00
    1   12   18     -0.36      0.00
    2   12   18     -0.56      0.00
    3   12   18     -0.45      0.00
    4   12   18      2.79      0.00
    5   12   18      0.26      0.00
    6   12   18      1.13      0.00
   -5   13   18     -0.05      0.00
   -4   13   18     -0.74      0.00
   -3   13   18      0.23      0.00
   -2   13   18     -0.95      0.00
   -1   13   18      0.28      0.00
    0   13   18     -0.11      0.00
    1   13   18      1.89      0.00
    2   13   18      0.81      0.00
    3   13   18      1.01      0.00
    4   13   18      0.47      0.00
   -2   14   18     -0.29      0.00
   -1   14   18      0.06      0.00
    0   14   18      0.54      0.00
    1   14   18     -1.03      0.00
  -13    0   19      0.27      0.00
  -11    0   19     -1.49      0.00
   -7    0   19     -2.85      0.00
   -5    0   19     -0.10      0.00
   -3    0   19     -9.42      0.00
   -1    0   19     -3.10      0.00
    1    0   19     14.56      0.00
    3    0   19     10.38      0.00
    5    0   19     -6.55      0.00
    7    0   19     -4.57      0.00
    9    0   19      1.32      0.00
   11    0   19     -0.37      0.00
  -13    1   19     -1.67      0.00
  -12    1   19     -2.90      0.00
  -11    1   19     -0.21      0.00
  -10    1   19     -3.20      0.00
   -9    1   19      1.03      0.00
   -8    1   19     -1.59      0.00
   -7    1   19      1.54      0.00
   -6    1   19     -1.77      0.00
   -5    1   19      3.89      0.00
   -4    1   19      7.67      0.00
   -3    1   19     -4.86      0.00
   -2    1   19      6.63      0.00
   -1    1   19     -2.96      0.00
    0    1   19      0.14      0.00
    1    1   19      0.62      0.00
    2    1   19     -2.36      0.00
    3    1   19     -4.51      0.00
    4    1   19     -4.43      0.00
    5    1   19     -1.56      0.00
    6    1   19     -3.25      0.00
    7    1   19      5.82      0.00
    8    1   19      1.41      0.00
    9    1   19      1.23      0.00
   10    1   19      1.66      0.00
   11    1   19     -1.04      0.00
   12    1   19      0.33      0.00
  -13    2   19      0.44      0.00
  -12    2   19     -0.37      0.00
  -11    2   19     -1.89      0.00
  -10    2   19     -1.07      0.00
   -9    2   19     -1.83      0.00
   -8    2   19     -1.49      0.00
   -7    2   19      1.97      0.00
   -6    2   19     -2.54      0.00
   -5    2   19      1.36      0.00
   -4    2   19      0.12      0.00
   -3    2   19     -3.38      0.00
   -2    2   19      6.10      0.00
   -1    2   19     -3.79      0.00
    0    2   19      8.32      0.00
    1    2   19     -3.60      0.00
    2    2   19     -0.57      0.00
    3    2   19      3.34      0.00
    4    2   19     -4.61      0.00
    5    2   19      7.67      0.00
    6    2   19     -1.74      0.00
    7    2   19      1.46      0.00
    8    2   19     -0.18      0.00
    9    2   19     -1.65      0.00
   10    2   19     -1.01      0.00
   11    2   19     -1.13      0.00
   12    2   19     -1.26      0.00
  -13    3   19     -0.41      0.00
  -12    3   19     -0.86      0.00
  -11    3   19      1.33      0.00
  -10    3   19     -2.89      0.00
   -9    3   19      1.64      0.00
   -8    3   19      0.49      0.00
   -7    3   19      3.42      0.00
   -6    3   19      2.92      0.00
   -5    3   19      8.89      0.00
   -4    3   19     -2.77      0.00
   -3    3   19     -4.98      0.00
   -2    3   19      0.26      0.00
   -1    3   19     -8.81      0.00
    0    3   19      2.09      0.00
    1    3   19     -1.33      0.00
    2    3   19     -5.05      0.00
    3    3   19      2.38      0.00
    4    3   19      0.52      0.00
    5    3   19      3.21      0.00
    6    3   19      4.65      0.00
    7    3   19      2.56      0.00
    8    3   19      0.95      0.00
    9    3   19      0.11      0.00
   10    3   19     -0.77      0.00
   11    3   19     -0.01      0.00
  -12    4   19     -0.83      0.00
  -11    4   19     -2.00      0.00
  -10    4   19      0.49      0.00
   -9    4   19     -2.66      0.00
   -8    4   19      0.01      0.00
   -7    4   19      2.42      0.00
   -6    4   19     -3.02      0.00
   -5    4   19      1.10      0.00
   -4    4   19      0.27      0.00
   -3    4   19      3.49      0.00
   -2    4   19      7.84      0.00
   -1    4   19      1.01      0.00
    0    4   19      1.13      0.00
    1    4   19      0.04      0.00
    2    4   19      2.69      0.00
    3    4   19      0.88      0.00
    4    4   19      2.84      0.00
    5    4   19      1.48      0.00
    6    4   19     -2.49      0.00
    7    4   19     -1.09      0.00
    8    4   19     -2.95      0.00
    9    4   19     -0.13      0.00
   10    4   19      0.26      0.00
   11    4   19      0.98      0.00
  -12    5   19     -1.26      0.00
  -11    5   19     -1.67      0.00
  -10    5   19      0.11      0.00
   -9    5   19      2.42      0.00
   -8    5   19     -0.33      0.00
   -7    5   19      3.17      0.00
   -6    5   19     -0.90      0.00
   -5    5   19     -1.56      0.00
   -4    5   19     -5.47      0.00
   -3    5   19      0.79      0.00
   -2    5   19     -1.26      0.00
   -1    5   19     -1.01      0.00
    0    5   19      9.46      0.00
    1    5   19     -4.56      0.00
    2    5   19      5.62      0.00
    3    5   19      2.45      0.00
    4    5   19     -3.32      0.00
    5    5   19      1.50      0.00
    6    5   19     -2.21      0.00
    7    5   19     -2.97      0.00
    8    5   19     -0.04      0.00
    9    5   19     -1.11      0.00
   10    5   19      1.39      0.00
   11    5   19      1.20      0.00
  -12    6   19     -0.90      0.00
  -11    6   19     -1.09      0.00
  -10    6   19      1.84      0.00
   -9    6   19     -3.13      0.00
   -8    6   19     -0.51      0.00
   -7    6   19      0.63      0.00
   -6    6   19     -1.00      0.00
   -5    6   19      5.03      0.00
   -4    6   19     -0.53      0.00
   -3    6   19      5.33      0.00
   -2    6   19      3.14      0.00
   -1    6   19     -4.04      0.00
    0    6   19      1.27      0.00
    1    6   19     -1.37      0.00
    2    6   19     -3.36      0.00
    3    6   19      1.79      0.00
    4    6   19     -1.60      0.00
    5    6   19     -3.41      0.00
    6    6   19      2.50      0.00
    7    6   19     -2.44      0.00
    8    6   19      2.17      0.00
    9    6   19      0.25      0.00
   10    6   19     -0.81      0.00
   11    6   19      0.79      0.00
  -11    7   19     -0.08      0.00
  -10    7   19      1.16      0.00
   -9    7   19     -0.38      0.00
   -8    7   19     -1.06      0.00
   -7    7   19     -0.81      0.00
   -6    7   19     -2.19      0.00
   -5    7   19      0.28      0.00
   -4    7   19      0.70      0.00
   -3    7   19      3.01      0.00
   -2    7   19      0.09      0.00
   -1    7   19      1.88      0.00
    0    7   19     -3.84      0.00
    1    7   19      0.64      0.00
    2    7   19      0.95      0.00
    3    7   19      0.65      0.00
    4    7   19      2.79      0.00
    5    7   19     -0.31      0.00
    6    7   19      1.52      0.00
    7    7   19      0.39      0.00
    8    7   19      1.41      0.00
    9    7   19      1.31      0.00
   10    7   19     -0.63      0.00
  -10    8   19      0.94      0.00
   -9    8   19     -0.37      0.00
   -8    8   19     -0.39      0.00
   -7    8   19      1.47      0.00
   -6    8   19      3.56      0.00
   -5    8   19      1.79      0.00
   -4    8   19     -0.05      0.00
   -3    8   19      0.05      0.00
   -2    8   19     -5.29      0.00
   -1    8   19     -2.87      0.00
    0    8   19      0.20      0.00
    1    8   19     -0.17      0.00
    2    8   19     -1.01      0.00
    3    8   19      1.33      0.00
    4    8   19     -1.93      0.00
    5    8   19      0.10      0.00
    6    8   19      2.80      0.00
    7    8   19     -0.45      0.00
    8    8   19      0.59      0.00
    9    8   19      0.04      0.00
  -10    9   19     -1.76      0.00
   -9    9   19     -1.63      0.00
   -8    9   19      1.17      0.00
   -7    9   19     -1.26      0.00
   -6    9   19      1.50      0.00
   -5    9   19      0.74      0.00
   -4    9   19     -2.31      0.00
   -3    9   19     -0.24      0.00
   -2    9   19      0.73      0.00
   -1    9   19     -1.80      0.00
    0    9   19      1.11      0.00
    1    9   19      2.48      0.00
    2    9   19     -2.02      0.00
    3    9   19      1.82      0.00
    4    9   19      0.04      0.00
    5    9   19     -1.64      0.00
    6    9   19      0.09      0.00
    7    9   19     -0.30      0.00
    8    9   19     -0.49      0.00
    9    9   19      0.38      0.00
   -9   10   19     -0.30      0.00
   -8   10   19      1.30      0.00
   -7   10   19     -0.43      0.00
   -6   10   19     -0.12      0.00
   -5   10   19     -1.25      0.00
   -4   10   19     -0.27      0.00
   -3   10   19     -1.88      0.00
   -2   10   19      0.25      0.00
   -1   10   19      1.30      0.00
    0   10   19     -1.13      0.00
    1   10   19      2.27      0.00
    2   10   19     -0.82      0.00
    3   10   19     -0.48      0.00
    4   10   19      0.36      0.00
    5   10   19     -2.11      0.00
    6   10   19     -0.14      0.00
    7   10   19     -0.87      0.00
    8   10   19     -1.02      0.00
   -8   11   19      0.11      0.00
   -7   11   19     -0.46      0.00
   -6   11   19      1.67      0.00
   -5   11   19     -0.78      0.00
   -4   11   19      0.88      0.00
   -3   11   19      0.84      0.00
   -2   11   19      0.76      0.00
   -1   11   19      0.43      0.00
    0   11   19      0.06      0.00
    1   11   19      0.25      0.00
    2   11   19     -1.36      0.00
    3   11   19     -0.52      0.00
    4   11   19     -0.83      0.00
    5   11   19     -1.26      0.00
    6   11   19     -0.85      0.00
    7   11   19      0.41      0.00
   -6   12   19     -2.35      0.00
   -5   12   19      0.99      0.00
   -4   12   19      0.38      0.00
   -3   12   19      0.40      0.00
   -2   12   19      2.65      0.00
   -1   12   19      0.21      0.00
    0   12   19     -0.53      0.00
    1   12   19     -0.40      0.00
    2   12   19     -2.13      0.00
    3   12   19      1.03      0.00
    4   12   19      0.89      0.00
    5   12   19      1.10      0.00
   -4   13   19      1.22      0.00
   -3   13   19     -0.89      0.00
   -2   13   19     -0.11      0.00
   -1   13   19     -1.12      0.00
    0   13   19     -0.36      0.00
    1   13   19      0.47      0.00
    2   13   19      2.11      0.00
    3   13   19     -0.22      0.00
  -12    0   20      0.41      0.00
  -10    0   20     -0.61      0.00
   -8    0   20      2.18      0.00
   -6    0   20      3.42      0.00
   -4    0   20     -6.35      0.00
   -2    0   20     -4.35      0.00
    0    0   20      6.52      0.00
    2    0   20     11.38      0.00
    4    0   20      5.46      0.00
    6    0   20     -0.94      0.00
    8    0   20     -3.30      0.00
   10    0   20     -0.97      0.00
  -12    1   20     -1.38      0.00
  -11    1   20     -1.48      0.00
  -10    1   20      0.32      0.00
   -9    1   20      0.70      0.00
   -8    1   20      2.14      0.00
   -7    1   20      1.29      0.00
   -6    1   20      1.77      0.00
   -5    1   20      5.50      0.00
   -4    1   20     -6.90      0.00
   -3    1   20      1.15      0.00
   -2    1   20     -1.49      0.00
   -1    1   20      5.23      0.00
    0    1   20      2.61      0.00
    1    1   20      2.37      0.00
    2    1   20      0.26      0.00
    3    1   20     -6.10      0.00
    4    1   20     -2.02      0.00
    5    1   20     -3.44      0.00
    6    1   20     -1.64      0.00
    7    1   20      1.69      0.00
    8    1   20      0.97      0.00
    9    1   20      0.42      0.00
   10    1   20      0.50      0.00
   11    1   20      0.27      0.00
  -12    2   20     -0.94      0.00
  -11    2   20      0.37      0.00
  -10    2   20      0.20      0.00
   -9    2   20     -0.22      0.00
   -8    2   20      2.46      0.00
   -7    2   20     -0.15      0.00
   -6    2   20      1.40      0.00
   -5    2   20     -8.21      0.00
   -4    2   20      1.15      0.00
   -3    2   20      5.70      0.00
   -2    2   20      1.06      0.00
   -1    2   20     10.15      0.00
    0    2   20     -3.21      0.00
    1    2   20      1.53      0.00
    2    2   20      0.38      0.00
    3    2   20     -3.25      0.00
    4    2   20      1.64      0.00
    5    2   20     -0.84      0.00
    6    2   20      0.98      0.00
    7    2   20     -3.60      0.00
    8    2   20      0.92      0.00
    9    2   20     -1.67      0.00
   10    2   20     -0.52      0.00
   11    2   20     -0.39      0.00
  -12    3   20      0.64      0.00
  -11    3   20     -0.68      0.00
  -10    3   20      2.12      0.00
   -9    3   20      2.97      0.00
   -8    3   20      0.76      0.00
   -7    3   20      0.47      0.00
   -6    3   20      6.50      0.00
   -5    3   20     -1.90      0.00
   -4    3   20      0.49      0.00
   -3    3   20      5.36      0.00
   -2    3   20     -5.97      0.00
   -1    3   20      2.67      0.00
    0    3   20     -5.96      0.00
    1    3   20     -4.99      0.00
    2    3   20     -2.56      0.00
    3    3   20     -0.97      0.00
    4    3   20      1.41      0.00
    5    3   20      1.27      0.00
    6    3   20      3.09      0.00
    7    3   20      0.03      0.00
    8    3   20      0.08      0.00
    9    3   20      0.45      0.00
   10    3   20      0.20      0.00
   11    3   20     -0.19      0.00
  -12    4   20     -0.78      0.00
  -11    4   20      1.68      0.00
  -10    4   20      0.90      0.00
   -9    4   20      0.15      0.00
   -8    4   20      0.37      0.00
   -7    4   20     -2.20      0.00
   -6    4   20      1.99      0.00
   -5    4   20      2.39      0.00
   -4    4   20      4.43      0.00
   -3    4   20      4.22      0.00
   -2    4   20     -0.65      0.00
   -1    4   20     -3.95      0.00
    0    4   20     -3.61      0.00
    1    4   20     -1.75      0.00
    2    4   20      1.74      0.00
    3    4   20      2.18      0.00
    4    4   20      0.76      0.00
    5    4   20      1.42      0.00
    6    4   20     -1.68      0.00
    7    4   20     -0.11      0.00
    8    4   20      0.97      0.00
    9    4   20     -0.05      0.00
   10    4   20      0.33      0.00
   11    4   20     -1.12      0.00
  -12    5   20      0.59      0.00
  -11    5   20     -1.10      0.00
  -10    5   20      0.87      0.00
   -9    5   20      1.48      0.00
   -8    5   20      0.12      0.00
   -7    5   20      1.67      0.00
   -6    5   20      2.66      0.00
   -5    5   20     -3.73      0.00
   -4    5   20      1.75      0.00
   -3    5   20     -1.91      0.00
   -2    5   20     -3.81      0.00
   -1    5   20      2.92      0.00
    0    5   20     -2.81      0.00
    1    5   20      4.89      0.00
    2    5   20      3.38      0.00
    3    5   20      3.61      0.00
    4    5   20      0.48      0.00
    5    5   20     -0.47      0.00
    6    5   20     -0.40      0.00
    7    5   20     -1.62      0.00
    8    5   20      0.14      0.00
    9    5   20      0.42      0.00
   10    5   20      0.65      0.00
  -11    6   20      1.00      0.00
  -10    6   20     -2.49      0.00
   -9    6   20      1.10      0.00
   -8    6   20     -0.41      0.00
   -7    6   20     -0.06      0.00
   -6    6   20      6.41      0.00
   -5    6   20      0.03      0.00
   -4    6   20      1.22      0.00
   -3    6   20     -1.79      0.00
   -2    6   20     -2.70      0.00
   -1    6   20      1.40      0.00
    0    6   20      4.82      0.00
    1    6   20      4.42      0.00
    2    6   20      0.23      0.00
    3    6   20     -0.28      0.00
    4    6   20     -2.86      0.00
    5    6   20     -2.40      0.00
    6    6   20     -0.69      0.00
    7    6   20      0.91      0.00
    8    6   20     -0.80      0.00
    9    6   20      0.56      0.00
   10    6   20     -0.80      0.00
  -11    7   20      0.29      0.00
  -10    7   20      0.08      0.00
   -9    7   20      0.59      0.00
   -8    7   20      0.79      0.00
   -7    7   20     -0.32      0.00
   -6    7   20     -1.55      0.00
   -5    7   20     -1.57      0.00
   -4    7   20     -0.01      0.00
   -3    7   20     -0.88      0.00
   -2    7   20      4.57      0.00
   -1    7   20      1.62      0.00
    0    7   20      1.69      0.00
    1    7   20      1.41      0.00
    2    7   20      0.05      0.00
    3    7   20     -2.60      0.00
    4    7   20      0.30      0.00
    5    7   20     -0.05      0.00
    6    7   20     -0.72      0.00
    7    7   20      2.36      0.00
    8    7   20     -0.09      0.00
    9    7   20      1.09      0.00
  -10    8   20      0.26      0.00
   -9    8   20      1.56      0.00
   -8    8   20      1.54      0.00
   -7    8   20      1.38      0.00
   -6    8   20     -0.28      0.00
   -5    8   20     -0.47      0.00
   -4    8   20      0.50      0.00
   -3    8   20     -1.28      0.00
   -2    8   20     -0.02      0.00
   -1    8   20      0.84      0.00
    0    8   20     -1.13      0.00
    1    8   20     -4.48      0.00
    2    8   20     -1.42      0.00
    3    8   20     -3.12      0.00
    4    8   20     -0.33      0.00
    5    8   20      2.50      0.00
    6    8   20      0.20      0.00
    7    8   20      1.05      0.00
    8    8   20     -1.37      0.00
    9    8   20     -0.52      0.00
   -9    9   20      1.22      0.00
   -8    9   20     -0.41      0.00
   -7    9   20      0.71      0.00
   -6    9   20      0.48      0.00
   -5    9   20      0.17      0.00
   -4    9   20      0.42      0.00
   -3    9   20      0.02      0.00
   -2    9   20     -0.91      0.00
   -1    9   20     -1.54      0.00
    0    9   20     -1.32      0.00
    1    9   20     -0.87      0.00
    2    9   20     -0.64      0.00
    3    9   20     -1.17      0.00
    4    9   20      1.55      0.00
    5    9   20     -1.06      0.00
    6    9   20      0.17      0.00
    7    9   20      0.65      0.00
    8    9   20     -1.04      0.00
   -8   10   20     -0.30      0.00
   -7   10   20      0.98      0.00
   -6   10   20     -2.10      0.00
   -5   10   20      1.57      0.00
   -4   10   20     -0.03      0.00
   -3   10   20     -0.94      0.00
   -2   10   20      0.83      0.00
   -1   10   20     -1.23      0.00
    0   10   20     -1.40      0.00
    1   10   20     -0.63      0.00
    2   10   20      2.30      0.00
    3   10   20      0.62      0.00
    4   10   20      1.80      0.00
    5   10   20      1.16      0.00
    6   10   20     -2.55      0.00
    7   10   20     -0.17      0.00
   -7   11   20      1.17      0.00
   -6   11   20     -0.32      0.00
   -5   11   20      0.86      0.00
   -4   11   20      1.18      0.00
   -3   11   20      0.10      0.00
   -2   11   20     -0.98      0.00
   -1   11   20      0.38      0.00
    0   11   20      1.32      0.00
    1   11   20      0.72      0.00
    2   11   20      2.77      0.00
    3   11   20     -0.52      0.00
    4   11   20     -0.69      0.00
    5   11   20     -1.04      0.00
    6   11   20     -0.69      0.00
   -5   12   20     -0.15      0.00
   -4   12   20     -0.78      0.00
   -3   12   20      0.91      0.00
   -2   12   20      0.33      0.00
   -1   12   20      1.15      0.00
    0   12   20      0.86      0.00
    1   12   20      0.37      0.00
    2   12   20      0.04      0.00
    3   12   20     -1.13      0.00
    4   12   20     -0.17      0.00
   -2   13   20      0.00      0.00
   -1   13   20      0.62      0.00
    0   13   20     -1.06      0.00
    1   13   20      0.30      0.00
  -11    0   21      3.00      0.00
   -9    0   21      1.74      0.00
   -7    0   21      5.28      0.00
   -5    0   21     -2.02      0.00
   -3    0   21      6.21      0.00
   -1    0   21     -1.72      0.00
    1    0   21     -4.41      0.00
    3    0   21      5.76      0.00
    5    0   21      8.77      0.00
    7    0   21     -0.99      0.00
    9    0   21     -2.59      0.00
   11    0   21     -0.56      0.00
  -12    1   21      0.16      0.00
  -11    1   21     -0.63      0.00
  -10    1   21      2.57      0.00
   -9    1   21      0.34      0.00
   -8    1   21      1.43      0.00
   -7    1   21      0.29      0.00
   -6    1   21      1.32      0.00
   -5    1   21     -0.13      0.00
   -4    1   21      1.58      0.00
   -3    1   21     -1.80      0.00
   -2    1   21      4.67      0.00
   -1    1   21     -4.25      0.00
    0    1   21      2.33      0.00
    1    1   21      1.27      0.00
    2    1   21     -2.57      0.00
    3    1   21      7.08      0.00
    4    1   21     -1.62      0.00
    5    1   21     -1.32      0.00
    6    1   21      0.07      0.00
    7    1   21     -2.85      0.00
    8    1   21     -0.34      0.00
    9    1   21      0.32      0.00
   10    1   21      0.01      0.00
   11    1   21      0.91      0.00
  -12    2   21      1.92      0.00
  -11    2   21      0.55      0.00
  -10    2   21      0.50      0.00
   -9    2   21      1.48      0.00
   -8    2   21     -0.68      0.00
   -7    2   21      3.43      0.00
   -6    2   21     -3.12      0.00
   -5    2   21      2.12      0.00
   -4    2   21      1.32      0.00
   -3    2   21     -0.43      0.00
   -2    2   21     -1.67      0.00
   -1    2   21     -1.09      0.00
    0    2   21      1.66      0.00
    1    2   21      4.12      0.00
    2    2   21      4.99      0.00
    3    2   21      1.17      0.00
    4    2   21     -1.00      0.00
    5    2   21     -2.25      0.00
    6    2   21     -3.74      0.00
    7    2   21      0.34      0.00
    8    2   21     -0.75      0.00
    9    2   21      1.68      0.00
   10    2   21     -0.02      0.00
   11    2   21     -1.12      0.00
  -12    3   21      0.46      0.00
  -11    3   21      0.27      0.00
  -10    3   21      1.70      0.00
   -9    3   21     -0.25      0.00
   -8    3   21      1.05      0.00
   -7    3   21      1.43      0.00
   -6    3   21      0.59      0.00
   -5    3   21      0.42      0.00
   -4    3   21     -0.34      0.00
   -3    3   21      1.68      0.00
   -2    3   21      1.97      0.00
   -1    3   21     -1.61      0.00
    0    3   21      6.31      0.00
    1    3   21     -4.43      0.00
    2    3   21     -0.02      0.00
    3    3   21     -1.71      0.00
    4    3   21     -4.64      0.00
    5    3   21     -0.83      0.00
    6    3   21     -0.04      0.00
    7    3   21      0.69      0.00
    8    3   21      0.05      0.00
    9    3   21      0.44      0.00
   10    3   21     -0.39      0.00
  -11    4   21      0.87      0.00
  -10    4   21      0.93      0.00
   -9    4   21      1.13      0.00
   -8    4   21      0.38      0.00
   -7    4   21      0.17      0.00
   -6    4   21     -1.19      0.00
   -5    4   21      4.35      0.00
   -4    4   21     -1.87      0.00
   -3    4   21     -1.94      0.00
   -2    4   21      0.12      0.00
   -1    4   21     -2.84      0.00
    0    4   21      0.85      0.00
    1    4   21      1.11      0.00
    2    4   21     -6.02      0.00
    3    4   21     -0.99      0.00
    4    4   21     -0.13      0.00
    5    4   21     -3.10      0.00
    6    4   21      3.52      0.00
    7    4   21      0.27      0.00
    8    4   21      1.35      0.00
    9    4   21     -0.86      0.00
   10    4   21     -1.20      0.00
  -11    5   21      0.09      0.00
  -10    5   21      0.96      0.00
   -9    5   21     -1.18      0.00
   -8    5   21      2.69      0.00
   -7    5   21      2.11      0.00
   -6    5   21     -2.77      0.00
   -5    5   21      0.30      0.00
   -4    5   21      1.13      0.00
   -3    5   21     -2.47      0.00
   -2    5   21      2.06      0.00
   -1    5   21     -0.93      0.00
    0    5   21     -3.64      0.00
    1    5   21      0.14      0.00
    2    5   21     -2.24      0.00
    3    5   21     -1.49      0.00
    4    5   21      3.24      0.00
    5    5   21      0.16      0.00
    6    5   21      2.76      0.00
    7    5   21      1.20      0.00
    8    5   21     -0.09      0.00
    9    5   21      0.47      0.00
   10    5   21     -0.69      0.00
  -11    6   21     -0.64      0.00
  -10    6   21     -0.81      0.00
   -9    6   21     -0.80      0.00
   -8    6   21      1.04      0.00
   -7    6   21      0.76      0.00
   -6    6   21      0.26      0.00
   -5    6   21      0.91      0.00
   -4    6   21     -2.34      0.00
   -3    6   21      0.16      0.00
   -2    6   21     -1.71      0.00
   -1    6   21      2.18      0.00
    0    6   21      1.30      0.00
    1    6   21     -0.91      0.00
    2    6   21      1.37      0.00
    3    6   21      0.42      0.00
    4    6   21      1.94      0.00
    5    6   21      1.00      0.00
    6    6   21     -0.45      0.00
    7    6   21     -0.11      0.00
    8    6   21     -1.93      0.00
    9    6   21     -1.09      0.00
  -10    7   21      1.08      0.00
   -9    7   21     -0.16      0.00
   -8    7   21      1.91      0.00
   -7    7   21     -1.02      0.00
   -6    7   21     -2.35      0.00
   -5    7   21      0.27      0.00
   -4    7   21     -2.09      0.00
   -3    7   21     -0.49      0.00
   -2    7   21      1.37      0.00
   -1    7   21     -1.04      0.00
    0    7   21      0.59      0.00
    1    7   21      3.71      0.00
    2    7   21     -1.22      0.00
    3    7   21      2.24      0.00
    4    7   21      0.23      0.00
    5    7   21     -2.06      0.00
    6    7   21     -0.95      0.00
    7    7   21     -1.40      0.00
    8    7   21      0.98      0.00
    9    7   21      0.48      0.00
   -9    8   21      0.80      0.00
   -8    8   21      0.50      0.00
   -7    8   21     -0.05      0.00
   -6    8   21     -1.77      0.00
   -5    8   21     -1.57      0.00
   -4    8   21      1.75      0.00
   -3    8   21     -0.84      0.00
   -2    8   21      1.82      0.00
   -1    8   21      1.77      0.00
    0    8   21     -3.21      0.00
    1    8   21      0.03      0.00
    2    8   21     -1.30      0.00
    3    8   21     -0.80      0.00
    4    8   21      0.52      0.00
    5    8   21     -0.91      0.00
    6    8   21     -0.56      0.00
    7    8   21     -1.01      0.00
    8    8   21     -0.56      0.00
   -8    9   21      0.71      0.00
   -7    9   21     -0.26      0.00
   -6    9   21      0.75      0.00
   -5    9   21     -0.26      0.00
   -4    9   21      0.38      0.00
   -3    9   21      0.07      0.00
   -2    9   21     -1.34      0.00
   -1    9   21     -0.94      0.00
    0    9   21      0.83      0.00
    1    9   21     -0.81      0.00
    2    9   21     -0.80      0.00
    3    9   21     -0.64      0.00
    4    9   21     -2.99      0.00
    5    9   21      0.17      0.00
    6    9   21     -0.13      0.00
    7    9   21      0.12      0.00
   -7   10   21     -1.16      0.00
   -6   10   21      1.89      0.00
   -5   10   21      1.04      0.00
   -4   10   21     -0.19      0.00
   -3   10   21      0.18      0.00
   -2   10   21      0.00      0.00
   -1   10   21     -1.43      0.00
    0   10   21     -1.23      0.00
    1   10   21      0.39      0.00
    2   10   21     -0.44      0.00
    3   10   21      0.22      0.00
    4   10   21      0.61      0.00
    5   10   21      0.81      0.00
    6   10   21     -0.15      0.00
   -6   11   21      0.29      0.00
   -5   11   21      0.70      0.00
   -4   11   21      0.93      0.00
   -3   11   21     -0.48      0.00
   -2   11   21     -0.07      0.00
   -1   11   21      1.45      0.00
    0   11   21     -0.26      0.00
    1   11   21      1.18      0.00
    2   11   21      0.96      0.00
    3   11   21      1.83      0.00
    4   11   21     -0.79      0.00
    5   11   21      0.89      0.00
   -4   12   21     -0.05      0.00
   -3   12   21      0.01      0.00
   -2   12   21     -0.02      0.00
   -1   12   21      0.30      0.00
    0   12   21      2.25      0.00
    1   12   21      0.59      0.00
    2   12   21      0.50      0.00
    3   12   21     -0.18      0.00
  -10    0   22      2.28      0.00
   -8    0   22      1.98      0.00
   -6    0   22      3.68      0.00
   -4    0   22      5.75      0.00
   -2    0   22     -4.24      0.00
    0    0   22     -5.96      0.00
    2    0   22     -1.70      0.00
    4    0   22      0.33      0.00
    6    0   22      3.31      0.00
    8    0   22      2.24      0.00
   10    0   22     -0.55      0.00
  -11    1   22      0.18      0.00
  -10    1   22     -0.83      0.00
   -9    1   22      2.31      0.00
   -8    1   22     -0.79      0.00
   -7    1   22     -2.17      0.00
   -6    1   22      2.59      0.00
   -5    1   22     -0.79      0.00
   -4    1   22      1.03      0.00
   -3    1   22      3.67      0.00
   -2    1   22     -2.16      0.00
   -1    1   22      3.70      0.00
    0    1   22     -1.36      0.00
    1    1   22     -0.73      0.00
    2    1   22     -0.85      0.00
    3    1   22     -0.63      0.00
    4    1   22      2.04      0.00
    5    1   22     -1.12      0.00
    6    1   22      1.96      0.00
    7    1   22     -0.20      0.00
    8    1   22     -0.86      0.00
    9    1   22     -0.79      0.00
   10    1   22     -0.99      0.00
  -11    2   22      0.90      0.00
  -10    2   22      0.33      0.00
   -9    2   22      0.63      0.00
   -8    2   22      2.04      0.00
   -7    2   22     -0.79      0.00
   -6    2   22      2.83      0.00
   -5    2   22      0.46      0.00
   -4    2   22     -0.15      0.00
   -3    2   22     -6.36      0.00
   -2    2   22     -2.60      0.00
   -1    2   22     -2.62      0.00
    0    2   22      0.28      0.00
    1    2   22      3.67      0.00
    2    2   22      2.45      0.00
    3    2   22      0.79      0.00
    4    2   22      2.79      0.00
    5    2   22     -0.38      0.00
    6    2   22     -0.53      0.00
    7    2   22      0.55      0.00
    8    2   22      0.27      0.00
    9    2   22     -0.59      0.00
   10    2   22      0.03      0.00
  -11    3   22      1.71      0.00
  -10    3   22     -1.63      0.00
   -9    3   22      0.05      0.00
   -8    3   22     -0.16      0.00
   -7    3   22      1.19      0.00
   -6    3   22     -0.69      0.00
   -5    3   22     -1.82      0.00
   -4    3   22      2.32      0.00
   -3    3   22     -0.24      0.00
   -2    3   22      2.51      0.00
   -1    3   22      4.65      0.00
    0    3   22     -0.27      0.00
    1    3   22      2.27      0.00
    2    3   22     -2.09      0.00
    3    3   22     -1.22      0.00
    4    3   22     -2.67      0.00
    5    3   22      0.36      0.00
    6    3   22     -0.70      0.00
    7    3   22     -0.85      0.00
    8    3   22      0.92      0.00
    9    3   22     -1.03      0.00
   10    3   22      1.30      0.00
  -11    4   22     -0.07      0.00
  -10    4   22      0.51      0.00
   -9    4   22      1.38      0.00
   -8    4   22      0.53      0.00
   -7    4   22     -2.21      0.00
   -6    4   22      0.11      0.00
   -5    4   22     -4.42      0.00
   -4    4   22     -2.04      0.00
   -3    4   22     -2.42      0.00
   -2    4   22      2.22      0.00
   -1    4   22      2.65      0.00
    0    4   22      0.62      0.00
    1    4   22     -0.42      0.00
    2    4   22     -2.07      0.00
    3    4   22     -0.89      0.00
    4    4   22     -0.05      0.00
    5    4   22      0.61      0.00
    6    4   22     -1.19      0.00
    7    4   22      0.58      0.00
    8    4   22     -2.33      0.00
    9    4   22      0.17      0.00
   10    4   22     -0.61      0.00
  -10    5   22     -0.96      0.00
   -9    5   22      2.39      0.00
   -8    5   22      0.51      0.00
   -7    5   22     -0.60      0.00
   -6    5   22     -1.63      0.00
   -5    5   22      0.75      0.00
   -4    5   22      0.70      0.00
   -3    5   22      1.17      0.00
   -2    5   22      0.35      0.00
   -1    5   22     -2.39      0.00
    0    5   22     -3.03      0.00
    1    5   22     -3.93      0.00
    2    5   22      0.07      0.00
    3    5   22     -3.11      0.00
    4    5   22     -0.45      0.00
    5    5   22      2.58      0.00
    6    5   22     -1.94      0.00
    7    5   22      2.48      0.00
    8    5   22      0.39      0.00
    9    5   22      1.29      0.00
  -10    6   22     -0.54      0.00
   -9    6   22     -0.49      0.00
   -8    6   22     -2.63      0.00
   -7    6   22     -0.95      0.00
   -6    6   22     -0.60      0.00
   -5    6   22     -1.38      0.00
   -4    6   22      2.69      0.00
   -3    6   22      0.50      0.00
   -2    6   22      0.88      0.00
   -1    6   22     -1.25      0.00
    0    6   22     -2.06      0.00
    1    6   22     -3.13      0.00
    2    6   22      1.95      0.00
    3    6   22      1.20      0.00
    4    6   22      0.52      0.00
    5    6   22      1.98      0.00
    6    6   22     -0.17      0.00
    7    6   22     -0.88      0.00
    8    6   22      0.02      0.00
    9    6   22      0.20      0.00
   -9    7   22      0.90      0.00
   -8    7   22     -1.54      0.00
   -7    7   22     -1.13      0.00
   -6    7   22      0.35      0.00
   -5    7   22      0.06      0.00
   -4    7   22     -2.21      0.00
   -3    7   22     -1.67      0.00
   -2    7   22     -3.13      0.00
   -1    7   22     -3.17      0.00
    0    7   22      1.57      0.00
    1    7   22     -0.22      0.00
    2    7   22      3.10      0.00
    3    7   22      0.21      0.00
    4    7   22     -0.92      0.00
    5    7   22     -0.05      0.00
    6    7   22     -2.07      0.00
    7    7   22     -0.41      0.00
    8    7   22      0.80      0.00
   -9    8   22     -0.24      0.00
   -8    8   22     -1.24      0.00
   -7    8   22     -0.42      0.00
   -6    8   22     -1.00      0.00
   -5    8   22      0.98      0.00
   -4    8   22     -1.61      0.00
   -3    8   22      0.08      0.00
   -2    8   22     -0.20      0.00
   -1    8   22     -0.27      0.00
    0    8   22      0.66      0.00
    1    8   22      0.60      0.00
    2    8   22      2.22      0.00
    3    8   22     -1.67      0.00
    4    8   22     -0.24      0.00
    5    8   22     -0.11      0.00
    6    8   22     -1.40      0.00
    7    8   22     -0.50      0.00
   -8    9   22     -0.18      0.00
   -7    9   22      0.60      0.00
   -6    9   22     -0.60      0.00
   -5    9   22     -0.93      0.00
   -4    9   22     -2.01      0.00
   -3    9   22      0.68      0.00
   -2    9   22     -0.69      0.00
   -1    9   22      2.72      0.00
    0    9   22      1.87      0.00
    1    9   22     -0.93      0.00
    2    9   22      0.46      0.00
    3    9   22     -1.32      0.00
    4    9   22     -1.83      0.00
    5    9   22      0.17      0.00
    6    9   22     -0.05      0.00
    7    9   22      0.99      0.00
   -7   10   22      1.07      0.00
   -6   10   22      0.37      0.00
   -5   10   22      0.27      0.00
   -4   10   22     -0.45      0.00
   -3   10   22      0.81      0.00
   -2   10   22     -0.05      0.00
   -1   10   22     -0.34      0.00
    0   10   22      0.40      0.00
    1   10   22     -0.87      0.00
    2   10   22     -2.18      0.00
    3   10   22     -0.35      0.00
    4   10   22     -0.14      0.00
    5   10   22     -0.37      0.00
   -5   11   22      0.19      0.00
   -4   11   22      0.66      0.00
   -3   11   22      0.54      0.00
   -2   11   22      1.00      0.00
   -1   11   22      0.25      0.00
    0   11   22     -0.46      0.00
    1   11   22     -1.59      0.00
    2   11   22      0.63      0.00
    3   11   22      0.69      0.00
    4   11   22      1.39      0.00
   -2   12   22     -1.32      0.00
   -1   12   22      0.40      0.00
    0   12   22      0.95      0.00
  -11    0   23      1.98      0.00
   -7    0   23      3.45      0.00
   -5    0   23      1.40      0.00
   -3    0   23     -6.59      0.00
   -1    0   23     -4.00      0.00
    1    0   23     -1.30      0.00
    3    0   23     -3.40      0.00
    5    0   23     -0.53      0.00
    7    0   23      2.98      0.00
    9    0   23      1.71      0.00
  -11    1   23     -0.32      0.00
  -10    1   23     -0.41      0.00
   -8    1   23     -0.71      0.00
   -7    1   23      0.37      0.00
   -6    1   23     -3.98      0.00
   -5    1   23      1.74      0.00
   -4    1   23     -0.59      0.00
   -3    1   23      2.69      0.00
   -2    1   23      3.55      0.00
   -1    1   23     -0.14      0.00
    0    1   23      3.13      0.00
    1    1   23     -5.60      0.00
    2    1   23     -1.76      0.00
    3    1   23     -3.65      0.00
    4    1   23     -1.17      0.00
    5    1   23      2.72      0.00
    6    1   23      0.06      0.00
    7    1   23      1.24      0.00
    8    1   23     -0.84      0.00
    9    1   23     -0.09      0.00
  -11    2   23      0.38      0.00
  -10    2   23      0.79      0.00
   -9    2   23     -0.66      0.00
   -8    2   23      1.20      0.00
   -7    2   23      0.07      0.00
   -6    2   23     -2.95      0.00
   -5    2   23      2.27      0.00
   -4    2   23     -4.60      0.00
   -3    2   23     -1.49      0.00
   -2    2   23      1.55      0.00
   -1    2   23     -4.65      0.00
    0    2   23     -2.76      0.00
    1    2   23     -1.89      0.00
    2    2   23     -1.69      0.00
    3    2   23      3.69      0.00
    4    2   23      2.88      0.00
    5    2   23      2.25      0.00
    6    2   23      1.33      0.00
    7    2   23     -0.82      0.00
    8    2   23     -0.91      0.00
    9    2   23     -0.05      0.00
  -10    3   23      0.57      0.00
   -9    3   23     -1.60      0.00
   -8    3   23     -0.30      0.00
   -7    3   23     -0.59      0.00
   -6    3   23     -1.74      0.00
   -5    3   23      2.41      0.00
   -4    3   23      1.96      0.00
   -3    3   23      1.01      0.00
   -2    3   23     -0.57      0.00
   -1    3   23     -0.08      0.00
    0    3   23     -4.16      0.00
    1    3   23      0.70      0.00
    2    3   23      1.99      0.00
    3    3   23     -1.85      0.00
    4    3   23      2.74      0.00
    5    3   23     -1.89      0.00
    6    3   23     -0.32      0.00
    7    3   23     -0.99      0.00
    8    3   23     -0.55      0.00
    9    3   23      1.56      0.00
  -10    4   23      0.43      0.00
   -9    4   23     -0.20      0.00
   -8    4   23     -1.56      0.00
   -7    4   23     -1.43      0.00
   -6    4   23     -1.79      0.00
   -5    4   23     -1.40      0.00
   -4    4   23     -3.68      0.00
   -3    4   23      1.79      0.00
   -2    4   23     -2.29      0.00
   -1    4   23      1.16      0.00
    0    4   23      2.21      0.00
    1    4   23      0.62      0.00
    2    4   23      4.11      0.00
    3    4   23      1.36      0.00
    4    4   23      0.20      0.00
    5    4   23     -1.00      0.00
    6    4   23     -1.11      0.00
    7    4   23     -1.41      0.00
    8    4   23     -0.67      0.00
    9    4   23     -0.31      0.00
  -10    5   23      1.04      0.00
   -9    5   23     -0.28      0.00
   -8    5   23      1.21      0.00
   -7    5   23     -0.88      0.00
   -6    5   23      1.14      0.00
   -5    5   23      1.53      0.00
   -4    5   23     -1.65      0.00
   -3    5   23     -0.82      0.00
   -2    5   23     -1.00      0.00
   -1    5   23     -1.07      0.00
    0    5   23      0.49      0.00
    1    5   23      2.69      0.00
    2    5   23     -1.78      0.00
    3    5   23     -0.72      0.00
    4    5   23     -2.41      0.00
    5    5   23     -2.34      0.00
    6    5   23      1.04      0.00
    7    5   23      0.13      0.00
    8    5   23      2.37      0.00
   -9    6   23     -1.95      0.00
   -8    6   23     -1.51      0.00
   -7    6   23     -0.09      0.00
   -6    6   23     -1.04      0.00
   -5    6   23      0.85      0.00
   -4    6   23      1.80      0.00
   -3    6   23      1.58      0.00
   -2    6   23      0.57      0.00
   -1    6   23      1.51      0.00
    0    6   23     -1.13      0.00
    1    6   23      0.99      0.00
    2    6   23     -2.38      0.00
    3    6   23     -0.14      0.00
    4    6   23     -0.73      0.00
    5    6   23     -0.24      0.00
    6    6   23      1.36      0.00
    7    6   23      0.79      0.00
    8    6   23      1.03      0.00
   -9    7   23     -1.15      0.00
   -8    7   23     -0.69      0.00
   -7    7   23     -0.48      0.00
   -6    7   23      1.28      0.00
   -5    7   23     -2.18      0.00
   -4    7   23     -1.25      0.00
   -3    7   23     -0.21      0.00
   -2    7   23     -2.34      0.00
   -1    7   23      0.93      0.00
    0    7   23     -1.02      0.00
    1    7   23     -1.53      0.00
    2    7   23     -2.05      0.00
    3    7   23      0.11      0.00
    4    7   23      0.56      0.00
    5    7   23     -0.35      0.00
    6    7   23      1.04      0.00
    7    7   23      0.32      0.00
   -8    8   23      0.22      0.00
   -7    8   23     -0.74      0.00
   -6    8   23      0.26      0.00
   -5    8   23     -0.43      0.00
   -4    8   23      0.66      0.00
   -3    8   23     -0.73      0.00
   -2    8   23     -0.53      0.00
   -1    8   23     -1.48      0.00
    0    8   23     -0.31      0.00
    1    8   23      0.74      0.00
    2    8   23     -1.97      0.00
    3    8   23      2.71      0.00
    4    8   23     -0.78      0.00
    5    8   23      0.31      0.00
    6    8   23      0.55      0.00
    7    8   23     -1.45      0.00
   -7    9   23     -0.25      0.00
   -6    9   23     -0.75      0.00
   -5    9   23     -2.54      0.00
   -4    9   23      1.37      0.00
   -3    9   23     -1.37      0.00
   -2    9   23      1.24      0.00
   -1    9   23      1.38      0.00
    0    9   23     -0.09      0.00
    1    9   23      0.47      0.00
    2    9   23      0.64      0.00
    3    9   23      1.66      0.00
    4    9   23      0.58      0.00
    5    9   23     -1.56      0.00
    6    9   23      1.30      0.00
   -5   10   23     -0.89      0.00
   -4   10   23      0.19      0.00
   -3   10   23      0.23      0.00
   -2   10   23     -0.21      0.00
   -1   10   23     -0.07      0.00
    0   10   23      0.86      0.00
    1   10   23     -0.31      0.00
    2   10   23     -0.58      0.00
    3   10   23     -0.31      0.00
    4   10   23     -0.93      0.00
   -3   11   23      0.43      0.00
   -2   11   23      0.85      0.00
   -1   11   23     -0.60      0.00
    0   11   23     -0.91      0.00
    1   11   23      0.25      0.00
    2   11   23     -0.56      0.00
   -8    0   24      0.51      0.00
   -6    0   24     -0.05      0.00
   -4    0   24     -6.04      0.00
   -2    0   24     -2.24      0.00
    0    0   24     -4.34      0.00
    2    0   24      1.70      0.00
    4    0   24      1.67      0.00
    6    0   24     -1.59      0.00
    8    0   24      1.13      0.00
   -9    1   24     -0.94      0.00
   -8    1   24     -0.41      0.00
   -7    1   24     -3.10      0.00
   -6    1   24      0.71      0.00
   -5    1   24     -1.64      0.00
   -4    1   24      1.76      0.00
   -3    1   24     -0.50      0.00
   -2    1   24     -0.13      0.00
   -1    1   24      0.52      0.00
    0    1   24     -1.57      0.00
    1    1   24      1.84      0.00
    2    1   24     -1.87      0.00
    3    1   24     -0.22      0.00
    4    1   24     -2.15      0.00
    5    1   24     -0.50      0.00
    6    1   24     -0.01      0.00
    7    1   24     -1.05      0.00
    8    1   24      2.41      0.00
    9    1   24      0.73      0.00
  -10    2   24     -0.61      0.00
   -9    2   24      0.83      0.00
   -8    2   24     -2.23      0.00
   -7    2   24     -1.80      0.00
   -6    2   24      1.24      0.00
   -5    2   24     -2.93      0.00
   -4    2   24     -0.51      0.00
   -3    2   24      1.44      0.00
   -2    2   24     -2.02      0.00
   -1    2   24     -0.47      0.00
    0    2   24     -3.14      0.00
    1    2   24     -0.78      0.00
    2    2   24     -1.12      0.00
    3    2   24      0.80      0.00
    4    2   24     -0.02      0.00
    5    2   24     -0.39      0.00
    6    2   24      0.66      0.00
    7    2   24      0.76      0.00
    8    2   24      0.32      0.00
    9    2   24      0.24      0.00
  -10    3   24     -0.54      0.00
   -9    3   24      0.25      0.00
   -8    3   24     -2.30      0.00
   -7    3   24     -0.68      0.00
   -6    3   24      1.59      0.00
   -5    3   24     -0.36      0.00
   -4    3   24      1.19      0.00
   -3    3   24     -1.14      0.00
   -2    3   24     -0.94      0.00
   -1    3   24     -2.27      0.00
    0    3   24      0.03      0.00
    1    3   24     -1.93      0.00
    2    3   24     -0.75      0.00
    3    3   24     -0.80      0.00
    4    3   24     -1.77      0.00
    5    3   24      1.50      0.00
    6    3   24     -1.67      0.00
    7    3   24      1.64      0.00
    8    3   24     -0.93      0.00
   -9    4   24     -0.48      0.00
   -8    4   24     -1.71      0.00
   -7    4   24      0.29      0.00
   -6    4   24     -0.09      0.00
   -5    4   24     -2.06      0.00
   -4    4   24      0.75      0.00
   -3    4   24     -1.16      0.00
   -2    4   24     -2.55      0.00
   -1    4   24     -0.87      0.00
    0    4   24      2.72      0.00
    1    4   24     -0.34      0.00
    2    4   24      2.04      0.00
    3    4   24      1.87      0.00
    4    4   24     -0.89      0.00
    5    4   24      1.79      0.00
    6    4   24     -1.05      0.00
    7    4   24     -0.87      0.00
    8    4   24     -0.01      0.00
   -9    5   24      0.10      0.00
   -8    5   24     -0.20      0.00
   -7    5   24      1.86      0.00
   -6    5   24      1.43      0.00
   -5    5   24     -1.15      0.00
   -4    5   24     -1.68      0.00
   -3    5   24     -0.96      0.00
   -2    5   24      0.85      0.00
   -1    5   24      0.24      0.00
    0    5   24      2.97      0.00
    1    5   24     -0.27      0.00
    2    5   24      0.59      0.00
    3    5   24      0.59      0.00
    4    5   24     -0.77      0.00
    5    5   24     -0.50      0.00
    6    5   24      0.28      0.00
    7    5   24      0.07      0.00
    8    5   24     -0.51      0.00
   -8    6   24      0.64      0.00
   -7    6   24      0.72      0.00
   -6    6   24      0.15      0.00
   -5    6   24      0.33      0.00
   -4    6   24      1.63      0.00
   -3    6   24      0.84      0.00
   -2    6   24      1.08      0.00
   -1    6   24      2.16      0.00
    0    6   24      1.97      0.00
    1    6   24     -0.86      0.00
    2    6   24      1.51      0.00
    3    6   24     -1.25      0.00
    4    6   24      0.53      0.00
    5    6   24     -0.01      0.00
    6    6   24      0.29      0.00
    7    6   24      0.16      0.00
   -8    7   24     -0.15      0.00
   -7    7   24      0.75      0.00
   -6    7   24     -0.61      0.00
   -5    7   24     -0.62      0.00
   -4    7   24      0.71      0.00
   -3    7   24      1.34      0.00
   -2    7   24      1.39      0.00
   -1    7   24      0.44      0.00
    0    7   24     -0.15      0.00
    1    7   24     -2.13      0.00
    2    7   24     -0.69      0.00
    3    7   24      0.21      0.00
    4    7   24     -0.33      0.00
    5    7   24      0.98      0.00
    6    7   24      0.42      0.00
   -7    8   24     -0.26      0.00
   -6    8   24     -0.14      0.00
   -5    8   24      1.95      0.00
   -4    8   24     -0.09      0.00
   -3    8   24      1.09      0.00
   -2    8   24     -0.08      0.00
   -1    8   24     -2.01      0.00
    0    8   24     -0.79      0.00
    1    8   24     -1.13      0.00
    2    8   24      0.84      0.00
    3    8   24     -1.37      0.00
    4    8   24      1.26      0.00
    5    8   24      0.39      0.00
    6    8   24      0.20      0.00
   -6    9   24     -0.84      0.00
   -5    9   24      1.51      0.00
   -4    9   24     -0.35      0.00
   -3    9   24      0.26      0.00
   -2    9   24     -0.42      0.00
   -1    9   24     -0.81      0.00
    0    9   24     -1.02      0.00
    1    9   24      1.59      0.00
    2    9   24      1.07      0.00
    3    9   24      0.36      0.00
    4    9   24      0.89      0.00
   -4   10   24     -0.71      0.00
   -3   10   24     -0.13      0.00
   -2   10   24     -0.16      0.00
   -1   10   24      0.16      0.00
    0   10   24      0.57      0.00
    1   10   24      0.54      0.00
    2   10   24      0.29      0.00
    3   10   24     -1.10      0.00
   -7    0   25     -0.77      0.00
   -5    0   25     -1.56      0.00
   -3    0   25     -0.62      0.00
   -1    0   25     -3.32      0.00
    1    0   25      0.16      0.00
    3    0   25      2.99      0.00
    5    0   25     -1.53      0.00
    7    0   25      0.17      0.00
   -9    1   25     -0.20      0.00
   -8    1   25     -1.05      0.00
   -7    1   25      1.46      0.00
   -6    1   25     -1.08      0.00
   -5    1   25     -1.30      0.00
   -4    1   25     -0.92      0.00
   -3    1   25     -1.66      0.00
   -2    1   25     -3.68      0.00
   -1    1   25      2.35      0.00
    0    1   25      1.32      0.00
    1    1   25      1.64      0.00
    2    1   25      1.54      0.00
    3    1   25     -0.40      0.00
    4    1   25     -0.31      0.00
    5    1   25     -0.43      0.00
    6    1   25     -0.16      0.00
    7    1   25      0.91      0.00
    8    1   25     -0.08      0.00
   -9    2   25     -1.30      0.00
   -8    2   25     -0.08      0.00
   -7    2   25      0.81      0.00
   -6    2   25     -0.25      0.00
   -5    2   25     -1.09      0.00
   -4    2   25      1.22      0.00
   -3    2   25      0.34      0.00
   -2    2   25     -1.96      0.00
   -1    2   25      0.76      0.00
    0    2   25      2.21      0.00
    1    2   25     -1.95      0.00
    2    2   25      1.41      0.00
    3    2   25     -2.54      0.00
    4    2   25     -1.14      0.00
    5    2   25     -1.07      0.00
    6    2   25      0.31      0.00
    7    2   25      0.56      0.00
    8    2   25      0.98      0.00
   -9    3   25     -1.92      0.00
   -8    3   25      0.51      0.00
   -7    3   25     -0.60      0.00
   -6    3   25     -1.53      0.00
   -5    3   25      0.03      0.00
   -4    3   25     -2.44      0.00
   -3    3   25      1.15      0.00
   -2    3   25      1.61      0.00
   -1    3   25      1.62      0.00
    0    3   25      0.25      0.00
    1    3   25     -1.67      0.00
    2    3   25     -3.01      0.00
    3    3   25     -1.29      0.00
    4    3   25     -1.09      0.00
    5    3   25     -0.87      0.00
    6    3   25      1.39      0.00
    7    3   25     -1.07      0.00
    8    3   25      0.69      0.00
   -9    4   25     -0.70      0.00
   -8    4   25      1.61      0.00
   -7    4   25     -0.41      0.00
   -6    4   25     -0.66      0.00
   -5    4   25     -0.40      0.00
   -4    4   25      2.09      0.00
   -3    4   25     -1.98      0.00
   -2    4   25     -1.01      0.00
   -1    4   25      0.00      0.00
    0    4   25     -3.34      0.00
    1    4   25      1.10      0.00
    2    4   25     -1.77      0.00
    3    4   25      0.44      0.00
    4    4   25      2.22      0.00
    5    4   25     -0.68      0.00
    6    4   25      1.05      0.00
    7    4   25     -1.35      0.00
   -8    5   25      0.57      0.00
   -7    5   25      0.23      0.00
   -6    5   25      0.13      0.00
   -5    5   25     -0.29      0.00
   -4    5   25      0.16      0.00
   -3    5   25      1.88      0.00
   -2    5   25      0.13      0.00
   -1    5   25      0.29      0.00
    0    5   25     -2.48      0.00
    1    5   25      0.80      0.00
    2    5   25      0.77      0.00
    3    5   25      1.79      0.00
    4    5   25      1.02      0.00
    5    5   25     -0.46      0.00
    6    5   25     -0.29      0.00
    7    5   25     -0.78      0.00
   -8    6   25      1.14      0.00
   -7    6   25     -0.18      0.00
   -6    6   25      0.55      0.00
   -5    6   25      1.72      0.00
   -4    6   25     -0.12      0.00
   -3    6   25     -1.42      0.00
   -2    6   25      1.32      0.00
   -1    6   25     -0.06      0.00
    0    6   25      0.24      0.00
    1    6   25      3.30      0.00
    2    6   25      0.27      0.00
    3    6   25      1.69      0.00
    4    6   25      0.19      0.00
    5    6   25      0.03      0.00
    6    6   25     -0.63      0.00
   -7    7   25      0.49      0.00
   -6    7   25      0.34      0.00
   -5    7   25      0.98      0.00
   -4    7   25      1.39      0.00
   -3    7   25     -0.22      0.00
   -2    7   25      0.58      0.00
   -1    7   25      0.47      0.00
    0    7   25      1.16      0.00
    1    7   25      2.63      0.00
    2    7   25     -0.11      0.00
    3    7   25     -0.76      0.00
    4    7   25      0.19      0.00
    5    7   25     -0.76      0.00
   -6    8   25      1.60      0.00
   -5    8   25      0.10      0.00
   -4    8   25      0.68      0.00
   -3    8   25      0.62      0.00
   -2    8   25      1.48      0.00
   -1    8   25      0.52      0.00
    0    8   25     -0.71      0.00
    1    8   25      0.69      0.00
    2    8   25     -1.29      0.00
    3    8   25     -0.64      0.00
    4    8   25      0.28      0.00
   -4    9   25      0.76      0.00
   -3    9   25     -0.61      0.00
   -2    9   25      0.19      0.00
   -1    9   25     -0.94      0.00
    0    9   25      0.24      0.00
    1    9   25     -0.73      0.00
    2    9   25     -0.16      0.00
    3    9   25      0.26      0.00
   -8    0   26     -1.13      0.00
   -6    0   26     -0.69      0.00
   -4    0   26      2.78      0.00
   -2    0   26      0.23      0.00
    0    0   26     -1.90      0.00
    2    0   26     -1.53      0.00
    4    0   26     -1.32      0.00
    6    0   26      0.37      0.00
   -9    1   26      0.06      0.00
   -8    1   26      0.11      0.00
   -7    1   26      0.14      0.00
   -6    1   26     -0.55      0.00
   -5    1   26     -1.63      0.00
   -4    1   26     -1.45      0.00
   -3    1   26     -1.97      0.00
   -2    1   26      2.42      0.00
   -1    1   26      0.56      0.00
    0    1   26      1.60      0.00
    1    1   26     -0.53      0.00
    2    1   26      1.51      0.00
    3    1   26     -0.53      0.00
    4    1   26      1.99      0.00
    5    1   26      1.51      0.00
    6    1   26     -0.33      0.00
    7    1   26      0.01      0.00
   -8    2   26      1.08      0.00
   -7    2   26      0.81      0.00
   -6    2   26      1.07      0.00
   -5    2   26      2.17      0.00
   -4    2   26      0.50      0.00
   -3    2   26     -0.73      0.00
   -2    2   26      0.91      0.00
   -1    2   26     -1.41      0.00
    0    2   26      1.33      0.00
    1    2   26      0.63      0.00
    2    2   26     -0.68      0.00
    3    2   26      1.35      0.00
    4    2   26     -1.79      0.00
    5    2   26      0.82      0.00
    6    2   26     -1.51      0.00
    7    2   26      0.27      0.00
   -8    3   26     -0.93      0.00
   -7    3   26     -1.24      0.00
   -6    3   26     -0.31      0.00
   -5    3   26     -0.43      0.00
   -4    3   26      0.29      0.00
   -3    3   26      0.69      0.00
   -2    3   26      3.62      0.00
   -1    3   26      0.08      0.00
    0    3   26      0.66      0.00
    1    3   26      1.39      0.00
    2    3   26     -0.06      0.00
    3    3   26     -0.38      0.00
    4    3   26     -1.37      0.00
    5    3   26     -1.91      0.00
    6    3   26     -0.36      0.00
    7    3   26      0.11      0.00
   -8    4   26     -0.69      0.00
   -7    4   26      0.54      0.00
   -6    4   26     -1.48      0.00
   -5    4   26      2.52      0.00
   -4    4   26     -1.35      0.00
   -3    4   26     -0.61      0.00
   -2    4   26      0.24      0.00
   -1    4   26     -1.39      0.00
    0    4   26      0.32      0.00
    1    4   26     -0.42      0.00
    2    4   26      0.14      0.00
    3    4   26     -1.35      0.00
    4    4   26      0.01      0.00
    5    4   26      0.23      0.00
    6    4   26     -0.58      0.00
   -7    5   26     -0.46      0.00
   -6    5   26      0.51      0.00
   -5    5   26      0.66      0.00
   -4    5   26      1.16      0.00
   -3    5   26      1.66      0.00
   -2    5   26      0.34      0.00
   -1    5   26     -1.34      0.00
    0    5   26      0.39      0.00
    1    5   26     -1.33      0.00
    2    5   26      0.93      0.00
    3    5   26     -1.14      0.00
    4    5   26      0.53      0.00
    5    5   26      0.62      0.00
    6    5   26     -0.74      0.00
   -6    6   26      0.61      0.00
   -5    6   26      0.81      0.00
   -4    6   26     -2.39      0.00
   -3    6   26     -0.08      0.00
   -2    6   26      0.21      0.00
   -1    6   26     -0.48      0.00
    0    6   26      0.43      0.00
    1    6   26     -0.36      0.00
    2    6   26      0.10      0.00
    3    6   26      0.67      0.00
    4    6   26      1.04      0.00
    5    6   26      0.50      0.00
   -6    7   26      0.55      0.00
   -5    7   26      0.78      0.00
   -4    7   26     -0.02      0.00
   -3    7   26     -0.90      0.00
   -2    7   26     -1.74      0.00
   -1    7   26      0.77      0.00
    0    7   26      1.96      0.00
    1    7   26      0.76      0.00
    2    7   26      0.90      0.00
    3    7   26     -0.66      0.00
    4    7   26     -0.15      0.00
   -4    8   26     -0.56      0.00
   -3    8   26      2.07      0.00
   -2    8   26      0.58      0.00
   -1    8   26      1.05      0.00
    0    8   26      0.70      0.00
    1    8   26     -0.85      0.00
    2    8   26      0.69      0.00
    3    8   26      0.35      0.00
   -1    9   26      0.98      0.00
   -7    0   27     -0.97      0.00
   -5    0   27      1.73      0.00
   -3    0   27      2.26      0.00
   -1    0   27     -0.50      0.00
    1    0   27     -3.45      0.00
    3    0   27     -2.07      0.00
    5    0   27     -0.60      0.00
   -8    1   27      0.05      0.00
   -7    1   27     -1.03      0.00
   -6    1   27     -0.77      0.00
   -5    1   27      0.34      0.00
   -4    1   27     -0.88      0.00
   -3    1   27      1.58      0.00
   -2    1   27      1.39      0.00
   -1    1   27     -0.03      0.00
    0    1   27     -0.47      0.00
    1    1   27      0.73      0.00
    2    1   27     -1.09      0.00
    3    1   27      1.11      0.00
    4    1   27      1.04      0.00
    5    1   27      0.00      0.00
    6    1   27      0.59      0.00
   -7    2   27      1.13      0.00
   -6    2   27      1.58      0.00
   -5    2   27      1.97      0.00
   -4    2   27      0.11      0.00
   -3    2   27     -0.07      0.00
   -2    2   27     -0.92      0.00
   -1    2   27      1.48      0.00
    0    2   27     -1.15      0.00
    1    2   27      1.57      0.00
    2    2   27     -1.01      0.00
    3    2   27     -0.63      0.00
    4    2   27      1.38      0.00
    5    2   27     -1.09      0.00
    6    2   27      1.23      0.00
   -7    3   27      0.25      0.00
   -6    3   27      0.45      0.00
   -5    3   27      0.57      0.00
   -4    3   27      0.77      0.00
   -3    3   27      1.34      0.00
   -2    3   27     -1.21      0.00
   -1    3   27      1.30      0.00
    0    3   27      0.29      0.00
    1    3   27      2.40      0.00
    2    3   27      1.31      0.00
    3    3   27     -0.45      0.00
    4    3   27     -0.60      0.00
    5    3   27     -0.68      0.00
    6    3   27     -0.49      0.00
   -7    4   27     -1.16      0.00
   -6    4   27      1.28      0.00
   -5    4   27     -1.23      0.00
   -4    4   27     -0.34      0.00
   -3    4   27     -0.07      0.00
   -2    4   27     -0.28      0.00
   -1    4   27      1.06      0.00
    0    4   27      0.51      0.00
    1    4   27      0.06      0.00
    2    4   27     -0.35      0.00
    3    4   27      0.54      0.00
    4    4   27     -0.63      0.00
    5    4   27     -0.19      0.00
   -6    5   27      0.10      0.00
   -5    5   27     -0.47      0.00
   -4    5   27      1.73      0.00
   -3    5   27      0.24      0.00
   -2    5   27      0.57      0.00
   -1    5   27      1.64      0.00
    0    5   27     -0.03      0.00
    1    5   27      0.14      0.00
    2    5   27     -2.55      0.00
    3    5   27      0.32      0.00
    4    5   27     -0.62      0.00
    5    5   27      0.63      0.00
   -5    6   27     -1.99      0.00
   -4    6   27      0.12      0.00
   -3    6   27      0.69      0.00
   -2    6   27      0.37      0.00
   -1    6   27      0.11      0.00
    0    6   27     -1.24      0.00
    1    6   27     -2.62      0.00
    2    6   27      0.41      0.00
    3    6   27      0.05      0.00
    4    6   27      1.02      0.00
   -4    7   27      0.69      0.00
   -3    7   27     -1.73      0.00
   -2    7   27     -1.18      0.00
   -1    7   27     -0.12      0.00
    0    7   27     -0.81      0.00
    1    7   27      0.32      0.00
    2    7   27      0.40      0.00
   -6    0   28      0.35      0.00
   -4    0   28     -0.86      0.00
   -2    0   28      1.47      0.00
    0    0   28      0.28      0.00
    2    0   28     -1.30      0.00
    4    0   28     -0.41      0.00
   -6    1   28     -0.20      0.00
   -5    1   28      0.33      0.00
   -4    1   28      0.45      0.00
   -3    1   28      1.04      0.00
   -2    1   28     -0.01      0.00
   -1    1   28     -0.71      0.00
    0    1   28     -0.38      0.00
    1    1   28      0.47      0.00
    2    1   28     -0.78      0.00
    3    1   28      0.97      0.00
    4    1   28     -0.75      0.00
    5    1   28      0.74      0.00
   -6    2   28      0.65      0.00
   -5    2   28     -0.45      0.00
   -4    2   28      0.61      0.00
   -3    2   28      0.37      0.00
   -2    2   28      1.27      0.00
   -1    2   28      0.70      0.00
    0    2   28      0.56      0.00
    1    2   28     -1.86      0.00
    2    2   28     -0.13      0.00
    3    2   28     -0.74      0.00
    4    2   28      0.23      0.00
    5    2   28      1.16      0.00
   -6    3   28      0.64      0.00
   -5    3   28      0.25      0.00
   -4    3   28      0.03      0.00
   -3    3   28     -0.22      0.00
   -2    3   28     -0.59      0.00
   -1    3   28     -1.07      0.00
    0    3   28      1.40      0.00
    1    3   28     -1.03      0.00
    2    3   28      1.40      0.00
    3    3   28      0.16      0.00
    4    3   28      0.07      0.00
   -5    4   28     -0.48      0.00
   -4    4   28     -0.16      0.00
   -3    4   28      0.21      0.00
   -2    4   28      0.14      0.00
   -1    4   28     -1.36      0.00
    0    4   28     -0.92      0.00
    1    4   28     -0.92      0.00
    2    4   28      1.80      0.00
    3    4   28      1.42      0.00
    4    4   28      0.25      0.00
   -4    5   28     -0.10      0.00
   -3    5   28     -0.02      0.00
   -2    5   28      0.40      0.00
   -1    5   28      0.86      0.00
    0    5   28      0.76      0.00
    1    5   28     -0.31      0.00
    2    5   28      0.76      0.00
    3    5   28     -1.59      0.00
   -3    6   28      0.61      0.00
   -2    6   28      0.13      0.00
   -1    6   28      0.45      0.00
    0    6   28     -1.29      0.00
    1    6   28      0.37      0.00
   -5    0   29     -1.53      0.00
   -3    0   29      0.21      0.00
   -1    0   29      2.69      0.00
    1    0   29      1.69      0.00
    3    0   29      1.21      0.00
   -5    1   29     -0.33      0.00
   -4    1   29      1.30      0.00
   -3    1   29     -0.76      0.00
   -2    1   29     -1.46      0.00
   -1    1   29      0.31      0.00
    0    1   29     -0.38      0.00
    1    1   29     -0.06      0.00
    2    1   29      1.95      0.00
    3    1   29     -0.80      0.00
   -5    2   29     -0.52      0.00
   -4    2   29      1.12      0.00
   -3    2   29      1.23      0.00
   -2    2   29      0.96      0.00
   -1    2   29      0.32      0.00
    0    2   29     -0.11      0.00
    1    2   29     -0.48      0.00
    2    2   29      0.15      0.00
    3    2   29      0.46      0.00
   -4    3   29      0.42      0.00
   -3    3   29     -1.49      0.00
   -2    3   29     -0.52      0.00
   -1    3   29      0.47      0.00
    0    3   29     -0.52      0.00
    1    3   29      1.10      0.00
    2    3   29     -0.72      0.00
   -3    4   29     -0.73      0.00
   -2    4   29     -1.14      0.00
   -1    4   29     -0.98      0.00
    0    4   29     -2.29      0.00
    1    4   29      0.46      0.00
   -2    0   30      1.10      0.00
    0    0   30      2.28      0.00
   -2    1   30      0.06      0.00
   -1    1   30     -1.06      0.00
    0    1   30      1.22      0.00
   -1    2   30      0.19      0.00
    4    0    0    -22.85      0.00
    6    0    0     11.66      0.00
    1    1    0      2.89      0.00
    0    2    0    -19.56      0.00
    1    3    0    -10.02      0.00
   16    5    0      0.58      0.00
   15    8    0     -0.93      0.00
   13   11    0      0.14      0.00
    9   15    0      0.00      0.00
    5   17    0      0.01      0.00
   -5    0    1      9.09      0.00
   -1    0    1    164.25      0.00
    1    0    1    124.94      0.00
    3    0    1      1.73      0.00
   -3    1    1    -36.58      0.00
   -1    1    1     16.44      0.00
    0    1    1    -59.37      0.00
    4    1    1     45.68      0.00
   -3    2    1      5.40      0.00
    1    3    1      6.48      0.00
  -16    5    1      0.01      0.00
   16    5    1      0.34      0.00
  -15    8    1     -1.24      0.00
   15    8    1     -0.10      0.00
  -13   11    1      0.28      0.00
   13   11    1      1.12      0.00
   -9   15    1      1.16      0.00
    9   15    1      0.16      0.00
    7   16    1      0.61      0.00
   -5   17    1      0.50      0.00
    5   17    1      1.03      0.00
    0    0    2    -43.72      0.00
    2    0    2     24.21      0.00
   -3    1    2     24.88      0.00
    0    1    2     92.72      0.00
    3    1    2    -10.49      0.00
   16    4    2      0.90      0.00
  -16    5    2     -0.66      0.00
   16    5    2      0.28      0.00
  -15    8    2     -0.21      0.00
  -13   11    2      0.65      0.00
   13   11    2     -0.83      0.00
   10   14    2      0.41      0.00
   -9   15    2      0.71      0.00
    9   15    2     -0.40      0.00
   -7   16    2      0.31      0.00
    7   16    2      0.72      0.00
   -5   17    2     -0.45      0.00
    5   17    2      1.01      0.00
   -1    0    3    -33.90      0.00
    1    0    3    -66.43      0.00
    0    1    3    -15.49      0.00
   -1    2    3    -34.78      0.00
    1    2    3     -7.47      0.00
   16    4    3     -0.17      0.00
  -16    5    3     -0.76      0.00
   15    7    3     -0.51      0.00
  -15    8    3     -0.47      0.00
  -13   11    3      0.82      0.00
   13   11    3      0.65      0.00
   12   12    3      0.36      0.00
   11   13    3     -0.69      0.00
   10   14    3      0.09      0.00
   -9   15    3      0.39      0.00
    9   15    3     -1.34      0.00
   -7   16    3     -0.51      0.00
    7   16    3      0.00      0.00
   -5   17    3      0.91      0.00
    5   17    3     -0.08      0.00
   -4    0    4    -76.01      0.00
    2    0    4    -22.69      0.00
   14    0    4     -0.40      0.00
    0    2    4      3.75      0.00
    2    2    4     -3.55      0.00
   16    3    4     -0.36      0.00
   16    4    4      0.64      0.00
  -16    5    4     -0.65      0.00
   15    7    4     -0.62      0.00
  -15    8    4     -0.76      0.00
   14    9    4     -0.28      0.00
  -13   11    4      0.57      0.00
   12   12    4      0.23      0.00
   11   13    4      0.99      0.00
  -10   14    4     -0.85      0.00
   10   14    4      1.07      0.00
   -9   15    4     -0.12      0.00
   -7   16    4     -0.14      0.00
    7   16    4     -0.33      0.00
   -5   17    4      0.65      0.00
    4   17    4     -0.02      0.00
   -1    0    5     -7.77      0.00
    0    1    5    -12.31      0.00
    2    1    5     10.14      0.00
    1    2    5     -6.36      0.00
   16    3    5      0.16      0.00
  -16    4    5     -0.78      0.00
   16    4    5     -0.36      0.00
  -16    5    5      0.57      0.00
   15    7    5      0.51      0.00
   14    9    5      0.00      0.00
  -13   11    5     -0.47      0.00
  -12   12    5      0.21      0.00
   12   12    5     -0.01      0.00
  -11   13    5     -0.35      0.00
   11   13    5     -0.42      0.00
  -10   14    5     -0.13      0.00
   10   14    5     -0.21      0.00
   -7   16    5      0.28      0.00
    7   16    5     -0.65      0.00
   -4   17    5     -1.38      0.00
    4   17    5      1.37      0.00
   -2    0    6     27.32      0.00
    0    0    6      2.02      0.00
   16    0    6      0.93      0.00
   16    1    6      0.48      0.00
    0    2    6     17.68      0.00
   16    2    6      0.42      0.00
   16    3    6     -0.12      0.00
  -16    4    6     -0.36      0.00
  -15    7    6     -2.03      0.00
  -14    9    6      0.55      0.00
   14    9    6     -0.40      0.00
  -13   11    6     -0.18      0.00
  -12   12    6      0.31      0.00
  -11   13    6     -0.59      0.00
  -10   14    6     -0.43      0.00
    8   15    6     -0.30      0.00
   -7   16    6      0.07      0.00
   -4   17    6      0.00      0.00
    3   17    6     -0.03      0.00
    4   17    6      0.06      0.00
   -1    0    7    -22.14      0.00
   16    1    7     -0.24      0.00
   16    2    7     -0.87      0.00
  -16    4    7      0.15      0.00
   15    6    7      0.48      0.00
  -15    7    7     -0.47      0.00
  -14    9    7      0.65      0.00
   13   10    7      0.08      0.00
  -12   12    7     -0.14      0.00
  -11   13    7     -0.40      0.00
  -10   14    7      0.07      0.00
    8   15    7      0.44      0.00
    6   16    7     -0.68      0.00
   -4   17    7      0.11      0.00
   -3   17    7     -0.32      0.00
    3   17    7     -0.42      0.00
  -16    3    8      0.80      0.00
    0    3    8    -17.18      0.00
  -16    4    8     -0.61      0.00
   15    5    8     -0.11      0.00
  -15    7    8     -0.79      0.00
   14    8    8      0.38      0.00
  -14    9    8      0.06      0.00
   13   10    8      0.84      0.00
   12   11    8     -0.35      0.00
    9   14    8     -0.26      0.00
   -8   15    8     -0.41      0.00
   -6   16    8     -0.02      0.00
    6   16    8     -0.41      0.00
   -3   17    8      0.54      0.00
   -2   17    8      0.03      0.00
    1   17    8      0.23      0.00
    2   17    8      0.20      0.00
    3   17    8      0.15      0.00
   -3    0    9    -11.59      0.00
  -16    1    9      0.14      0.00
  -16    2    9     -0.94      0.00
  -16    3    9      0.52      0.00
   15    5    9     -1.10      0.00
  -15    6    9      0.48      0.00
  -13   10    9     -1.18      0.00
   12   11    9      0.34      0.00
   11   12    9      0.56      0.00
   10   13    9     -0.90      0.00
    9   14    9     -0.40      0.00
   -8   15    9     -0.97      0.00
    7   15    9     -0.65      0.00
   -6   16    9      0.41      0.00
    5   16    9     -0.93      0.00
   -2   17    9     -0.57      0.00
   -1   17    9     -0.05      0.00
    0   17    9     -0.26      0.00
    1   17    9      0.82      0.00
    2   17    9      1.10      0.00
  -16    0   10      0.31      0.00
  -16    1   10      0.83      0.00
  -16    2   10     -0.62      0.00
   15    4   10      0.32      0.00
  -15    6   10      0.53      0.00
   14    7   10      0.13      0.00
  -14    8   10      0.17      0.00
   13    9   10      0.04      0.00
  -13   10   10      0.57      0.00
  -12   11   10     -0.66      0.00
   -9   14   10      0.43      0.00
    7   15   10     -0.24      0.00
   -5   16   10      0.12      0.00
    5   16   10     -0.59      0.00
    0   17   10      0.15      0.00
   15    2   11     -0.08      0.00
   15    3   11      0.08      0.00
  -15    5   11      0.63      0.00
  -14    8   11      0.92      0.00
   12   10   11     -0.48      0.00
  -12   11   11      0.19      0.00
  -11   12   11      0.18      0.00
  -10   13   11      0.12      0.00
    8   14   11      0.85      0.00
   -7   15   11     -0.02      0.00
   -5   16   11     -0.88      0.00
   -4   16   11      0.07      0.00
    4   16   11     -0.70      0.00
   15    1   12      0.19      0.00
   15    2   12      0.16      0.00
  -15    5   12     -0.43      0.00
   14    6   12     -0.34      0.00
  -14    7   12      0.02      0.00
   13    8   12     -1.40      0.00
  -13    9   12     -0.03      0.00
   11   11   12     -0.62      0.00
   10   12   12     -0.16      0.00
    9   13   12     -0.64      0.00
   -8   14   12      0.34      0.00
    6   15   12     -0.30      0.00
   -4   16   12      1.23      0.00
   -3   16   12      0.52      0.00
    3   16   12      0.52      0.00
  -15    3   13     -0.58      0.00
  -15    4   13     -0.44      0.00
   14    5   13     -0.03      0.00
  -14    7   13     -0.12      0.00
  -13    9   13     -0.56      0.00
   12    9   13     -0.38      0.00
  -12   10   13      0.09      0.00
   -8   14   13     -0.80      0.00
    7   14   13     -0.55      0.00
   -6   15   13      0.44      0.00
    5   15   13     -0.51      0.00
   -3   16   13      0.24      0.00
   -2   16   13      0.69      0.00
   -1   16   13      0.24      0.00
    0   16   13     -0.31      0.00
    1   16   13      1.43      0.00
    2   16   13     -0.09      0.00
  -15    1   14     -0.75      0.00
  -15    2   14     -0.11      0.00
  -15    3   14      1.34      0.00
   14    3   14     -0.13      0.00
   14    4   14     -0.04      0.00
  -14    6   14     -0.90      0.00
   13    7   14      1.15      0.00
  -13    8   14      0.64      0.00
  -12   10   14     -1.31      0.00
   11   10   14      0.47      0.00
  -11   11   14     -0.69      0.00
  -10   12   14     -0.52      0.00
   -9   13   14     -0.78      0.00
    8   13   14     -0.53      0.00
   -7   14   14      0.33      0.00
   -5   15   14      0.12      0.00
    4   15   14      0.34      0.00
   -1   16   14      0.20      0.00
    0   16   14     -0.77      0.00
  -15    0   15     -0.29      0.00
  -15    1   15      0.02      0.00
   14    1   15     -0.66      0.00
   14    2   15      0.24      0.00
  -14    5   15      0.22      0.00
   13    6   15     -0.64      0.00
  -13    8   15     -0.50      0.00
   12    8   15      0.17      0.00
   10   11   15      0.20      0.00
    9   12   15      0.03      0.00
   -7   14   15      0.77      0.00
    6   14   15     -0.59      0.00
   -4   15   15      0.13      0.00
    3   15   15      0.87      0.00
  -14    4   16      0.09      0.00
  -14    5   16      0.64      0.00
   13    5   16     -0.20      0.00
  -13    7   16      0.27      0.00
   12    7   16      0.40      0.00
  -12    9   16      0.51      0.00
   11    9   16     -0.51      0.00
  -11   10   16      0.53      0.00
   10   10   16      0.18      0.00
  -10   11   16     -0.77      0.00
   -9   12   16      0.81      0.00
    8   12   16      1.05      0.00
   -8   13   16     -0.17      0.00
    7   13   16     -0.66      0.00
   -6   14   16     -0.47      0.00
    5   14   16     -0.47      0.00
   -3   15   16     -0.32      0.00
   -2   15   16     -1.51      0.00
   -1   15   16      0.23      0.00
    0   15   16      0.23      0.00
    1   15   16     -0.31      0.00
    2   15   16      1.32      0.00
  -14    2   17      0.92      0.00
  -14    3   17      0.63      0.00
   13    3   17     -0.38      0.00
   13    4   17      0.10      0.00
  -13    6   17      0.99      0.00
   12    6   17      0.44      0.00
  -12    8   17      0.91      0.00
   11    8   17      0.42      0.00
    9   11   17     -0.34      0.00
   -7   13   17      0.64      0.00
    6   13   17      0.47      0.00
   -5   14   17      0.29      0.00
    4   14   17     -0.61      0.00
  -14    0   18     -0.23      0.00
  -14    1   18     -0.73      0.00
   13    1   18     -0.29      0.00
  -14    2   18      0.00      0.00
  -13    5   18     -0.40      0.00
   12    5   18      0.03      0.00
  -11    9   18     -0.23      0.00
   10    9   18      0.46      0.00
  -10   10   18      0.87      0.00
    9   10   18      0.39      0.00
   -9   11   18      0.28      0.00
    8   11   18     -0.74      0.00
   -8   12   18      1.03      0.00
    7   12   18      0.17      0.00
   -6   13   18      1.03      0.00
    5   13   18      0.36      0.00
   -4   14   18     -0.62      0.00
   -3   14   18     -0.15      0.00
    2   14   18     -1.10      0.00
    3   14   18      0.19      0.00
   -9    0   19     -1.52      0.00
   12    3   19      0.12      0.00
  -13    4   19     -0.28      0.00
   12    4   19      0.11      0.00
  -12    7   19     -0.55      0.00
  -11    8   19     -0.76      0.00
   10    8   19     -0.61      0.00
   -7   12   19     -0.23      0.00
    6   12   19     -0.05      0.00
   -5   13   19     -0.02      0.00
    4   13   19      1.04      0.00
   -2   14   19     -0.46      0.00
   -1   14   19     -0.36      0.00
    0   14   19     -0.52      0.00
    1   14   19      0.00      0.00
   12    0   20     -0.48      0.00
  -13    1   20     -0.42      0.00
   12    1   20      1.04      0.00
  -13    2   20     -0.16      0.00
   12    2   20     -0.91      0.00
  -13    3   20     -0.93      0.00
   11    5   20     -0.23      0.00
  -12    6   20     -0.09      0.00
   10    7   20     -0.49      0.00
  -10    9   20     -0.70      0.00
    9    9   20      0.08      0.00
   -9   10   20     -0.07      0.00
    8   10   20     -0.45      0.00
   -8   11   20      0.05      0.00
    7   11   20     -0.22      0.00
   -6   12   20      0.56      0.00
    5   12   20      0.70      0.00
   -4   13   20      0.06      0.00
   -3   13   20     -0.12      0.00
    2   13   20     -0.01      0.00
    3   13   20      0.12      0.00
   11    3   21      0.66      0.00
  -12    4   21      0.46      0.00
   11    4   21     -0.10      0.00
   10    6   21      0.87      0.00
  -10    8   21      0.68      0.00
    9    8   21     -0.08      0.00
   -9    9   21      0.59      0.00
    8    9   21      0.82      0.00
   -8   10   21      0.86      0.00
    7   10   21     -0.60      0.00
   -7   11   21      0.51      0.00
    6   11   21      0.16      0.00
   -5   12   21     -0.52      0.00
    4   12   21     -0.06      0.00
   -2   13   21      0.89      0.00
   -1   13   21     -0.18      0.00
    0   13   21      0.00      0.00
    1   13   21     -0.52      0.00
  -12    0   22      1.50      0.00
  -12    1   22     -0.78      0.00
   11    1   22      0.66      0.00
  -12    2   22      0.85      0.00
  -12    3   22     -0.19      0.00
  -11    5   22      0.62      0.00
   10    5   22      0.22      0.00
  -10    7   22     -0.49      0.00
    9    7   22      0.26      0.00
    8    8   22     -0.18      0.00
    6   10   22      1.03      0.00
   -6   11   22     -0.12      0.00
    5   11   22     -0.26      0.00
   -4   12   22      0.55      0.00
   -3   12   22      0.36      0.00
    1   12   22      0.80      0.00
    2   12   22     -0.18      0.00
   -9    0   23      0.70      0.00
   -9    1   23     -1.06      0.00
   10    1   23      0.25      0.00
   10    2   23     -0.07      0.00
  -11    3   23     -0.50      0.00
   10    3   23      0.58      0.00
  -11    4   23      0.31      0.00
    9    5   23     -0.88      0.00
  -10    6   23      0.09      0.00
    9    6   23     -0.67      0.00
    8    7   23     -0.51      0.00
   -6   10   23      0.17      0.00
    5   10   23      0.18      0.00
   -5   11   23      0.10      0.00
   -4   11   23     -0.01      0.00
    3   11   23     -0.37      0.00
  -10    0   24      0.75      0.00
  -11    1   24     -0.90      0.00
  -10    1   24     -0.20      0.00
  -11    2   24     -0.54      0.00
    9    3   24      0.11      0.00
  -10    4   24      0.03      0.00
    9    4   24     -1.23      0.00
  -10    5   24     -0.29      0.00
   -9    6   24     -0.04      0.00
    8    6   24      0.30      0.00
    7    7   24     -0.35      0.00
   -8    8   24     -0.11      0.00
    5    9   24     -0.21      0.00
   -5   10   24      0.05      0.00
    4   10   24      0.70      0.00
   -2   11   24      0.18      0.00
   -1   11   24     -0.24      0.00
    0   11   24      0.09      0.00
    1   11   24      0.80      0.00
   -9    0   25     -0.98      0.00
    9    0   25     -0.55      0.00
  -10    1   25     -0.68      0.00
    9    1   25      1.31      0.00
  -10    2   25     -0.32      0.00
  -10    3   25     -0.18      0.00
    8    4   25     -0.61      0.00
   -9    5   25      0.28      0.00
    7    6   25      0.18      0.00
    6    7   25     -0.07      0.00
   -7    8   25     -0.27      0.00
    5    8   25      0.46      0.00
   -5    9   25      0.80      0.00
    4    9   25     -0.24      0.00
   -3   10   25     -0.11      0.00
   -2   10   25     -0.15      0.00
   -1   10   25      0.56      0.00
    0   10   25     -0.41      0.00
    1   10   25     -0.33      0.00
    2   10   25     -0.14      0.00
    8    0   26     -0.68      0.00
    8    1   26      0.00      0.00
   -9    2   26      0.63      0.00
    8    2   26      0.52      0.00
   -9    3   26      0.44      0.00
    7    4   26      0.84      0.00
   -8    5   26      0.38      0.00
   -7    6   26     -0.15      0.00
    6    6   26      0.01      0.00
    5    7   26     -0.32      0.00
   -5    8   26     -0.36      0.00
    4    8   26     -0.30      0.00
   -3    9   26      0.36      0.00
   -2    9   26     -0.19      0.00
    0    9   26     -0.58      0.00
    1    9   26     -0.91      0.00
    2    9   26     -0.07      0.00
    7    0   27      0.49      0.00
    7    1   27     -0.31      0.00
   -8    2   27      1.28      0.00
    7    2   27     -1.24      0.00
   -8    3   27     -0.11      0.00
    6    4   27      0.03      0.00
   -7    5   27      1.09      0.00
   -6    6   27      0.08      0.00
    5    6   27      0.59      0.00
   -5    7   27      0.21      0.00
    3    7   27      0.26      0.00
   -3    8   27     -0.39      0.00
   -2    8   27      0.34      0.00
   -1    8   27     -0.29      0.00
    0    8   27     -0.22      0.00
    1    8   27      0.58      0.00
    2    8   27      1.12      0.00
    6    0   28      0.50      0.00
   -7    1   28     -0.23      0.00
    6    1   28      0.49      0.00
   -7    2   28      0.76      0.00
   -7    3   28      0.67      0.00
    5    3   28      0.94      0.00
   -6    4   28     -0.36      0.00
    5    4   28     -0.61      0.00
   -5    5   28      0.81      0.00
    4    5   28      0.57      0.00
   -4    6   28     -0.26      0.00
    2    6   28     -0.69      0.00
    3    6   28     -0.20      0.00
   -3    7   28      0.04      0.00
   -2    7   28     -0.05      0.00
   -1    7   28     -1.33      0.00
    0    7   28      0.14      0.00
    1    7   28     -0.09      0.00
   -6    1   29      0.62      0.00
    4    1   29      0.91      0.00
   -6    2   29     -0.39      0.00
    4    2   29      0.14      0.00
   -5    3   29     -0.68      0.00
    3    3   29      0.34      0.00
    4    3   29      0.41      0.00
   -5    4   29      0.26      0.00
   -4    4   29      0.20      0.00
    2    4   29      0.53      0.00
    3    4   29      0.70      0.00
   -3    5   29     -0.46      0.00
   -2    5   29     -0.60      0.00
   -1    5   29     -0.12      0.00
    0    5   29      0.66      0.00
    1    5   29      0.43      0.00
    2    5   29     -0.67      0.00
   -1    6   29     -0.01      0.00
   -4    0   30      0.20      0.00
    2    0   30      1.52      0.00
   -4    1   30     -0.38      0.00
   -3    1   30     -1.13      0.00
    1    1   30      0.74      0.00
    2    1   30      0.80      0.00
   -4    2   30     -0.20      0.00
   -3    2   30      0.55      0.00
   -2    2   30      0.72      0.00
    0    2   30      0.09      0.00
    1    2   30      0.54      0.00
    2    2   30      0.37      0.00
   -3    3   30      0.31      0.00
   -2    3   30      0.16      0.00
   -1    3   30      0.58      0.00
    0    3   30      0.90      0.00
    1    3   30      0.33      0.00
    0    0    0      0.00      0.00
# SQUEEZE RESULTS
# Note: Data are Listed for all Voids in the P1 Unit Cell
# i.e. Centre of Gravity, Solvent Accessible Volume,
# Recovered number of Electrons in the Void and
# Details about the Squeezed Material
loop_
  _platon_squeeze_void_nr
  _platon_squeeze_void_average_x
  _platon_squeeze_void_average_y
  _platon_squeeze_void_average_z
  _platon_squeeze_void_volume
  _platon_squeeze_void_count_electrons
  _platon_squeeze_void_content
   1  0.184  0.017  0.184      1529       409 ' '
_platon_squeeze_details
(replace by semicolon in column 1 when used as .sqf)
TITL 2_sq      P 1 21/n 1   R = 0.06
CELL   13.8680   14.8240   25.3640     90.00     92.95     90.00
SPGR P21/n
# Solvent Accessible Volume =    1536.5
# Electrons Found in S.A.V. =     408.3
# Note: Atoms in Void as Cxxx and Qxxx all others
C101 0.844 0.839 0.657 !       7.89 eA-3
C102 0.396 0.710 0.709 !       4.88 eA-3
C103 0.573 0.919 0.434 !       4.16 eA-3
C104 0.652 0.122 0.280 !       3.70 eA-3
C105 0.882 0.517 0.969 !       3.44 eA-3
C106 0.592 0.718 0.546 !       3.34 eA-3
C107 0.020 0.769 0.941 !       2.99 eA-3
C108 0.893 1.003 0.804 !       2.89 eA-3
C109 0.173 0.629 0.096 !       2.65 eA-3
C110 0.447 0.522 0.333 !       2.58 eA-3
C111 0.055 0.829 0.148 !       2.50 eA-3
C112 0.062 0.596 0.194 !       2.40 eA-3
C113 0.644 0.891 0.710 !       2.11 eA-3
C114 0.334 0.877 0.580 !       1.80 eA-3
C115 0.489 0.077 0.346 !       1.19 eA-3
C116 0.747 0.922 0.727 !       1.19 eA-3
C117 0.642 0.136 0.348 !       1.09 eA-3
Q118 0.163 0.441 0.733 !       0.97 eA-3
C119 0.098 0.341 0.937 !       0.90 eA-3
Q120 0.777 0.094 0.258 !       0.89 eA-3
Q121 0.044 0.937 0.723 !       0.76 eA-3
Q122 0.100 0.360 0.592 !       0.72 eA-3
C123 0.979 0.096 0.117 !       0.71 eA-3
Q124 0.141 0.297 0.609 !       0.70 eA-3
Q125 0.873 0.486 0.401 !       0.70 eA-3
Q126 0.391 0.810 0.909 !       0.70 eA-3
Q127 0.374 0.875 0.874 !       0.69 eA-3
C128 0.490 0.827 0.457 !       0.68 eA-3
Q129 0.827 0.926 0.664 !       0.64 eA-3
Q130 0.620 0.167 0.061 !       0.63 eA-3
Q131 0.487 0.578 0.676 !       0.62 eA-3
Q132 0.871 0.638 0.429 !       0.62 eA-3
Q133 0.409 0.040 0.930 !       0.62 eA-3
Q134 0.216 0.796 0.910 !       0.62 eA-3
Q135 0.377 0.905 0.827 !       0.61 eA-3
Q136 0.616 0.098 0.967 !       0.61 eA-3
Q137 0.615 0.082 0.079 !       0.60 eA-3
Q138 0.864 0.500 0.345 !       0.60 eA-3
Q139 0.748 0.892 0.579 !       0.60 eA-3
Q140 0.591 0.972 0.046 !       0.59 eA-3
Q141 0.865 0.562 0.361 !       0.59 eA-3
Q142 0.014 0.016 0.298 !       0.58 eA-3
Q143 0.754 0.547 0.039 !       0.58 eA-3
Q144 0.510 0.509 0.703 !       0.57 eA-3
Q145 0.920 0.597 0.360 !       0.56 eA-3
Q146 0.775 0.953 0.590 !       0.55 eA-3
Q147 0.783 0.572 0.288 !       0.55 eA-3
Q148 0.110 0.559 0.395 !       0.54 eA-3
Q149 0.624 0.033 0.947 !       0.54 eA-3
Q150 0.777 0.830 0.500 !       0.54 eA-3
Q151 0.962 0.194 0.686 !       0.53 eA-3
Q152 0.737 0.438 0.882 !       0.52 eA-3
Q153 0.099 0.468 0.468 !       0.52 eA-3
Q154 0.993 0.174 0.708 !       0.52 eA-3
Q155 0.399 0.192 0.046 !       0.52 eA-3
Q156 0.993 0.040 0.321 !       0.52 eA-3
Q157 0.290 0.957 0.740 !       0.52 eA-3
Q158 0.775 0.308 0.030 !       0.51 eA-3
C159 0.187 0.716 0.099 !       0.51 eA-3
Q160 0.880 0.570 0.465 !       0.51 eA-3
Q161 0.739 0.623 0.140 !       0.51 eA-3
C162 0.448 0.079 0.389 !       0.51 eA-3
Q163 0.830 0.547 0.331 !       0.50 eA-3
C164 0.200 0.736 0.915 !       0.50 eA-3
(replace by semicolon in column 1 when used as .sqf)
;
_shelx_fab_checksum              30440
_olex2_submission_special_instructions 'No special instructions were received'
loop_
_space_group_symop_operation_xyz
'x, y, z'
'-x+1/2, y+1/2, -z+1/2'
'-x, -y, -z'
'x-1/2, -y-1/2, z-1/2'
loop_
_atom_site_label
_atom_site_type_symbol
_atom_site_fract_x
_atom_site_fract_y
_atom_site_fract_z
_atom_site_U_iso_or_equiv
_atom_site_adp_type
_atom_site_occupancy
_atom_site_site_symmetry_order
_atom_site_calc_flag
_atom_site_refinement_flags_posn
_atom_site_refinement_flags_adp
Co1 Co -0.39442(2) 0.46744(2) 0.17281(2) 0.02738(13) Uani 1 1 d . U
O6 O 0.43967(15) 0.49467(16) 0.14794(10) 0.0486(6) Uani 1 1 d . .
O5 O 0.50016(13) 0.37780(14) 0.19061(9) 0.0382(5) Uani 1 1 d . .
O12 O 0.42838(19) 0.26168(16) 0.08359(9) 0.0513(6) Uani 1 1 d . .
O2 O -0.28764(14) 0.38854(15) 0.20208(8) 0.0401(5) Uani 1 1 d . .
C12 C -0.12854(18) 0.33269(18) 0.19991(11) 0.0269(6) Uani 1 1 d . .
N1 N -0.38090(17) 0.45387(15) 0.09220(10) 0.0308(5) Uani 1 1 d . .
O4 O -0.0665(2) 0.03327(15) 0.24488(10) 0.0535(6) Uani 1 1 d . .
O9 O 0.3541(2) -0.16573(16) -0.11771(10) 0.0619(7) Uani 1 1 d . .
C10 C -0.0742(2) 0.19307(18) 0.23937(11) 0.0289(6) Uani 1 1 d . .
N2 N -0.4395(2) 0.20468(16) 0.00763(11) 0.0443(7) Uani 1 1 d . .
H2A H -0.490158 0.226156 -0.011350 0.053 Uiso 1 1 calc R .
H2B H -0.452477 0.208729 0.041551 0.053 Uiso 1 1 calc R .
C15 C -0.0922(2) 0.1042(2) 0.26624(12) 0.0350(6) Uani 1 1 d . .
C2 C 0.32943(19) 0.38484(19) 0.17844(12) 0.0323(6) Uani 1 1 d . .
C6 C 0.1609(2) 0.3808(2) 0.15271(12) 0.0339(6) Uani 1 1 d . .
H6 H 0.110285 0.398744 0.129605 0.041 Uiso 1 1 calc R .
C5 C 0.14232(18) 0.32301(18) 0.19393(11) 0.0273(6) Uani 1 1 d . .
O10 O 0.5322(2) 0.19914(16) -0.13051(11) 0.0666(8) Uani 1 1 d . .
C8 C 0.04179(18) 0.29628(18) 0.20443(11) 0.0264(5) Uani 1 1 d . .
C11 C -0.14889(18) 0.25255(19) 0.22530(11) 0.0295(6) Uani 1 1 d . .
H11 H -0.212073 0.238621 0.232891 0.035 Uiso 1 1 calc R .
C1 C 0.4284(2) 0.4211(2) 0.17121(12) 0.0349(7) Uani 1 1 d . .
C13 C -0.03401(18) 0.35460(18) 0.19020(10) 0.0268(6) Uani 1 1 d . .
H13 H -0.020876 0.409116 0.173903 0.032 Uiso 1 1 calc R .
O1 O -0.18751(17) 0.46013(17) 0.15194(13) 0.0625(8) Uani 1 1 d . .
C9 C 0.01961(19) 0.21495(18) 0.22865(11) 0.0293(6) Uani 1 1 d . .
H9 H 0.069024 0.174586 0.237776 0.035 Uiso 1 1 calc R .
C7 C 0.2527(2) 0.4125(2) 0.14514(13) 0.0375(7) Uani 1 1 d . .
H7 H 0.263141 0.452362 0.117699 0.045 Uiso 1 1 calc R .
O8 O 0.1741(2) -0.09169(17) -0.03579(12) 0.0687(8) Uani 1 1 d . .
N6 N 0.2771(2) 0.19923(19) 0.08417(12) 0.0521(7) Uani 1 1 d . .
N10 N 0.3151(3) 0.0045(2) 0.14570(13) 0.0582(8) Uani 1 1 d . .
C4 C 0.22073(19) 0.29405(19) 0.22641(12) 0.0325(6) Uani 1 1 d . .
H4 H 0.210672 0.253876 0.253745 0.039 Uiso 1 1 calc R .
C21 C -0.3706(2) 0.37165(18) 0.07149(12) 0.0342(6) Uani 1 1 d . .
H21 H -0.366818 0.322377 0.094197 0.041 Uiso 1 1 calc R .
C33 C 0.3707(3) 0.2096(2) 0.10122(13) 0.0457(8) Uani 1 1 d . .
N13 N 0.2001(3) 0.02865(19) -0.09007(13) 0.0564(8) Uani 1 1 d . .
C3 C 0.31222(19) 0.3241(2) 0.21844(12) 0.0339(6) Uani 1 1 d . .
H3 H 0.363576 0.303501 0.240206 0.041 Uiso 1 1 calc R .
N14 N 0.3190(3) -0.02306(19) -0.14943(12) 0.0564(8) Uani 1 1 d . .
N3 N 0.3911(3) 0.12535(19) -0.15556(12) 0.0549(8) Uani 1 1 d . .
N7 N 0.3888(3) 0.15250(19) 0.14301(11) 0.0532(8) Uani 1 1 d . .
N5 N 0.2392(2) 0.19808(19) -0.00988(12) 0.0524(7) Uani 1 1 d . .
N11 N 0.2091(3) 0.04739(19) 0.08196(13) 0.0557(8) Uani 1 1 d . .
C14 C -0.20625(19) 0.39887(19) 0.18305(12) 0.0332(6) Uani 1 1 d . .
N9 N 0.4691(3) -0.06142(19) 0.17335(12) 0.0582(8) Uani 1 1 d . .
O7 O 0.2442(2) -0.10395(17) 0.09132(13) 0.0713(8) Uani 1 1 d . .
N4 N 0.2789(3) 0.17435(19) -0.09226(12) 0.0553(8) Uani 1 1 d . .
N12 N 0.1516(3) 0.0558(2) -0.00944(14) 0.0652(9) Uani 1 1 d . .
C23 C -0.4256(3) 0.1079(2) -0.00609(14) 0.0474(8) Uani 1 1 d . .
H23A H -0.368192 0.085592 0.013087 0.057 Uiso 1 1 calc R .
H23B H -0.415002 0.103340 -0.043496 0.057 Uiso 1 1 calc R .
C22 C -0.3536(3) 0.2612(2) -0.00206(14) 0.0467(8) Uani 1 1 d . .
H22A H -0.343792 0.262761 -0.039640 0.056 Uiso 1 1 calc R .
H22B H -0.296866 0.234303 0.015465 0.056 Uiso 1 1 calc R .
N8 N 0.5426(3) 0.08691(19) 0.16869(12) 0.0567(8) Uani 1 1 d . .
C20 C -0.3654(2) 0.35641(19) 0.01786(12) 0.0365(7) Uani 1 1 d . .
C34 C 0.2356(3) 0.2479(2) 0.03932(15) 0.0537(9) Uani 1 1 d . .
H34A H 0.269991 0.304427 0.035937 0.064 Uiso 1 1 calc R .
H34B H 0.168893 0.262015 0.045549 0.064 Uiso 1 1 calc R .
C41 C 0.2284(3) 0.1292(2) 0.11215(15) 0.0543(9) Uani 1 1 d . .
H41 H 0.169907 0.152082 0.127719 0.065 Uiso 1 1 calc R .
C17 C -0.3852(3) 0.52403(19) 0.05926(14) 0.0428(8) Uani 1 1 d . .
H17 H -0.392224 0.581500 0.073258 0.051 Uiso 1 1 calc R .
C19 C -0.3714(3) 0.4294(2) -0.01559(13) 0.0480(8) Uani 1 1 d . .
H19 H -0.369864 0.421454 -0.051908 0.058 Uiso 1 1 calc R .
C38 C 0.3622(4) 0.0424(2) -0.18300(13) 0.0558(10) Uani 1 1 d . .
H38 H 0.321765 0.054445 -0.215045 0.067 Uiso 1 1 calc R .
C39 C 0.1896(3) 0.1265(2) -0.08899(16) 0.0580(10) Uani 1 1 d . .
H39 H 0.140726 0.147621 -0.115439 0.070 Uiso 1 1 calc R .
C37 C 0.4884(4) 0.1356(2) -0.15105(14) 0.0566(10) Uani 1 1 d . .
C32 C 0.4751(3) 0.1585(2) 0.17683(15) 0.0580(10) Uani 1 1 d . .
H32A H 0.506333 0.215821 0.170734 0.070 Uiso 1 1 calc R .
H32B H 0.457311 0.157394 0.213323 0.070 Uiso 1 1 calc R .
C40 C 0.1597(3) 0.1453(3) -0.03220(17) 0.0592(10) Uani 1 1 d . .
H40 H 0.098503 0.178350 -0.031961 0.071 Uiso 1 1 calc R .
C18 C -0.3798(3) 0.5153(2) 0.00576(15) 0.0523(9) Uani 1 1 d . .
H18 H -0.381693 0.565861 -0.015938 0.063 Uiso 1 1 calc R .
C43 C 0.5398(3) 0.0009(2) 0.19564(13) 0.0580(10) Uani 1 1 d . .
H43 H 0.533917 0.008477 0.233720 0.070 Uiso 1 1 calc R .
C26 C 0.2179(4) -0.0216(2) -0.13726(15) 0.0614(11) Uani 1 1 d . .
H26A H 0.180568 0.004703 -0.166763 0.074 Uiso 1 1 calc R .
H26B H 0.195765 -0.083161 -0.132996 0.074 Uiso 1 1 calc R .
C42 C 0.3051(3) 0.1001(2) 0.15503(15) 0.0564(10) Uani 1 1 d . .
H42 H 0.284327 0.112609 0.190651 0.068 Uiso 1 1 calc R .
C25 C 0.3751(3) -0.0991(2) -0.14298(13) 0.0530(9) Uani 1 1 d . .
C24 C -0.5097(3) 0.04920(19) 0.00634(16) 0.0520(9) Uani 1 1 d . .
H24A H -0.566837 0.069347 -0.014012 0.062 Uiso 1 1 calc R .
H24B H -0.522132 0.054939 0.043476 0.062 Uiso 1 1 calc R .
C36 C 0.3249(3) 0.1933(2) -0.14119(15) 0.0578(10) Uani 1 1 d . .
H36A H 0.275445 0.199877 -0.169370 0.069 Uiso 1 1 calc R .
H36B H 0.359022 0.250327 -0.137648 0.069 Uiso 1 1 calc R .
C30 C 0.3680(4) -0.0560(3) 0.18175(17) 0.0683(13) Uani 1 1 d . .
H30A H 0.359702 -0.035872 0.217633 0.082 Uiso 1 1 calc R .
H30B H 0.340242 -0.115864 0.178191 0.082 Uiso 1 1 calc R .
C29 C 0.2545(3) -0.0250(2) 0.10502(17) 0.0589(11) Uani 1 1 d . .
C27 C 0.1758(3) -0.0113(2) -0.04430(16) 0.0556(9) Uani 1 1 d . .
C28 C 0.1285(3) 0.0375(3) 0.04448(18) 0.0670(12) Uani 1 1 d . .
H28A H 0.077503 0.078231 0.054124 0.080 Uiso 1 1 calc R .
H28B H 0.103865 -0.023530 0.046588 0.080 Uiso 1 1 calc R .
C35 C 0.3057(3) 0.2168(2) -0.04596(14) 0.0473(8) Uani 1 1 d . .
O11 O 0.37715(19) 0.26384(15) -0.03870(10) 0.0520(6) Uani 1 1 d . .
O3 O -0.37077(18) 0.60270(15) 0.18979(10) 0.0482(6) Uani 1 1 d . U
loop_
_atom_site_aniso_label
_atom_site_aniso_U_11
_atom_site_aniso_U_22
_atom_site_aniso_U_33
_atom_site_aniso_U_23
_atom_site_aniso_U_13
_atom_site_aniso_U_12
Co1 0.0233(2) 0.0215(2) 0.0374(2) -0.00320(14) 0.00153(15) -0.00130(13)
O6 0.0315(11) 0.0408(13) 0.0744(16) 0.0057(12) 0.0109(11) -0.0040(10)
O5 0.0208(10) 0.0347(11) 0.0587(14) -0.0067(10) -0.0005(9) -0.0042(8)
O12 0.0738(17) 0.0362(12) 0.0444(13) -0.0014(10) 0.0069(12) -0.0101(12)
O2 0.0248(10) 0.0503(13) 0.0457(12) 0.0034(10) 0.0067(9) 0.0115(9)
C12 0.0220(12) 0.0279(14) 0.0310(14) 0.0000(11) 0.0031(10) 0.0017(10)
N1 0.0327(12) 0.0218(12) 0.0377(13) -0.0030(9) 0.0015(10) -0.0035(9)
O4 0.0707(17) 0.0319(12) 0.0584(15) 0.0057(11) 0.0078(13) 0.0025(11)
O9 0.103(2) 0.0290(13) 0.0534(15) 0.0088(11) -0.0002(14) -0.0061(13)
C10 0.0311(14) 0.0266(14) 0.0292(14) 0.0028(11) 0.0045(11) 0.0000(11)
N2 0.0622(17) 0.0197(12) 0.0515(16) -0.0061(11) 0.0060(13) -0.0053(11)
C15 0.0334(15) 0.0327(16) 0.0388(16) 0.0027(13) 0.0006(13) -0.0071(12)
C2 0.0214(13) 0.0282(14) 0.0474(17) -0.0061(12) 0.0017(12) 0.0011(11)
C6 0.0244(13) 0.0385(16) 0.0389(16) 0.0077(13) 0.0000(12) 0.0008(12)
C5 0.0220(12) 0.0265(13) 0.0336(14) -0.0040(11) 0.0041(11) -0.0001(10)
O10 0.102(2) 0.0304(13) 0.0667(17) -0.0039(12) -0.0017(15) -0.0059(13)
C8 0.0225(13) 0.0264(13) 0.0304(13) -0.0001(11) 0.0020(10) -0.0002(10)
C11 0.0213(12) 0.0316(14) 0.0363(15) -0.0013(12) 0.0070(11) -0.0028(11)
C1 0.0272(14) 0.0319(16) 0.0462(17) -0.0114(13) 0.0072(12) -0.0037(12)
C13 0.0247(13) 0.0240(13) 0.0320(14) 0.0025(11) 0.0039(11) -0.0012(10)
O1 0.0337(12) 0.0464(15) 0.107(2) 0.0367(15) 0.0023(13) 0.0063(10)
C9 0.0243(13) 0.0275(14) 0.0360(15) 0.0044(11) -0.0011(11) 0.0014(11)
C7 0.0296(14) 0.0382(16) 0.0452(17) 0.0074(13) 0.0070(13) -0.0022(12)
O8 0.102(2) 0.0371(14) 0.0672(18) -0.0013(13) 0.0033(16) -0.0144(14)
N6 0.070(2) 0.0302(14) 0.0565(18) -0.0011(13) 0.0112(15) -0.0057(13)
N10 0.087(2) 0.0283(14) 0.0606(19) -0.0041(14) 0.0180(18) -0.0070(15)
C4 0.0268(13) 0.0316(15) 0.0392(16) 0.0029(12) 0.0042(12) 0.0050(11)
C21 0.0454(16) 0.0191(13) 0.0383(16) 0.0000(11) 0.0043(13) -0.0043(12)
C33 0.074(2) 0.0249(15) 0.0394(17) -0.0088(13) 0.0148(16) -0.0059(15)
N13 0.078(2) 0.0351(16) 0.0545(18) -0.0023(13) -0.0087(16) -0.0067(14)
C3 0.0219(13) 0.0365(16) 0.0429(16) -0.0019(13) -0.0033(12) 0.0044(11)
N14 0.095(3) 0.0322(16) 0.0419(16) 0.0037(12) -0.0015(16) -0.0005(15)
N3 0.090(3) 0.0285(14) 0.0444(16) -0.0001(12) -0.0089(16) 0.0035(15)
N7 0.085(2) 0.0317(14) 0.0427(16) -0.0015(12) 0.0054(15) -0.0110(14)
N5 0.0653(19) 0.0351(15) 0.0567(18) -0.0031(13) 0.0005(15) -0.0030(13)
N11 0.076(2) 0.0324(15) 0.0601(19) -0.0078(14) 0.0188(17) -0.0100(14)
C14 0.0241(14) 0.0305(15) 0.0447(16) -0.0020(13) -0.0005(12) 0.0029(11)
N9 0.099(3) 0.0269(14) 0.0490(17) -0.0004(13) 0.0062(17) -0.0007(15)
O7 0.097(2) 0.0319(14) 0.087(2) -0.0137(13) 0.0228(17) -0.0149(13)
N4 0.084(2) 0.0339(15) 0.0472(17) 0.0024(13) -0.0048(15) -0.0055(15)
N12 0.090(3) 0.0376(16) 0.069(2) -0.0061(15) 0.0090(19) -0.0089(16)
C23 0.077(2) 0.0209(15) 0.0447(18) -0.0083(13) 0.0051(17) 0.0007(15)
C22 0.066(2) 0.0299(16) 0.0455(18) -0.0086(14) 0.0175(16) -0.0059(15)
N8 0.098(3) 0.0282(15) 0.0444(16) 0.0063(12) 0.0049(17) 0.0000(15)
C20 0.0460(17) 0.0239(14) 0.0402(16) -0.0032(12) 0.0082(13) -0.0087(12)
C34 0.068(2) 0.0274(16) 0.066(2) -0.0046(16) 0.0081(19) 0.0056(15)
C41 0.073(2) 0.0335(18) 0.058(2) -0.0092(16) 0.0274(19) -0.0066(16)
C17 0.058(2) 0.0179(14) 0.0531(19) -0.0018(13) 0.0060(16) -0.0034(13)
C19 0.068(2) 0.0391(18) 0.0377(17) -0.0014(14) 0.0114(16) -0.0097(16)
C38 0.102(3) 0.0338(18) 0.0308(17) 0.0060(13) -0.0083(18) -0.0051(18)
C39 0.072(2) 0.0386(19) 0.061(2) 0.0033(17) -0.0178(19) 0.0015(17)
C37 0.104(3) 0.0278(18) 0.0370(18) 0.0098(14) -0.0022(19) 0.0021(19)
C32 0.103(3) 0.0256(16) 0.046(2) -0.0070(14) 0.006(2) -0.0105(18)
C40 0.066(2) 0.0389(19) 0.072(3) -0.0040(18) -0.003(2) -0.0006(17)
C18 0.080(3) 0.0260(16) 0.051(2) 0.0114(14) 0.0068(18) -0.0051(16)
C43 0.115(3) 0.0302(17) 0.0287(16) 0.0047(14) -0.0003(18) -0.001(2)
C26 0.093(3) 0.039(2) 0.050(2) -0.0050(16) -0.020(2) -0.0108(19)
C42 0.091(3) 0.0310(17) 0.049(2) -0.0066(15) 0.027(2) -0.0053(17)
C25 0.095(3) 0.0303(17) 0.0331(17) -0.0009(14) -0.0085(18) -0.0015(17)
C24 0.076(3) 0.0199(16) 0.060(2) -0.0046(14) 0.0012(18) -0.0035(15)
C36 0.094(3) 0.0282(17) 0.050(2) 0.0102(15) -0.0074(19) 0.0063(17)
C30 0.118(4) 0.0325(18) 0.057(2) 0.0081(17) 0.032(2) -0.011(2)
C29 0.077(3) 0.039(2) 0.064(2) -0.0089(17) 0.034(2) -0.0125(18)
C27 0.064(2) 0.040(2) 0.062(2) -0.0025(17) -0.0077(18) -0.0101(17)
C28 0.076(3) 0.048(2) 0.078(3) -0.010(2) 0.018(2) -0.0168(19)
C35 0.068(2) 0.0189(14) 0.054(2) 0.0029(14) -0.0083(17) 0.0055(15)
O11 0.0737(17) 0.0285(12) 0.0532(14) 0.0024(10) -0.0023(12) -0.0024(12)
O3 0.0607(14) 0.0304(9) 0.0551(14) -0.0132(10) 0.0189(12) -0.0026(10)
loop_
_atom_type_symbol
_atom_type_description
_atom_type_scat_dispersion_real
_atom_type_scat_dispersion_imag
_atom_type_scat_source
C C 0.0033 0.0016 'International Tables Vol C Tables 4.2.6.8 and 6.1.1.4'
H H 0.0000 0.0000 'International Tables Vol C Tables 4.2.6.8 and 6.1.1.4'
Co Co 0.3494 0.9721 'International Tables Vol C Tables 4.2.6.8 and 6.1.1.4'
N N 0.0061 0.0033 'International Tables Vol C Tables 4.2.6.8 and 6.1.1.4'
O O 0.0106 0.0060 'International Tables Vol C Tables 4.2.6.8 and 6.1.1.4'
loop_
_geom_angle_atom_site_label_1
_geom_angle_atom_site_label_2
_geom_angle_atom_site_label_3
_geom_angle
_geom_angle_site_symmetry_1
_geom_angle_site_symmetry_3
O6 Co1 O4 84.44(9) 1_455 2_455
O5 Co1 O6 58.52(8) 1_455 1_455
O5 Co1 N1 104.89(9) 1_455 .
O5 Co1 O4 82.86(9) 1_455 2_455
O5 Co1 O3 133.66(9) 1_455 .
O2 Co1 O6 151.86(9) . 1_455
O2 Co1 O5 93.57(9) . 1_455
O2 Co1 N1 101.92(9) . .
O2 Co1 O4 96.39(9) . 2_455
O2 Co1 O3 112.48(10) . .
N1 Co1 O6 83.72(9) . 1_455
N1 Co1 O4 159.51(9) . 2_455
N1 Co1 O3 106.10(9) . .
O3 Co1 O6 91.79(9) . 1_455
O3 Co1 O4 57.64(8) . 2_455
C1 O6 Co1 82.57(17) . 1_655
C1 O5 Co1 98.17(18) . 1_655
C14 O2 Co1 116.60(19) . .
C11 C12 C14 122.1(2) . .
C13 C12 C11 120.0(2) . .
C13 C12 C14 117.9(2) . .
C21 N1 Co1 119.52(19) . .
C17 N1 Co1 122.6(2) . .
C17 N1 C21 117.8(3) . .
C15 O4 Co1 83.21(19) . 2_445
C11 C10 C15 122.0(2) . .
C9 C10 C15 118.2(2) . .
C9 C10 C11 119.8(2) . .
H2A N2 H2B 107.8 . .
C23 N2 H2A 109.0 . .
C23 N2 H2B 109.0 . .
C22 N2 H2A 109.0 . .
C22 N2 H2B 109.0 . .
C22 N2 C23 113.0(3) . .
O4 C15 C10 118.9(3) . .
O4 C15 O3 120.9(3) . 2_445
O3 C15 C10 120.2(3) 2_445 .
C7 C2 C1 120.0(3) . .
C3 C2 C1 121.2(3) . .
C3 C2 C7 118.8(3) . .
C5 C6 H6 119.2 . .
C7 C6 H6 119.2 . .
C7 C6 C5 121.6(3) . .
C6 C5 C8 120.8(2) . .
C6 C5 C4 117.7(2) . .
C4 C5 C8 121.4(2) . .
C13 C8 C5 119.3(2) . .
C13 C8 C9 118.0(2) . .
C9 C8 C5 122.6(2) . .
C12 C11 C10 119.7(2) . .
C12 C11 H11 120.2 . .
C10 C11 H11 120.2 . .
O6 C1 O5 120.7(3) . .
O6 C1 C2 120.6(3) . .
O5 C1 C2 118.7(3) . .
C12 C13 C8 121.1(2) . .
C12 C13 H13 119.5 . .
C8 C13 H13 119.5 . .
C10 C9 C8 121.4(2) . .
C10 C9 H9 119.3 . .
C8 C9 H9 119.3 . .
C2 C7 H7 120.0 . .
C6 C7 C2 120.0(3) . .
C6 C7 H7 120.0 . .
C33 N6 C34 122.1(3) . .
C33 N6 C41 112.9(3) . .
C34 N6 C41 124.7(3) . .
C42 N10 C30 123.5(3) . .
C29 N10 C42 112.1(3) . .
C29 N10 C30 123.3(3) . .
C5 C4 H4 119.6 . .
C3 C4 C5 120.8(3) . .
C3 C4 H4 119.6 . .
N1 C21 H21 118.4 . .
N1 C21 C20 123.1(3) . .
C20 C21 H21 118.4 . .
O12 C33 N6 126.4(3) . .
O12 C33 N7 125.5(4) . .
N6 C33 N7 108.1(3) . .
C26 N13 C39 123.5(3) . .
C27 N13 C39 112.8(3) . .
C27 N13 C26 122.9(3) . .
C2 C3 H3 119.5 . .
C4 C3 C2 121.0(3) . .
C4 C3 H3 119.5 . .
C38 N14 C26 123.5(3) . .
C25 N14 C38 111.9(4) . .
C25 N14 C26 122.2(3) . .
C37 N3 C38 112.4(3) . .
C37 N3 C36 123.4(3) . .
C36 N3 C38 123.7(4) . .
C33 N7 C32 122.5(3) . .
C33 N7 C42 112.3(3) . .
C32 N7 C42 124.1(3) . .
C40 N5 C34 123.6(3) . .
C35 N5 C34 121.9(3) . .
C35 N5 C40 112.2(3) . .
C29 N11 C41 111.3(3) . .
C29 N11 C28 122.1(3) . .
C28 N11 C41 123.3(3) . .
O2 C14 C12 117.1(3) . .
O1 C14 O2 123.7(3) . .
O1 C14 C12 119.2(2) . .
C37 N9 C43 112.0(4) 3_655 .
C37 N9 C30 123.2(3) 3_655 .
C30 N9 C43 123.9(3) . .
C39 N4 C36 124.4(3) . .
C35 N4 C39 112.1(3) . .
C35 N4 C36 122.2(3) . .
C27 N12 C40 112.1(3) . .
C27 N12 C28 122.9(3) . .
C28 N12 C40 124.9(3) . .
N2 C23 H23A 108.9 . .
N2 C23 H23B 108.9 . .
N2 C23 C24 113.4(3) . .
H23A C23 H23B 107.7 . .
C24 C23 H23A 108.9 . .
C24 C23 H23B 108.9 . .
N2 C22 H22A 109.3 . .
N2 C22 H22B 109.3 . .
N2 C22 C20 111.7(3) . .
H22A C22 H22B 107.9 . .
C20 C22 H22A 109.3 . .
C20 C22 H22B 109.3 . .
C32 N8 C43 123.3(3) . .
C25 N8 C32 122.8(3) 3_655 .
C25 N8 C43 112.8(3) 3_655 .
C21 C20 C22 119.6(3) . .
C19 C20 C21 118.3(3) . .
C19 C20 C22 122.2(3) . .
N6 C34 N5 113.2(3) . .
N6 C34 H34A 108.9 . .
N6 C34 H34B 108.9 . .
N5 C34 H34A 108.9 . .
N5 C34 H34B 108.9 . .
H34A C34 H34B 107.8 . .
N6 C41 N11 114.8(3) . .
N6 C41 H41 111.6 . .
N6 C41 C42 102.9(3) . .
N11 C41 H41 111.6 . .
N11 C41 C42 103.8(3) . .
C42 C41 H41 111.6 . .
N1 C17 H17 118.5 . .
N1 C17 C18 123.0(3) . .
C18 C17 H17 118.5 . .
C20 C19 H19 120.5 . .
C20 C19 C18 118.9(3) . .
C18 C19 H19 120.5 . .
N14 C38 N3 113.4(3) . .
N14 C38 H38 112.0 . .
N14 C38 C43 103.8(3) . 3_655
N3 C38 H38 112.0 . .
N3 C38 C43 103.1(3) . 3_655
C43 C38 H38 112.0 3_655 .
N13 C39 H39 111.8 . .
N13 C39 C40 103.2(3) . .
N4 C39 N13 113.8(3) . .
N4 C39 H39 111.8 . .
N4 C39 C40 103.8(3) . .
C40 C39 H39 111.8 . .
O10 C37 N3 126.3(4) . .
O10 C37 N9 125.1(4) . 3_655
N3 C37 N9 108.7(3) . 3_655
N7 C32 H32A 108.9 . .
N7 C32 H32B 108.9 . .
N8 C32 N7 113.4(3) . .
N8 C32 H32A 108.9 . .
N8 C32 H32B 108.9 . .
H32A C32 H32B 107.7 . .
N5 C40 N12 114.3(3) . .
N5 C40 C39 103.1(3) . .
N5 C40 H40 111.7 . .
N12 C40 C39 103.7(3) . .
N12 C40 H40 111.7 . .
C39 C40 H40 111.7 . .
C17 C18 C19 118.9(3) . .
C17 C18 H18 120.6 . .
C19 C18 H18 120.6 . .
N9 C43 N8 114.4(3) . .
N9 C43 C38 103.8(3) . 3_655
N9 C43 H43 111.7 . .
N8 C43 C38 102.8(3) . 3_655
N8 C43 H43 111.7 . .
C38 C43 H43 111.7 3_655 .
N13 C26 N14 113.1(3) . .
N13 C26 H26A 109.0 . .
N13 C26 H26B 109.0 . .
N14 C26 H26A 109.0 . .
N14 C26 H26B 109.0 . .
H26A C26 H26B 107.8 . .
N10 C42 C41 103.1(3) . .
N10 C42 H42 111.8 . .
N7 C42 N10 114.1(3) . .
N7 C42 C41 103.5(3) . .
N7 C42 H42 111.8 . .
C41 C42 H42 111.8 . .
O9 C25 N14 125.3(4) . .
O9 C25 N8 126.1(4) . 3_655
N8 C25 N14 108.6(3) 3_655 .
C23 C24 C24 111.3(4) . 3_455
C23 C24 H24A 109.4 . .
C23 C24 H24B 109.4 . .
C24 C24 H24A 109.4 3_455 .
C24 C24 H24B 109.4 3_455 .
H24A C24 H24B 108.0 . .
N3 C36 N4 113.5(3) . .
N3 C36 H36A 108.9 . .
N3 C36 H36B 108.9 . .
N4 C36 H36A 108.9 . .
N4 C36 H36B 108.9 . .
H36A C36 H36B 107.7 . .
N10 C30 H30A 108.7 . .
N10 C30 H30B 108.7 . .
N9 C30 N10 114.1(3) . .
N9 C30 H30A 108.7 . .
N9 C30 H30B 108.7 . .
H30A C30 H30B 107.6 . .
N11 C29 N10 109.0(3) . .
O7 C29 N10 125.1(4) . .
O7 C29 N11 125.9(4) . .
O8 C27 N13 126.0(4) . .
O8 C27 N12 125.8(4) . .
N13 C27 N12 108.2(3) . .
N11 C28 N12 113.8(4) . .
N11 C28 H28A 108.8 . .
N11 C28 H28B 108.8 . .
N12 C28 H28A 108.8 . .
N12 C28 H28B 108.8 . .
H28A C28 H28B 107.7 . .
N5 C35 N4 108.6(3) . .
O11 C35 N5 126.1(3) . .
O11 C35 N4 125.3(4) . .
C15 O3 Co1 97.74(19) 2_455 .
loop_
_geom_bond_atom_site_label_1
_geom_bond_atom_site_label_2
_geom_bond_distance
_geom_bond_site_symmetry_2
Co1 O6 2.389(2) 1_455
Co1 O5 2.043(2) 1_455
Co1 O2 2.000(2) .
Co1 N1 2.072(2) .
Co1 O4 2.392(3) 2_455
Co1 O3 2.073(2) .
O6 C1 1.254(4) .
O5 C1 1.263(4) .
O12 C33 1.213(4) .
O2 C14 1.260(3) .
C12 C11 1.387(4) .
C12 C13 1.385(4) .
C12 C14 1.503(4) .
N1 C21 1.338(4) .
N1 C17 1.333(4) .
O4 C15 1.244(4) .
O9 C25 1.221(4) .
C10 C15 1.510(4) .
C10 C11 1.392(4) .
C10 C9 1.382(4) .
N2 H2A 0.8900 .
N2 H2B 0.8900 .
N2 C23 1.491(4) .
N2 C22 1.487(4) .
C15 O3 1.252(4) 2_445
C2 C1 1.494(4) .
C2 C7 1.386(4) .
C2 C3 1.386(4) .
C6 H6 0.9300 .
C6 C5 1.387(4) .
C6 C7 1.379(4) .
C5 C8 1.487(4) .
C5 C4 1.398(4) .
O10 C37 1.223(5) .
C8 C13 1.394(4) .
C8 C9 1.395(4) .
C11 H11 0.9300 .
C13 H13 0.9300 .
O1 C14 1.239(4) .
C9 H9 0.9300 .
C7 H7 0.9300 .
O8 C27 1.212(4) .
N6 C33 1.356(5) .
N6 C34 1.441(5) .
N6 C41 1.444(4) .
N10 C42 1.445(4) .
N10 C30 1.452(6) .
N10 C29 1.368(6) .
C4 H4 0.9300 .
C4 C3 1.370(4) .
C21 H21 0.9300 .
C21 C20 1.384(4) .
C33 N7 1.370(5) .
N13 C39 1.458(5) .
N13 C26 1.442(5) .
N13 C27 1.361(5) .
C3 H3 0.9300 .
N14 C38 1.442(5) .
N14 C26 1.451(6) .
N14 C25 1.374(5) .
N3 C38 1.458(4) .
N3 C37 1.358(6) .
N3 C36 1.423(5) .
N7 C32 1.439(5) .
N7 C42 1.442(5) .
N5 C34 1.453(5) .
N5 C40 1.445(5) .
N5 C35 1.361(5) .
N11 C41 1.452(4) .
N11 C29 1.361(5) .
N11 C28 1.437(6) .
N9 C37 1.382(5) 3_655
N9 C43 1.442(5) .
N9 C30 1.431(6) .
O7 C29 1.228(4) .
N4 C39 1.433(5) .
N4 C36 1.452(5) .
N4 C35 1.367(5) .
N12 C40 1.453(5) .
N12 C27 1.383(5) .
N12 C28 1.446(6) .
C23 H23A 0.9700 .
C23 H23B 0.9700 .
C23 C24 1.501(5) .
C22 H22A 0.9700 .
C22 H22B 0.9700 .
C22 C20 1.510(4) .
N8 C32 1.438(5) .
N8 C43 1.448(4) .
N8 C25 1.356(5) 3_655
C20 C19 1.375(5) .
C34 H34A 0.9700 .
C34 H34B 0.9700 .
C41 H41 0.9800 .
C41 C42 1.544(6) .
C17 H17 0.9300 .
C17 C18 1.369(5) .
C19 H19 0.9300 .
C19 C18 1.390(5) .
C38 H38 0.9800 .
C38 C43 1.551(6) 3_655
C39 H39 0.9800 .
C39 C40 1.545(6) .
C32 H32A 0.9700 .
C32 H32B 0.9700 .
C40 H40 0.9800 .
C18 H18 0.9300 .
C43 H43 0.9800 .
C26 H26A 0.9700 .
C26 H26B 0.9700 .
C42 H42 0.9800 .
C24 C24 1.521(6) 3_455
C24 H24A 0.9700 .
C24 H24B 0.9700 .
C36 H36A 0.9700 .
C36 H36B 0.9700 .
C30 H30A 0.9700 .
C30 H30B 0.9700 .
C28 H28A 0.9700 .
C28 H28B 0.9700 .
C35 O11 1.217(4) .
loop_
_geom_torsion_atom_site_label_1
_geom_torsion_atom_site_label_2
_geom_torsion_atom_site_label_3
_geom_torsion_atom_site_label_4
_geom_torsion
_geom_torsion_site_symmetry_1
_geom_torsion_site_symmetry_4
Co1 O6 C1 O5 -2.1(3) 1_655 .
Co1 O6 C1 C2 175.4(3) 1_655 .
Co1 O5 C1 O6 2.5(3) 1_655 .
Co1 O5 C1 C2 -175.1(2) 1_655 .
Co1 O2 C14 C12 -172.85(19) . .
Co1 O2 C14 O1 7.6(4) . .
Co1 N1 C21 C20 177.1(2) . .
Co1 N1 C17 C18 -177.6(3) . .
Co1 O4 C15 C10 170.5(2) 2_445 .
Co1 O4 C15 O3 -6.9(3) 2_445 2_445
O12 C33 N7 C32 10.8(5) . .
O12 C33 N7 C42 179.1(3) . .
N1 C21 C20 C22 179.9(3) . .
N1 C21 C20 C19 -0.2(5) . .
N1 C17 C18 C19 1.4(6) . .
N2 C23 C24 C24 -177.7(4) . 3_455
N2 C22 C20 C21 65.4(4) . .
N2 C22 C20 C19 -114.4(4) . .
C15 C10 C11 C12 -179.0(3) . .
C15 C10 C9 C8 -179.3(3) . .
C6 C5 C8 C13 -27.7(4) . .
C6 C5 C8 C9 153.0(3) . .
C6 C5 C4 C3 1.8(4) . .
C5 C6 C7 C2 1.5(5) . .
C5 C8 C13 C12 -179.2(2) . .
C5 C8 C9 C10 178.0(3) . .
C5 C4 C3 C2 0.8(4) . .
C8 C5 C4 C3 -175.5(3) . .
C11 C12 C13 C8 1.5(4) . .
C11 C12 C14 O2 14.2(4) . .
C11 C12 C14 O1 -166.2(3) . .
C11 C10 C15 O4 122.0(3) . .
C11 C10 C15 O3 -60.5(4) . 2_445
C11 C10 C9 C8 0.8(4) . .
C1 C2 C7 C6 -178.2(3) . .
C1 C2 C3 C4 177.1(3) . .
C13 C12 C11 C10 -2.1(4) . .
C13 C12 C14 O2 -164.7(3) . .
C13 C12 C14 O1 15.0(4) . .
C13 C8 C9 C10 -1.3(4) . .
C9 C10 C15 O4 -57.9(4) . .
C9 C10 C15 O3 119.5(3) . 2_445
C9 C10 C11 C12 1.0(4) . .
C9 C8 C13 C12 0.2(4) . .
C7 C2 C1 O6 22.7(4) . .
C7 C2 C1 O5 -159.7(3) . .
C7 C2 C3 C4 -2.3(4) . .
C7 C6 C5 C8 174.3(3) . .
C7 C6 C5 C4 -3.0(4) . .
N6 C33 N7 C32 -167.7(3) . .
N6 C33 N7 C42 0.5(4) . .
N6 C41 C42 N10 -123.4(3) . .
N6 C41 C42 N7 -4.2(3) . .
C4 C5 C8 C13 149.5(3) . .
C4 C5 C8 C9 -29.8(4) . .
C21 N1 C17 C18 0.1(5) . .
C21 C20 C19 C18 1.7(5) . .
C33 N6 C34 N5 93.6(4) . .
C33 N6 C41 N11 -107.2(4) . .
C33 N6 C41 C42 4.9(4) . .
C33 N7 C32 N8 -107.1(4) . .
C33 N7 C42 N10 113.7(4) . .
C33 N7 C42 C41 2.4(4) . .
N13 C39 C40 N5 116.3(3) . .
N13 C39 C40 N12 -3.2(4) . .
C3 C2 C1 O6 -156.7(3) . .
C3 C2 C1 O5 20.9(4) . .
C3 C2 C7 C6 1.1(4) . .
N11 C41 C42 N10 -3.4(3) . .
N11 C41 C42 N7 115.8(3) . .
C14 C12 C11 C10 179.1(3) . .
C14 C12 C13 C8 -179.6(2) . .
N4 C39 C40 N5 -2.7(4) . .
N4 C39 C40 N12 -122.2(3) . .
C23 N2 C22 C20 -173.6(3) . .
C22 N2 C23 C24 176.8(3) . .
C22 C20 C19 C18 -178.5(3) . .
C20 C19 C18 C17 -2.3(6) . .
C34 N6 C33 O12 3.5(5) . .
C34 N6 C33 N7 -178.0(3) . .
C34 N6 C41 N11 67.0(5) . .
C34 N6 C41 C42 179.1(3) . .
C34 N5 C40 N12 -81.5(4) . .
C34 N5 C40 C39 166.7(3) . .
C34 N5 C35 N4 -166.7(3) . .
C34 N5 C35 O11 12.9(5) . .
C41 N6 C33 O12 177.9(3) . .
C41 N6 C33 N7 -3.6(4) . .
C41 N6 C34 N5 -80.1(4) . .
C41 N11 C29 N10 -8.3(4) . .
C41 N11 C29 O7 172.6(4) . .
C41 N11 C28 N12 95.8(4) . .
C17 N1 C21 C20 -0.7(5) . .
C38 N14 C26 N13 -91.5(4) . .
C38 N14 C25 O9 -177.9(3) . .
C38 N14 C25 N8 2.9(4) . 3_655
C38 N3 C37 O10 179.0(3) . .
C38 N3 C37 N9 -1.4(4) . 3_655
C38 N3 C36 N4 82.5(4) . .
C39 N13 C26 N14 82.6(5) . .
C39 N13 C27 O8 176.6(4) . .
C39 N13 C27 N12 -2.3(5) . .
C39 N4 C36 N3 -90.7(5) . .
C39 N4 C35 N5 1.6(4) . .
C39 N4 C35 O11 -178.0(3) . .
C37 N3 C38 N14 111.8(4) . .
C37 N3 C38 C43 0.3(4) . 3_655
C37 N3 C36 N4 -105.8(4) . .
C37 N9 C43 N8 113.0(4) 3_655 .
C37 N9 C43 C38 1.7(4) 3_655 3_655
C37 N9 C30 N10 -106.9(4) 3_655 .
C32 N7 C42 N10 -78.2(4) . .
C32 N7 C42 C41 170.5(3) . .
C32 N8 C43 N9 80.0(4) . .
C32 N8 C43 C38 -168.2(3) . 3_655
C40 N5 C34 N6 96.4(4) . .
C40 N5 C35 N4 -3.6(4) . .
C40 N5 C35 O11 176.0(3) . .
C40 N12 C27 O8 -179.0(4) . .
C40 N12 C27 N13 0.0(5) . .
C40 N12 C28 N11 -79.7(5) . .
C43 N9 C30 N10 85.1(5) . .
C43 N8 C32 N7 -87.6(4) . .
C26 N13 C39 N4 -74.8(5) . .
C26 N13 C39 C40 173.3(4) . .
C26 N13 C27 O8 6.7(7) . .
C26 N13 C27 N12 -172.2(4) . .
C26 N14 C38 N3 83.3(5) . .
C26 N14 C38 C43 -165.5(3) . 3_655
C26 N14 C25 O9 -15.1(5) . .
C26 N14 C25 N8 165.8(3) . 3_655
C42 N10 C30 N9 -86.8(4) . .
C42 N10 C29 N11 5.9(4) . .
C42 N10 C29 O7 -175.0(4) . .
C42 N7 C32 N8 86.1(4) . .
C25 N14 C38 N3 -114.0(4) . .
C25 N14 C38 C43 -2.9(4) . 3_655
C25 N14 C26 N13 107.6(4) . .
C25 N8 C32 N7 105.1(4) 3_655 .
C25 N8 C43 N9 -111.7(4) 3_655 .
C25 N8 C43 C38 0.2(4) 3_655 3_655
C36 N3 C38 N14 -75.7(5) . .
C36 N3 C38 C43 172.7(3) . 3_655
C36 N3 C37 O10 6.6(6) . .
C36 N3 C37 N9 -173.8(3) . 3_655
C36 N4 C39 N13 82.4(4) . .
C36 N4 C39 C40 -166.2(3) . .
C36 N4 C35 N5 168.9(3) . .
C36 N4 C35 O11 -10.7(5) . .
C30 N10 C42 N7 78.9(4) . .
C30 N10 C42 C41 -169.5(3) . .
C30 N10 C29 N11 174.1(3) . .
C30 N10 C29 O7 -6.8(6) . .
C30 N9 C43 N8 -77.8(4) . .
C30 N9 C43 C38 170.9(3) . 3_655
C29 N10 C42 N7 -112.8(4) . .
C29 N10 C42 C41 -1.3(4) . .
C29 N10 C30 N9 106.3(4) . .
C29 N11 C41 N6 118.8(4) . .
C29 N11 C41 C42 7.2(4) . .
C29 N11 C28 N12 -106.4(4) . .
C27 N13 C39 N4 115.4(4) . .
C27 N13 C39 C40 3.5(4) . .
C27 N13 C26 N14 -108.6(4) . .
C27 N12 C40 N5 -109.3(4) . .
C27 N12 C40 C39 2.1(5) . .
C27 N12 C28 N11 95.2(5) . .
C28 N11 C41 N6 -81.3(5) . .
C28 N11 C41 C42 167.1(3) . .
C28 N11 C29 N10 -168.5(3) . .
C28 N11 C29 O7 12.4(6) . .
C28 N12 C40 N5 66.1(5) . .
C28 N12 C40 C39 177.5(4) . .
C28 N12 C27 O8 5.5(7) . .
C28 N12 C27 N13 -175.5(4) . .
C35 N5 C34 N6 -102.5(4) . .
C35 N5 C40 N12 115.7(4) . .
C35 N5 C40 C39 4.0(4) . .
C35 N4 C39 N13 -110.7(4) . .
C35 N4 C39 C40 0.8(4) . .
C35 N4 C36 N3 103.6(4) . .
loop_
_platon_squeeze_void_nr
_platon_squeeze_void_average_x
_platon_squeeze_void_average_y
_platon_squeeze_void_average_z
_platon_squeeze_void_volume
_platon_squeeze_void_count_electrons
_platon_squeeze_void_content
1 0.184 0.017 0.184 1529 409 ' '
