#------------------------------------------------------------------------------
#$Date: 2019-11-19 04:58:33 +0200 (Tue, 19 Nov 2019) $
#$Revision: 231022 $
#$URL: file:///home/coder/svn-repositories/cod/cif/7/70/19/7701976.cif $
#------------------------------------------------------------------------------
#
# This file is available in the Crystallography Open Database (COD),
# http://www.crystallography.net/
#
# All data on this site have been placed in the public domain by the
# contributors.
#
data_7701976
loop_
_publ_author_name
'Wang, Xue-Zhi'
'Sun, Meng-Ying'
'Zheng, Ji'
'Luo, Dong'
'Li, Qi'
'Zhou, Xiao-Ping'
'Li, Dan'
_publ_section_title
;
 Coordination-Driven Self-Assembly of M10L8 Metal-Organic Bi-capped Square
 Antiprisms with Adaptable Cavity
;
_journal_name_full               'Dalton Transactions'
_journal_paper_doi               10.1039/C9DT04368C
_journal_year                    2019
_chemical_formula_moiety         'C88 H96 Cl Cu10 N48'
_chemical_formula_sum            'C88 H96 Cl Cu10 N48'
_chemical_formula_weight         2496.97
_space_group_crystal_system      tetragonal
_space_group_IT_number           85
_space_group_name_Hall           '-P 4a'
_space_group_name_H-M_alt        'P 4/n :2'
_atom_sites_solution_hydrogens   geom
_atom_sites_solution_primary     dual
_audit_block_doi                 10.5517/ccdc.csd.cc20ncfh
_audit_creation_date             2018-12-19
_audit_creation_method
;
Olex2 1.2
(compiled 2018.05.29 svn.r3508 for OlexSys, GUI svn.r5506)
;
_audit_update_record
;
2019-10-06 deposited with the CCDC.	2019-11-18 downloaded from the CCDC.
;
_cell_angle_alpha                90
_cell_angle_beta                 90
_cell_angle_gamma                90
_cell_formula_units_Z            2
_cell_length_a                   19.3296(3)
_cell_length_b                   19.3296(3)
_cell_length_c                   14.3057(4)
_cell_measurement_reflns_used    2010
_cell_measurement_temperature    100.00(11)
_cell_measurement_theta_max      57.8460
_cell_measurement_theta_min      3.2060
_cell_volume                     5345.09(19)
_computing_cell_refinement       'CrysAlisPro 1.171.39.33c (Rigaku OD, 2017)'
_computing_data_collection       'CrysAlisPro 1.171.39.33c (Rigaku OD, 2017)'
_computing_data_reduction        'CrysAlisPro 1.171.39.33c (Rigaku OD, 2017)'
_computing_molecular_graphics    'Olex2 (Dolomanov et al., 2009)'
_computing_publication_material  'Olex2 (Dolomanov et al., 2009)'
_computing_structure_refinement  'ShelXL (Sheldrick, 2015)'
_computing_structure_solution    'ShelXT (Sheldrick, 2015)'
_diffrn_ambient_environment      N~2~
_diffrn_ambient_temperature      100.00(11)
_diffrn_detector                 'CCD plate'
_diffrn_measured_fraction_theta_full 0.996
_diffrn_measured_fraction_theta_max 0.962
_diffrn_measurement_details
;
List of Runs (angles in degrees, time in seconds):

  # Type    Start    End  Width  t~exp~   \w     \q     \k     \f   Frames
#--------------------------------------------------------------------------
  1  \w      4.00  45.00   0.50   28.00    --    0.00  77.00-124.00   82
  2  \w    100.00 192.00   0.50   10.00    --  102.90  45.00  51.00  184
  3  \w     35.00  64.00   0.50   10.00    --  102.90 -77.00 110.00   58
  4  \w      3.00  39.00   0.50   28.00    --    0.00  82.00  90.00   72
  5  \w    -34.00  -5.00   0.50   28.00    --    0.00  82.00  90.00   58
  6  \w    103.00 129.00   0.50   10.00    --  102.90 -57.00 120.00   52
  7  \w     17.00  91.00   0.50   10.00    --  102.90 -57.00 120.00  148
  8  \w     81.00 182.00   0.50   10.00    --  102.90  38.00  90.00  202
;
_diffrn_measurement_device       'four-circle diffractometer'
_diffrn_measurement_device_type  'XtaLAB AFC12 (RINC): Kappa single'
_diffrn_measurement_method       '\w scans'
_diffrn_orient_matrix_type
'CrysAlisPro convention (1999,Acta A55,543-557)'
_diffrn_orient_matrix_UB_11      0.0163551000
_diffrn_orient_matrix_UB_12      0.0664054000
_diffrn_orient_matrix_UB_13      0.0552888000
_diffrn_orient_matrix_UB_21      0.0771811000
_diffrn_orient_matrix_UB_22      -0.0077184000
_diffrn_orient_matrix_UB_23      -0.0247618000
_diffrn_orient_matrix_UB_31      -0.0112595000
_diffrn_orient_matrix_UB_32      0.0433746000
_diffrn_orient_matrix_UB_33      -0.0890559000
_diffrn_radiation_monochromator  mirror
_diffrn_radiation_probe          x-ray
_diffrn_radiation_type           CuK\a
_diffrn_radiation_wavelength     1.54184
_diffrn_reflns_av_R_equivalents  0.0773
_diffrn_reflns_av_unetI/netI     0.0821
_diffrn_reflns_Laue_measured_fraction_full 0.996
_diffrn_reflns_Laue_measured_fraction_max 0.962
_diffrn_reflns_limit_h_max       20
_diffrn_reflns_limit_h_min       -24
_diffrn_reflns_limit_k_max       18
_diffrn_reflns_limit_k_min       -21
_diffrn_reflns_limit_l_max       11
_diffrn_reflns_limit_l_min       -17
_diffrn_reflns_number            16694
_diffrn_reflns_point_group_measured_fraction_full 0.996
_diffrn_reflns_point_group_measured_fraction_max 0.962
_diffrn_reflns_theta_full        67.684
_diffrn_reflns_theta_max         76.583
_diffrn_reflns_theta_min         3.089
_diffrn_source                   'Rotating-anode X-ray tube (dual wavelength)'
_diffrn_source_type              'Rigaku (Cu) X-ray DW Source'
_exptl_absorpt_coefficient_mu    2.889
_exptl_absorpt_correction_T_max  1.00000
_exptl_absorpt_correction_T_min  0.94634
_exptl_absorpt_correction_type   multi-scan
_exptl_absorpt_process_details
;
CrysAlisPro 1.171.39.33c (Rigaku Oxford Diffraction, 2017)
Empirical absorption correction using spherical harmonics,
 implemented in SCALE3 ABSPACK scaling algorithm.
;
_exptl_crystal_colour            'clear light green'
_exptl_crystal_colour_lustre     clear
_exptl_crystal_colour_modifier   light
_exptl_crystal_colour_primary    green
_exptl_crystal_density_diffrn    1.551
_exptl_crystal_description       plate
_exptl_crystal_F_000             2534
_exptl_crystal_size_max          0.01
_exptl_crystal_size_mid          0.01
_exptl_crystal_size_min          0.01
_refine_diff_density_max         1.555
_refine_diff_density_min         -0.687
_refine_diff_density_rms         0.104
_refine_ls_extinction_method     none
_refine_ls_goodness_of_fit_ref   1.026
_refine_ls_hydrogen_treatment    constr
_refine_ls_matrix_type           full
_refine_ls_number_parameters     334
_refine_ls_number_reflns         5431
_refine_ls_number_restraints     0
_refine_ls_restrained_S_all      1.026
_refine_ls_R_factor_all          0.1277
_refine_ls_R_factor_gt           0.0658
_refine_ls_shift/su_max          0.001
_refine_ls_shift/su_mean         0.000
_refine_ls_structure_factor_coef Fsqd
_refine_ls_weighting_details
'w=1/[\s^2^(Fo^2^)+(0.0996P)^2^] where P=(Fo^2^+2Fc^2^)/3'
_refine_ls_weighting_scheme      calc
_refine_ls_wR_factor_gt          0.1606
_refine_ls_wR_factor_ref         0.1922
_reflns_Friedel_coverage         0.000
_reflns_number_gt                2990
_reflns_number_total             5431
_reflns_threshold_expression     'I > 2\s(I)'
_cod_data_source_file            c9dt04368c2.cif
_cod_data_source_block           cage4
_cod_original_cell_volume        5345.1(2)
_cod_original_sg_symbol_H-M      'P 4/n'
_cod_database_code               7701976
_shelx_shelxl_version_number     2017/1
_chemical_oxdiff_formula         CNHCuClO
_shelx_space_group_comment
;
The symmetry employed for this shelxl refinement is uniquely defined
by the following loop, which should always be used as a source of
symmetry information in preference to the above space-group names.
They are only intended as comments.
;
_shelx_estimated_absorpt_t_max   0.972
_shelx_estimated_absorpt_t_min   0.972
_reflns_odcompleteness_completeness 99.62
_reflns_odcompleteness_iscentric 1
_reflns_odcompleteness_theta     66.97
_olex2_refinement_description
;
1. Fixed Uiso
 At 1.2 times of:
  All C(H) groups, All C(H,H) groups
2.a Secondary CH2 refined with riding coordinates:
 C16(H16a,H16b), C5(H5a,H5b), C7(H7a,H7b), C6(H6a,H6b), C18(H18a,H18b),
 C17(H17a,H17b)
2.b Aromatic/amide H refined with riding coordinates:
 C22(H22), C4(H4), C11(H11), C13(H13), C2(H2), C10(H10), C12(H12), C15(H15),
 C1(H1), C8(H8), C19(H19), C21(H21)
;
_shelx_res_file
;
TITL 180628a_a.res in P4/n
    180628a_sq.res
    created by SHELXL-2017/1 at 22:38:37 on 25-Jul-2018
REM Old TITL 180628a in P4/n
REM SHELXT solution in P4/n
REM R1 0.177, Rweak 0.017, Alpha 0.035, Orientation as input
REM Formula found by SHELXT: C104 N41 Cl Cu10
CELL 1.54184 19.3296 19.3296 14.3057 90 90 90
ZERR 2 0.0003 0.0003 0.0004 0 0 0
LATT 1
SYMM 0.5-X,0.5-Y,+Z
SYMM 0.5-Y,+X,+Z
SYMM +Y,0.5-X,+Z
SFAC C H Cl Cu N
UNIT 176 192 2 20 96

L.S. 5 0 39
PLAN  1
SIZE 0.01 0.01 0.01
BOND $H
list 4
ABIN
fmap 2 53
acta
REM <olex2.extras>
REM <HklSrc "%.\\180628a_sq.hkl">
REM </olex2.extras>

WGHT    0.099600
FVAR       0.22580
CU3   4    0.603762    0.470393    0.608139    11.00000    0.03786    0.03392 =
         0.03836   -0.00490   -0.00531   -0.00141
CU4   4    0.450572    0.658544    0.896327    11.00000    0.03150    0.03566 =
         0.03868    0.00673    0.00335    0.00031
CU1   4    0.750000    0.750000    0.557669    10.25000    0.03460    0.03460 =
         0.04636    0.00000    0.00000    0.00000
CU2   4    0.750000    0.750000    0.939743    10.25000    0.03384    0.03384 =
         0.05470    0.00000    0.00000    0.00000
CL05  3    0.750000    0.750000    0.747432    10.25000    0.04189    0.04189 =
         0.03597    0.00000    0.00000    0.00000
N9    5    0.346529    0.650742    0.889926    11.00000    0.03388    0.03537 =
         0.04316    0.00927   -0.00048    0.00160
N11   5    0.547507    0.681157    0.928661    11.00000    0.03507    0.03299 =
         0.04526    0.00781    0.00010   -0.00003
N8    5    0.433579    0.732059    0.802645    11.00000    0.03037    0.03541 =
         0.03595    0.00673    0.00321   -0.00097
N7    5    0.421994    0.815065    0.692991    11.00000    0.03967    0.03368 =
         0.03576    0.00728   -0.00203    0.00191
N1    5    0.710552    0.655606    0.543279    11.00000    0.03446    0.04063 =
         0.04360   -0.00624    0.00404    0.00337
N3    5    0.637980    0.441479    0.480758    11.00000    0.04374    0.03451 =
         0.03836   -0.00753   -0.00711    0.00253
N2    5    0.653908    0.557955    0.575046    11.00000    0.03668    0.03358 =
         0.03810   -0.00626   -0.00170    0.00057
N5    5    0.544720    0.511626    0.708003    11.00000    0.03903    0.03079 =
         0.03745   -0.00030   -0.00381    0.00052
N6    5    0.476347    0.572863    0.804474    11.00000    0.03488    0.04016 =
         0.03709    0.00405    0.00042    0.00107
N4    5    0.522556    0.406166    0.595636    11.00000    0.04872    0.03721 =
         0.04127   -0.01108   -0.00628   -0.00535
N10   5    0.454465    0.607915    1.019229    11.00000    0.03577    0.04801 =
         0.03964    0.02280    0.00075   -0.00219
N12   5    0.659915    0.701719    0.953010    11.00000    0.03522    0.04018 =
         0.05040    0.00596   -0.00192    0.00375
C14   1    0.364892    0.734683    0.776753    11.00000    0.03739    0.03492 =
         0.03409    0.00085    0.00652    0.00205
C22   1    0.603815    0.713684    0.898150    11.00000    0.02882    0.03291 =
         0.04220    0.00374    0.00482   -0.00701
AFIX  43
H22   2    0.604669    0.741525    0.845142    11.00000   -1.20000
AFIX   0
C4    1    0.671637    0.488993    0.438244    11.00000    0.04326    0.04530 =
         0.03928   -0.00930    0.00083   -0.00046
AFIX  43
H4    2    0.688650    0.482190    0.378134    11.00000   -1.20000
AFIX   0
C11   1    0.538948    0.564205    0.766372    11.00000    0.03665    0.03794 =
         0.03776    0.00022   -0.00153   -0.00012
AFIX  43
H11   2    0.575920    0.593273    0.780082    11.00000   -1.20000
AFIX   0
C13   1    0.358377    0.786034    0.709719    11.00000    0.03011    0.04708 =
         0.04265    0.00048   -0.00407    0.00093
AFIX  43
H13   2    0.317305    0.798829    0.680607    11.00000   -1.20000
AFIX   0
C2    1    0.671691    0.620692    0.604593    11.00000    0.04215    0.03438 =
         0.04185   -0.00339    0.00801   -0.00309
AFIX  43
H2    2    0.658416    0.638550    0.662232    11.00000   -1.20000
AFIX   0
C9    1    0.478949    0.483164    0.707919    11.00000    0.03760    0.03130 =
         0.03708    0.00400   -0.00671   -0.00611
C3    1    0.682184    0.553067    0.486558    11.00000    0.03460    0.03384 =
         0.04552   -0.00611   -0.00292   -0.00071
C10   1    0.438200    0.520237    0.766633    11.00000    0.03332    0.04216 =
         0.04111    0.00398   -0.00033   -0.00015
AFIX  43
H10   2    0.391835    0.511325    0.779144    11.00000   -1.20000
AFIX   0
C12   1    0.465225    0.780603    0.751260    11.00000    0.03691    0.03847 =
         0.02993    0.00107    0.00341   -0.00215
AFIX  43
H12   2    0.512365    0.789777    0.755199    11.00000   -1.20000
AFIX   0
C15   1    0.320338    0.688581    0.824811    11.00000    0.03310    0.04496 =
         0.04794   -0.00031    0.00442   -0.00481
AFIX  43
H15   2    0.273614    0.685735    0.809790    11.00000   -1.20000
AFIX   0
C16   1    0.303568    0.604013    0.945663    11.00000    0.02919    0.05460 =
         0.06015    0.01257    0.01791   -0.00196
AFIX  23
H16A  2    0.269719    0.582394    0.905012    11.00000   -1.20000
H16B  2    0.278570    0.630968    0.991816    11.00000   -1.20000
AFIX   0
C1    1    0.716359    0.613328    0.467050    11.00000    0.03763    0.04562 =
         0.04333   -0.00083    0.00353   -0.00240
AFIX  43
H1    2    0.739443    0.623702    0.411761    11.00000   -1.20000
AFIX   0
C8    1    0.470762    0.424117    0.648009    11.00000    0.04552    0.05356 =
         0.04409    0.00134   -0.01164   -0.00909
AFIX  43
H8    2    0.429480    0.399423    0.646778    11.00000   -1.20000
AFIX   0
C20   1    0.568410    0.646367    1.008118    11.00000    0.03455    0.04592 =
         0.05091    0.01353    0.00077   -0.00672
C5    1    0.623114    0.374976    0.436204    11.00000    0.05994    0.03800 =
         0.03965   -0.00875   -0.00758    0.00245
AFIX  23
H5A   2    0.648093    0.338703    0.468705    11.00000   -1.20000
H5B   2    0.639444    0.376084    0.372107    11.00000   -1.20000
AFIX   0
C7    1    0.518362    0.346013    0.535371    11.00000    0.05645    0.04473 =
         0.05832   -0.01344   -0.00130   -0.01196
AFIX  23
H7A   2    0.470345    0.331904    0.530400    11.00000   -1.20000
H7B   2    0.543747    0.308301    0.564085    11.00000   -1.20000
AFIX   0
C6    1    0.547077    0.358308    0.436858    11.00000    0.05948    0.03693 =
         0.04980   -0.00788   -0.01417    0.00218
AFIX  23
H6A   2    0.539211    0.317249    0.399352    11.00000   -1.20000
H6B   2    0.521947    0.396195    0.408153    11.00000   -1.20000
AFIX   0
C19   1    0.515231    0.607750    1.056121    11.00000    0.04192    0.05851 =
         0.04971    0.02448   -0.00341    0.00223
AFIX  43
H19   2    0.524447    0.583857    1.111156    11.00000   -1.20000
AFIX   0
C21   1    0.637352    0.658671    1.020840    11.00000    0.03808    0.05610 =
         0.05497    0.01533   -0.00793   -0.00686
AFIX  43
H21   2    0.664414    0.640347    1.068549    11.00000   -1.20000
AFIX   0
C18   1    0.397409    0.571126    1.064344    11.00000    0.04019    0.07125 =
         0.05364    0.03358    0.00022   -0.01040
AFIX  23
H18A  2    0.375895    0.601266    1.110104    11.00000   -1.20000
H18B  2    0.415515    0.531102    1.097122    11.00000   -1.20000
AFIX   0
C17   1    0.344039    0.547979    0.995374    11.00000    0.05208    0.06465 =
         0.07856    0.02071    0.01967   -0.00760
AFIX  23
H17A  2    0.311375    0.518373    1.027767    11.00000   -1.20000
H17B  2    0.366883    0.519902    0.948410    11.00000   -1.20000
AFIX   0
HKLF 4




REM  180628a_a.res in P4/n
REM R1 =  0.0658 for    2990 Fo > 4sig(Fo)  and  0.1277 for all    5431 data
REM    334 parameters refined using      0 restraints

END

WGHT      0.0995      0.0000

REM Highest difference peak  1.555,  deepest hole -0.687,  1-sigma level  0.104
Q1    1   0.7500  0.7500  1.0144  10.25000  0.05    1.56
;
_shelx_res_checksum              31263
_shelx_fab_file
;
    1    1    0    -79.85      0.00
    2    2    0    -84.84      0.00
   -1    3    0    -23.86      0.00
    1    3    0    -20.58      0.00
    3    3    0     17.74      0.00
   -2    4    0     37.38      0.00
    0    4    0     69.47      0.00
    2    4    0     -7.56      0.00
    4    4    0     50.07      0.00
   -3    5    0      3.66      0.00
   -1    5    0     18.81      0.00
    1    5    0     17.14      0.00
    3    5    0     20.68      0.00
    5    5    0    -29.06      0.00
   -4    6    0    -54.95      0.00
   -2    6    0     -3.21      0.00
    0    6    0    -39.61      0.00
    2    6    0      1.62      0.00
    4    6    0    -12.22      0.00
    6    6    0      4.31      0.00
   -5    7    0    -17.14      0.00
   -3    7    0      0.68      0.00
   -1    7    0    -22.09      0.00
    1    7    0     -6.30      0.00
    3    7    0    -13.24      0.00
    5    7    0      5.57      0.00
    7    7    0      2.57      0.00
   -6    8    0     11.81      0.00
   -4    8    0     21.17      0.00
   -2    8    0     13.04      0.00
    0    8    0      7.49      0.00
    2    8    0      7.90      0.00
    4    8    0      2.56      0.00
    6    8    0     -3.09      0.00
    8    8    0      4.92      0.00
   -7    9    0      6.19      0.00
   -5    9    0      7.05      0.00
   -3    9    0      2.39      0.00
   -1    9    0     17.11      0.00
    1    9    0      2.38      0.00
    3    9    0      8.33      0.00
    5    9    0     -3.40      0.00
    7    9    0      8.05      0.00
    9    9    0     -9.55      0.00
   -8   10    0     -7.89      0.00
   -6   10    0     -7.89      0.00
   -4   10    0    -16.88      0.00
   -2   10    0      1.03      0.00
    0   10    0    -16.86      0.00
    2   10    0      8.62      0.00
    4   10    0    -10.38      0.00
    6   10    0      4.22      0.00
    8   10    0     -9.37      0.00
   10   10    0      8.87      0.00
   -9   11    0    -10.13      0.00
   -7   11    0     -3.43      0.00
   -5   11    0     -9.07      0.00
   -3   11    0     -1.14      0.00
   -1   11    0    -15.36      0.00
    1   11    0      1.46      0.00
    3   11    0     -7.71      0.00
    5   11    0     -0.77      0.00
    7   11    0     -3.45      0.00
    9   11    0      1.13      0.00
   11   11    0     -2.03      0.00
  -10   12    0     -3.48      0.00
   -8   12    0      6.81      0.00
   -6   12    0      4.66      0.00
   -4   12    0     12.01      0.00
   -2   12    0     -1.38      0.00
    0   12    0      8.26      0.00
    2   12    0     -3.35      0.00
    4   12    0      3.18      0.00
    6   12    0      3.84      0.00
    8   12    0      0.99      0.00
   10   12    0     -0.16      0.00
   12   12    0     -3.09      0.00
  -11   13    0      4.57      0.00
   -9   13    0      1.41      0.00
   -7   13    0      6.24      0.00
   -5   13    0      6.86      0.00
   -3   13    0      7.19      0.00
   -1   13    0      7.19      0.00
    1   13    0      1.63      0.00
    3   13    0      5.74      0.00
    5   13    0     -0.41      0.00
    7   13    0      5.40      0.00
    9   13    0      0.64      0.00
   11   13    0      1.32      0.00
   13   13    0     -0.29      0.00
  -12   14    0      3.05      0.00
  -10   14    0     -0.20      0.00
   -8   14    0     -5.65      0.00
   -6   14    0     -1.98      0.00
   -4   14    0     -5.18      0.00
   -2   14    0     -1.55      0.00
    0   14    0      0.50      0.00
    2   14    0     -0.73      0.00
    4   14    0     -2.26      0.00
    8   14    0      0.04      0.00
   10   14    0      0.74      0.00
   12   14    0     -2.05      0.00
   14   14    0      1.75      0.00
  -13   15    0      1.21      0.00
  -11   15    0     -2.61      0.00
   -9   15    0     -3.85      0.00
   -7   15    0      0.54      0.00
   -5   15    0    -11.32      0.00
   -3   15    0     -5.40      0.00
   -1   15    0     -7.24      0.00
    1   15    0      0.82      0.00
    3   15    0     -4.65      0.00
    5   15    0      1.13      0.00
    7   15    0     -2.57      0.00
    9   15    0     -3.86      0.00
   11   15    0      1.76      0.00
   13   15    0      2.18      0.00
   15   15    0     -0.52      0.00
  -14   16    0     -4.91      0.00
  -12   16    0      2.77      0.00
  -10   16    0     -1.60      0.00
   -8   16    0      9.31      0.00
   -6   16    0     -6.91      0.00
   -4   16    0      6.29      0.00
   -2   16    0     -5.48      0.00
    0   16    0      5.59      0.00
    2   16    0     -5.87      0.00
    4   16    0      6.54      0.00
    6   16    0     -5.19      0.00
    8   16    0     -0.62      0.00
   10   16    0      0.38      0.00
   12   16    0      1.74      0.00
   14   16    0     -1.01      0.00
   16   16    0      2.15      0.00
  -15   17    0     -3.75      0.00
  -13   17    0      4.11      0.00
  -11   17    0     -1.43      0.00
   -9   17    0      2.27      0.00
   -7   17    0      2.49      0.00
   -5   17    0      4.94      0.00
   -3   17    0      8.99      0.00
   -1   17    0      2.60      0.00
    1   17    0      1.01      0.00
    3   17    0      0.64      0.00
    5   17    0     -1.28      0.00
    7   17    0      0.89      0.00
    9   17    0      0.74      0.00
   11   17    0     -0.83      0.00
   13   17    0     -2.14      0.00
   15   17    0      2.75      0.00
   17   17    0     -2.55      0.00
  -14   18    0      5.04      0.00
  -12   18    0     -4.10      0.00
  -10   18    0     -0.46      0.00
   -8   18    0     -3.47      0.00
   -6   18    0      3.15      0.00
   -4   18    0      1.44      0.00
   -2   18    0      2.50      0.00
    0   18    0     -2.21      0.00
    2   18    0      1.42      0.00
    4   18    0     -0.33      0.00
    6   18    0      2.70      0.00
    8   18    0     -0.34      0.00
   10   18    0      0.43      0.00
   12   18    0     -0.42      0.00
   14   18    0      1.77      0.00
   16   18    0     -1.89      0.00
  -13   19    0     -3.83      0.00
  -11   19    0     -0.62      0.00
   -9   19    0      1.14      0.00
   -7   19    0     -5.06      0.00
   -5   19    0     -1.15      0.00
   -3   19    0     -3.95      0.00
   -1   19    0     -6.07      0.00
    1   19    0      2.19      0.00
    3   19    0     -0.02      0.00
    5   19    0      0.29      0.00
    7   19    0      0.22      0.00
    9   19    0      2.31      0.00
   11   19    0      0.51      0.00
   13   19    0     -1.09      0.00
   15   19    0     -1.44      0.00
  -12   20    0      4.07      0.00
  -10   20    0     -0.38      0.00
   -8   20    0     -1.65      0.00
   -6   20    0      1.31      0.00
   -4   20    0     -3.43      0.00
   -2   20    0     -3.46      0.00
    0   20    0      3.42      0.00
    2   20    0     -3.53      0.00
    4   20    0     -1.22      0.00
    6   20    0     -0.01      0.00
    8   20    0      1.61      0.00
   10   20    0     -1.33      0.00
  -11   21    0     -0.87      0.00
   -9   21    0      1.52      0.00
   -7   21    0      1.43      0.00
   -5   21    0     -0.03      0.00
   -3   21    0      2.05      0.00
   -1   21    0      2.78      0.00
    1   21    0      0.25      0.00
    3   21    0     -0.20      0.00
    5   21    0      1.13      0.00
    7   21    0     -0.72      0.00
    9   21    0     -3.11      0.00
   -8   22    0      0.30      0.00
   -6   22    0      1.80      0.00
   -4   22    0     -1.43      0.00
   -2   22    0      1.85      0.00
    0   22    0      2.05      0.00
    2   22    0      2.16      0.00
    4   22    0      1.93      0.00
    6   22    0     -0.83      0.00
   -3   23    0     -1.20      0.00
   -1   23    0      0.78      0.00
    1   23    0     -2.56      0.00
    0    0    1     17.12      0.00
    1    1    1    -13.16      0.00
   -1    2    1      2.30      0.00
    1    2    1     34.98      0.00
    2    2    1    -24.12      0.00
   -2    3    1    -52.65      0.00
   -1    3    1     -0.11      0.00
    0    3    1    -67.04      0.00
    1    3    1      0.90      0.00
    2    3    1    -45.85      0.00
    3    3    1      6.86      0.00
   -3    4    1     -7.82      0.00
   -2    4    1     12.52      0.00
   -1    4    1    -29.52      0.00
    0    4    1      3.64      0.00
    1    4    1      2.31      0.00
    2    4    1      7.03      0.00
    3    4    1    -39.22      0.00
    4    4    1     -1.13      0.00
   -4    5    1     47.15      0.00
   -3    5    1     -0.29      0.00
   -2    5    1     31.99      0.00
   -1    5    1      6.41      0.00
    0    5    1     30.45      0.00
    1    5    1     -9.36      0.00
    2    5    1      8.98      0.00
    3    5    1      3.24      0.00
    4    5    1     25.64      0.00
    5    5    1     -5.11      0.00
   -5    6    1     29.54      0.00
   -4    6    1     -0.93      0.00
   -3    6    1    -12.07      0.00
   -2    6    1     -7.69      0.00
   -1    6    1     33.28      0.00
    0    6    1     -1.28      0.00
    1    6    1      5.80      0.00
    2    6    1     -6.50      0.00
    3    6    1     14.78      0.00
    4    6    1      4.86      0.00
    5    6    1     -5.26      0.00
    6    6    1     -3.00      0.00
   -6    7    1     -6.56      0.00
   -5    7    1     -1.32      0.00
   -4    7    1    -32.92      0.00
   -3    7    1     -1.09      0.00
   -2    7    1     -9.32      0.00
   -1    7    1     -0.69      0.00
    0    7    1    -21.63      0.00
    1    7    1      1.37      0.00
    2    7    1      1.50      0.00
    3    7    1      4.07      0.00
    4    7    1    -10.26      0.00
    5    7    1     -2.69      0.00
    6    7    1      2.63      0.00
    7    7    1      3.84      0.00
   -7    8    1     -6.13      0.00
   -6    8    1      4.44      0.00
   -5    8    1     -7.83      0.00
   -4    8    1     -1.43      0.00
   -3    8    1     -6.66      0.00
   -2    8    1      6.11      0.00
   -1    8    1     -9.54      0.00
    0    8    1     -0.15      0.00
    1    8    1    -15.62      0.00
    2    8    1      4.16      0.00
    3    8    1     -2.28      0.00
    4    8    1     -2.47      0.00
    5    8    1      0.26      0.00
    6    8    1      0.58      0.00
    7    8    1     -3.82      0.00
    8    8    1     -1.67      0.00
   -8    9    1      4.80      0.00
   -7    9    1      3.01      0.00
   -6    9    1     11.92      0.00
   -5    9    1     -0.72      0.00
   -4    9    1     16.68      0.00
   -3    9    1      1.34      0.00
   -2    9    1      4.44      0.00
   -1    9    1     -0.63      0.00
    0    9    1     12.87      0.00
    1    9    1      0.10      0.00
    2    9    1     -0.82      0.00
    3    9    1     -2.07      0.00
    4    9    1      5.30      0.00
    5    9    1     -0.20      0.00
    6    9    1     -3.02      0.00
    7    9    1      0.18      0.00
    8    9    1      8.74      0.00
    9    9    1     -1.17      0.00
   -9   10    1      9.90      0.00
   -8   10    1      0.44      0.00
   -7   10    1      4.60      0.00
   -6   10    1     -2.09      0.00
   -5   10    1      8.01      0.00
   -4   10    1     -0.37      0.00
   -3   10    1      1.30      0.00
   -2   10    1     -1.77      0.00
   -1   10    1     17.73      0.00
    0   10    1     -1.91      0.00
    1   10    1     -3.60      0.00
    2   10    1     -1.00      0.00
    3   10    1     12.80      0.00
    4   10    1      0.00      0.00
    5   10    1     -4.47      0.00
    6   10    1      0.71      0.00
    7   10    1      7.94      0.00
    8   10    1     -0.04      0.00
    9   10    1     -6.97      0.00
   10   10    1     -0.07      0.00
  -10   11    1      7.41      0.00
   -9   11    1     -0.83      0.00
   -8   11    1     -7.51      0.00
   -7   11    1     -1.72      0.00
   -6   11    1     -6.57      0.00
   -5   11    1      0.41      0.00
   -4   11    1    -13.77      0.00
   -3   11    1      0.01      0.00
   -2   11    1      0.54      0.00
   -1   11    1     -0.61      0.00
    0   11    1    -10.27      0.00
    1   11    1     -0.53      0.00
    2   11    1      3.61      0.00
    3   11    1      1.69      0.00
    4   11    1     -4.08      0.00
    5   11    1     -1.24      0.00
    6   11    1     -2.68      0.00
    7   11    1      1.36      0.00
    8   11    1     -3.29      0.00
    9   11    1     -0.62      0.00
   10   11    1      2.21      0.00
   11   11    1      0.99      0.00
  -11   12    1     -2.21      0.00
  -10   12    1      1.79      0.00
   -9   12    1     -6.16      0.00
   -8   12    1     -2.58      0.00
   -7   12    1     -3.72      0.00
   -6   12    1      3.94      0.00
   -5   12    1     -9.26      0.00
   -4   12    1     -1.98      0.00
   -3   12    1     -2.82      0.00
   -2   12    1      2.33      0.00
   -1   12    1    -12.44      0.00
    0   12    1      0.08      0.00
    1   12    1      0.72      0.00
    2   12    1      1.75      0.00
    3   12    1     -6.04      0.00
    4   12    1     -1.50      0.00
    5   12    1     -2.86      0.00
    6   12    1      1.31      0.00
    7   12    1     -1.68      0.00
    8   12    1     -0.98      0.00
    9   12    1     -2.46      0.00
   10   12    1      1.01      0.00
   11   12    1      0.37      0.00
   12   12    1     -0.76      0.00
  -12   13    1     -4.00      0.00
  -11   13    1      1.40      0.00
  -10   13    1      1.45      0.00
   -9   13    1      0.40      0.00
   -8   13    1      2.99      0.00
   -7   13    1      1.21      0.00
   -6   13    1      5.35      0.00
   -5   13    1     -1.22      0.00
   -4   13    1      6.81      0.00
   -3   13    1      1.52      0.00
   -2   13    1      1.93      0.00
   -1   13    1     -0.26      0.00
    0   13    1      2.29      0.00
    1   13    1      1.56      0.00
    2   13    1     -2.14      0.00
    3   13    1     -1.48      0.00
    4   13    1      4.85      0.00
    5   13    1      1.69      0.00
    6   13    1     -0.04      0.00
    7   13    1     -1.54      0.00
    8   13    1      2.42      0.00
    9   13    1      0.83      0.00
   10   13    1     -1.57      0.00
   11   13    1      0.13      0.00
   12   13    1     -0.11      0.00
   13   13    1     -0.58      0.00
  -13   14    1     -0.85      0.00
  -12   14    1      2.16      0.00
  -11   14    1      3.18      0.00
  -10   14    1     -3.18      0.00
   -9   14    1      2.52      0.00
   -8   14    1      2.48      0.00
   -7   14    1      3.70      0.00
   -6   14    1     -2.98      0.00
   -5   14    1      7.91      0.00
   -4   14    1      2.46      0.00
   -3   14    1      8.25      0.00
   -2   14    1     -2.48      0.00
   -1   14    1      3.74      0.00
    0   14    1      1.37      0.00
    1   14    1      4.39      0.00
    2   14    1     -1.35      0.00
    3   14    1      1.66      0.00
    4   14    1      0.73      0.00
    5   14    1      1.81      0.00
    6   14    1     -0.25      0.00
    7   14    1      3.20      0.00
    8   14    1      0.34      0.00
    9   14    1      2.64      0.00
   10   14    1     -0.96      0.00
   11   14    1      0.76      0.00
   12   14    1      0.29      0.00
   13   14    1     -3.20      0.00
   14   14    1     -0.78      0.00
  -14   15    1      1.18      0.00
  -13   15    1     -1.01      0.00
  -12   15    1      2.71      0.00
  -11   15    1     -0.33      0.00
  -10   15    1     -0.75      0.00
   -9   15    1     -1.69      0.00
   -8   15    1     -7.72      0.00
   -7   15    1      0.96      0.00
   -6   15    1      3.22      0.00
   -5   15    1     -0.77      0.00
   -4   15    1     -5.70      0.00
   -3   15    1     -0.29      0.00
   -2   15    1      2.07      0.00
   -1   15    1     -0.58      0.00
    0   15    1     -2.69      0.00
    1   15    1     -1.36      0.00
    2   15    1      3.12      0.00
    3   15    1      1.15      0.00
    4   15    1     -4.32      0.00
    5   15    1     -0.40      0.00
    6   15    1      1.42      0.00
    7   15    1     -0.24      0.00
    8   15    1      2.46      0.00
    9   15    1      0.23      0.00
   10   15    1     -1.94      0.00
   11   15    1     -0.13      0.00
   12   15    1     -0.44      0.00
   13   15    1     -0.23      0.00
   14   15    1      0.15      0.00
   15   15    1      0.40      0.00
  -15   16    1      2.81      0.00
  -14   16    1      0.19      0.00
  -13   16    1     -2.79      0.00
  -12   16    1     -0.36      0.00
  -11   16    1      0.75      0.00
  -10   16    1      0.64      0.00
   -9   16    1     -4.54      0.00
   -8   16    1     -0.26      0.00
   -7   16    1      2.21      0.00
   -6   16    1      1.27      0.00
   -5   16    1    -12.31      0.00
   -4   16    1     -2.43      0.00
   -3   16    1     -3.22      0.00
   -2   16    1      1.98      0.00
   -1   16    1     -8.21      0.00
    0   16    1     -2.47      0.00
    1   16    1      3.63      0.00
    2   16    1      2.62      0.00
    3   16    1     -6.38      0.00
    4   16    1     -2.41      0.00
    5   16    1      4.19      0.00
    6   16    1      1.23      0.00
    7   16    1     -3.69      0.00
    8   16    1     -0.73      0.00
    9   16    1     -1.64      0.00
   10   16    1      0.37      0.00
   11   16    1      0.84      0.00
   12   16    1     -0.59      0.00
   13   16    1      2.24      0.00
   14   16    1      0.58      0.00
   15   16    1     -1.00      0.00
   16   16    1     -0.65      0.00
  -16   17    1      1.96      0.00
  -15   17    1      0.11      0.00
  -14   17    1     -4.61      0.00
  -13   17    1      1.02      0.00
  -12   17    1      3.40      0.00
  -11   17    1     -0.32      0.00
  -10   17    1      0.59      0.00
   -9   17    1      1.78      0.00
   -8   17    1      3.87      0.00
   -7   17    1     -1.15      0.00
   -6   17    1     -1.49      0.00
   -5   17    1      1.30      0.00
   -4   17    1     -1.99      0.00
   -3   17    1     -0.26      0.00
   -2   17    1     -0.06      0.00
   -1   17    1      0.62      0.00
    0   17    1      0.48      0.00
    1   17    1      1.03      0.00
    2   17    1     -1.04      0.00
    3   17    1     -1.54      0.00
    4   17    1      1.73      0.00
    5   17    1      0.36      0.00
    6   17    1     -2.86      0.00
    7   17    1      0.13      0.00
    8   17    1     -1.15      0.00
    9   17    1     -0.65      0.00
   10   17    1      0.37      0.00
   11   17    1      0.25      0.00
   12   17    1      1.49      0.00
   13   17    1     -0.15      0.00
   14   17    1     -1.82      0.00
   15   17    1     -0.27      0.00
   16   17    1      2.23      0.00
   17   17    1     -0.16      0.00
  -16   18    1      0.16      0.00
  -15   18    1     -3.72      0.00
  -14   18    1      0.01      0.00
  -13   18    1      3.58      0.00
  -12   18    1      0.51      0.00
  -11   18    1     -0.45      0.00
  -10   18    1     -1.81      0.00
   -9   18    1      1.86      0.00
   -8   18    1      2.60      0.00
   -7   18    1      1.53      0.00
   -6   18    1     -2.21      0.00
   -5   18    1      4.47      0.00
   -4   18    1      2.41      0.00
   -3   18    1      5.87      0.00
   -2   18    1     -0.81      0.00
   -1   18    1      3.85      0.00
    0   18    1      1.62      0.00
    1   18    1      0.10      0.00
    2   18    1     -1.93      0.00
    3   18    1     -0.38      0.00
    4   18    1      1.90      0.00
    5   18    1     -0.52      0.00
    6   18    1     -0.76      0.00
    7   18    1      0.30      0.00
    8   18    1      0.16      0.00
    9   18    1     -0.91      0.00
   10   18    1      1.05      0.00
   11   18    1     -0.43      0.00
   12   18    1      0.06      0.00
   13   18    1     -0.43      0.00
   14   18    1      0.30      0.00
   15   18    1      2.41      0.00
   16   18    1     -0.06      0.00
  -15   19    1     -0.11      0.00
  -14   19    1      3.59      0.00
  -13   19    1     -0.64      0.00
  -12   19    1     -2.95      0.00
  -11   19    1     -0.10      0.00
  -10   19    1     -2.52      0.00
   -9   19    1     -0.02      0.00
   -8   19    1      1.45      0.00
   -7   19    1     -0.66      0.00
   -6   19    1     -0.39      0.00
   -5   19    1     -0.70      0.00
   -4   19    1      2.83      0.00
   -3   19    1      1.03      0.00
   -2   19    1      3.69      0.00
   -1   19    1     -1.69      0.00
    0   19    1     -3.48      0.00
    1   19    1      1.36      0.00
    2   19    1      2.30      0.00
    3   19    1     -0.02      0.00
    4   19    1      0.94      0.00
    5   19    1      0.36      0.00
    6   19    1      0.94      0.00
    7   19    1     -0.01      0.00
    8   19    1     -1.09      0.00
    9   19    1      1.09      0.00
   10   19    1      0.75      0.00
   11   19    1     -0.17      0.00
   12   19    1      0.91      0.00
   13   19    1      0.21      0.00
   14   19    1      0.60      0.00
   15   19    1      0.76      0.00
  -13   20    1     -3.25      0.00
  -12   20    1     -0.05      0.00
  -11   20    1      0.81      0.00
  -10   20    1      1.03      0.00
   -9   20    1     -0.43      0.00
   -8   20    1     -2.43      0.00
   -7   20    1     -4.32      0.00
   -6   20    1      1.63      0.00
   -5   20    1      1.56      0.00
   -4   20    1     -1.76      0.00
   -3   20    1     -3.45      0.00
   -2   20    1      0.56      0.00
   -1   20    1     -4.79      0.00
    0   20    1     -0.58      0.00
    1   20    1      1.56      0.00
    2   20    1      0.59      0.00
    3   20    1     -0.09      0.00
    4   20    1     -0.99      0.00
    5   20    1     -0.92      0.00
    6   20    1      0.75      0.00
    7   20    1      1.03      0.00
    8   20    1     -0.48      0.00
    9   20    1      2.27      0.00
   10   20    1     -0.90      0.00
   11   20    1     -0.11      0.00
   12   20    1     -0.36      0.00
   13   20    1     -1.51      0.00
  -12   21    1      2.14      0.00
  -11   21    1     -0.47      0.00
  -10   21    1     -1.11      0.00
   -9   21    1      0.39      0.00
   -8   21    1     -0.57      0.00
   -7   21    1      0.78      0.00
   -6   21    1     -0.08      0.00
   -5   21    1     -0.39      0.00
   -4   21    1     -1.56      0.00
   -3   21    1      1.15      0.00
   -2   21    1     -2.10      0.00
   -1   21    1     -1.04      0.00
    0   21    1      0.05      0.00
    1   21    1      0.05      0.00
    2   21    1     -2.48      0.00
    3   21    1     -0.82      0.00
    4   21    1     -1.53      0.00
    5   21    1      0.36      0.00
    6   21    1      0.45      0.00
    7   21    1     -0.35      0.00
    8   21    1      2.33      0.00
    9   21    1     -1.50      0.00
   10   21    1     -2.26      0.00
   11   21    1      0.42      0.00
   12   21    1      0.43      0.00
  -10   22    1     -0.13      0.00
   -9   22    1      0.94      0.00
   -8   22    1      0.70      0.00
   -7   22    1     -0.76      0.00
   -6   22    1     -0.33      0.00
   -5   22    1      1.81      0.00
   -4   22    1      1.44      0.00
   -3   22    1     -0.46      0.00
   -2   22    1     -2.13      0.00
   -1   22    1      1.90      0.00
    0   22    1      1.96      0.00
    1   22    1      1.29      0.00
    2   22    1     -1.30      0.00
    3   22    1      0.52      0.00
    4   22    1      1.12      0.00
    5   22    1      1.12      0.00
    6   22    1     -0.91      0.00
    7   22    1     -0.38      0.00
    8   22    1      0.55      0.00
    9   22    1     -2.38      0.00
   10   22    1      0.70      0.00
   -7   23    1     -1.53      0.00
   -6   23    1     -0.08      0.00
   -5   23    1      0.47      0.00
   -4   23    1     -0.61      0.00
   -3   23    1     -1.45      0.00
   -2   23    1     -0.34      0.00
   -1   23    1      1.89      0.00
    0   23    1      4.41      0.00
    1   23    1     -0.93      0.00
    2   23    1      1.90      0.00
    3   23    1      0.81      0.00
    4   23    1      1.62      0.00
    5   23    1      0.16      0.00
    6   23    1     -1.66      0.00
    7   23    1      0.23      0.00
    8   23    1      0.05      0.00
   -4   24    1     -0.02      0.00
   -3   24    1     -0.97      0.00
   -2   24    1     -0.05      0.00
   -1   24    1      0.44      0.00
    0   24    1      0.02      0.00
    1   24    1     -1.23      0.00
    2   24    1      0.05      0.00
    3   24    1     -2.42      0.00
    4   24    1      0.20      0.00
    0    0    2   -233.43      0.00
    0    1    2     25.08      0.00
    1    1    2     72.89      0.00
   -1    2    2    -12.40      0.00
    0    2    2     43.25      0.00
    1    2    2     13.03      0.00
    2    2    2     87.33      0.00
   -2    3    2    -26.61      0.00
   -1    3    2     28.42      0.00
    0    3    2     -1.84      0.00
    1    3    2     13.17      0.00
    2    3    2    -24.00      0.00
    3    3    2     -5.70      0.00
   -3    4    2     -9.69      0.00
   -2    4    2    -44.61      0.00
   -1    4    2     -2.44      0.00
    1    4    2      7.27      0.00
    2    4    2     -6.94      0.00
    3    4    2      1.54      0.00
    4    4    2    -34.16      0.00
   -4    5    2      5.80      0.00
   -3    5    2     -2.34      0.00
   -2    5    2      9.47      0.00
   -1    5    2    -15.72      0.00
    0    5    2     13.77      0.00
    1    5    2    -18.90      0.00
    2    5    2      0.58      0.00
    3    5    2    -20.96      0.00
    4    5    2      4.20      0.00
    5    5    2     23.16      0.00
   -5    6    2      3.91      0.00
   -4    6    2     40.77      0.00
   -3    6    2      4.61      0.00
   -2    6    2     11.39      0.00
   -1    6    2      0.00      0.00
    0    6    2     23.03      0.00
    1    6    2     -1.77      0.00
    2    6    2      6.34      0.00
    3    6    2     -6.68      0.00
    4    6    2      6.12      0.00
    5    6    2      3.59      0.00
    6    6    2      1.04      0.00
   -6    7    2     -5.38      0.00
   -5    7    2     15.15      0.00
   -4    7    2     -2.39      0.00
   -3    7    2     -2.18      0.00
   -2    7    2     -8.35      0.00
   -1    7    2     21.90      0.00
    0    7    2     -3.52      0.00
    1    7    2      6.06      0.00
    2    7    2     -8.11      0.00
    3    7    2     15.51      0.00
    4    7    2      7.73      0.00
    5    7    2     -3.87      0.00
    6    7    2     -6.39      0.00
    7    7    2     -2.31      0.00
   -7    8    2     -8.14      0.00
   -6    8    2    -12.68      0.00
   -5    8    2      2.06      0.00
   -4    8    2    -15.97      0.00
   -3    8    2     -5.31      0.00
   -2    8    2    -15.06      0.00
   -1    8    2      2.98      0.00
    0    8    2     -1.74      0.00
    1    8    2     -0.98      0.00
    2    8    2    -10.55      0.00
    3    8    2      5.00      0.00
    4    8    2      0.16      0.00
    5    8    2     -1.55      0.00
    6    8    2     -0.30      0.00
    7    8    2      2.24      0.00
    8    8    2     -3.07      0.00
   -8    9    2     -1.65      0.00
   -7    9    2     -7.46      0.00
   -6    9    2      5.55      0.00
   -5    9    2     -5.08      0.00
   -4    9    2     -0.61      0.00
   -3    9    2     -4.36      0.00
   -2    9    2      6.96      0.00
   -1    9    2    -13.80      0.00
    0    9    2      0.90      0.00
    1    9    2     -6.14      0.00
    2    9    2      5.10      0.00
    3    9    2     -5.92      0.00
    4    9    2     -1.94      0.00
    5    9    2     -1.30      0.00
    6    9    2     -0.89      0.00
    7    9    2     -4.72      0.00
    8    9    2      0.70      0.00
    9    9    2      6.14      0.00
   -9   10    2      2.40      0.00
   -8   10    2      4.02      0.00
   -7   10    2      3.84      0.00
   -6   10    2     10.91      0.00
   -5   10    2     -0.27      0.00
   -4   10    2     11.68      0.00
   -3   10    2      0.53      0.00
   -2   10    2      3.10      0.00
   -1   10    2      1.06      0.00
    0   10    2     11.00      0.00
    1   10    2     -0.78      0.00
    2   10    2     -5.39      0.00
    3   10    2     -1.17      0.00
    4   10    2      7.83      0.00
    5   10    2     -0.43      0.00
    6   10    2     -1.85      0.00
    7   10    2     -0.04      0.00
    8   10    2      7.30      0.00
    9   10    2     -0.46      0.00
   10   10    2     -5.35      0.00
  -10   11    2     -1.29      0.00
   -9   11    2      8.94      0.00
   -8   11    2      2.05      0.00
   -7   11    2      3.94      0.00
   -6   11    2     -3.86      0.00
   -5   11    2      8.64      0.00
   -4   11    2     -0.62      0.00
   -3   11    2      2.55      0.00
   -2   11    2     -2.40      0.00
   -1   11    2     12.44      0.00
    0   11    2     -2.31      0.00
    1   11    2      1.42      0.00
    2   11    2     -2.63      0.00
    3   11    2      5.49      0.00
    4   11    2      1.89      0.00
    5   11    2      3.75      0.00
    6   11    2     -1.66      0.00
    7   11    2      1.46      0.00
    8   11    2      1.64      0.00
    9   11    2      0.39      0.00
   10   11    2     -1.87      0.00
   11   11    2      2.30      0.00
  -11   12    2     -2.82      0.00
  -10   12    2      0.63      0.00
   -9   12    2      0.38      0.00
   -8   12    2     -4.13      0.00
   -7   12    2     -5.28      0.00
   -6   12    2     -5.89      0.00
   -5   12    2      3.30      0.00
   -4   12    2     -9.68      0.00
   -3   12    2     -2.36      0.00
   -2   12    2     -0.15      0.00
   -1   12    2     -0.30      0.00
    0   12    2     -6.47      0.00
    1   12    2     -1.69      0.00
    2   12    2      3.76      0.00
    3   12    2      2.37      0.00
    4   12    2     -3.42      0.00
    5   12    2     -3.14      0.00
    6   12    2     -4.25      0.00
    7   12    2      2.77      0.00
    8   12    2     -0.10      0.00
    9   12    2     -1.67      0.00
   10   12    2     -1.29      0.00
   11   12    2      1.33      0.00
   12   12    2      4.34      0.00
  -12   13    2     -1.79      0.00
  -11   13    2     -3.18      0.00
  -10   13    2      2.70      0.00
   -9   13    2     -2.80      0.00
   -8   13    2     -2.22      0.00
   -7   13    2     -4.03      0.00
   -6   13    2      4.09      0.00
   -5   13    2     -9.28      0.00
   -4   13    2     -2.50      0.00
   -3   13    2     -5.62      0.00
   -2   13    2      3.95      0.00
   -1   13    2     -6.25      0.00
    0   13    2     -0.92      0.00
    1   13    2     -2.18      0.00
    2   13    2      2.55      0.00
    3   13    2     -5.04      0.00
    4   13    2     -2.66      0.00
    5   13    2     -0.86      0.00
    6   13    2      2.68      0.00
    7   13    2     -4.31      0.00
    8   13    2     -1.87      0.00
    9   13    2     -1.50      0.00
   10   13    2      1.50      0.00
   11   13    2     -1.65      0.00
   12   13    2      1.05      0.00
   13   13    2      0.73      0.00
  -13   14    2     -0.54      0.00
  -12   14    2     -4.33      0.00
  -11   14    2      5.25      0.00
  -10   14    2      3.28      0.00
   -9   14    2     -1.45      0.00
   -8   14    2      1.84      0.00
   -7   14    2      2.81      0.00
   -6   14    2      4.55      0.00
   -5   14    2     -1.86      0.00
   -4   14    2      1.80      0.00
   -3   14    2      3.05      0.00
   -2   14    2      4.66      0.00
   -1   14    2     -0.82      0.00
    0   14    2     -3.40      0.00
    1   14    2      2.78      0.00
    2   14    2      2.23      0.00
    3   14    2     -0.99      0.00
    4   14    2      0.81      0.00
    5   14    2      0.82      0.00
    6   14    2      1.93      0.00
    7   14    2     -0.38      0.00
    8   14    2     -1.29      0.00
    9   14    2      1.26      0.00
   10   14    2      0.53      0.00
   11   14    2     -0.70      0.00
   12   14    2      0.60      0.00
   13   14    2      0.65      0.00
   14   14    2     -0.54      0.00
  -14   15    2      0.10      0.00
  -13   15    2     -0.76      0.00
  -12   15    2      0.52      0.00
  -11   15    2      1.75      0.00
  -10   15    2     -1.06      0.00
   -9   15    2      4.77      0.00
   -8   15    2     -0.38      0.00
   -7   15    2     -2.10      0.00
   -6   15    2     -0.89      0.00
   -5   15    2     12.42      0.00
   -4   15    2      1.53      0.00
   -3   15    2      3.99      0.00
   -2   15    2     -1.83      0.00
   -1   15    2      6.21      0.00
    0   15    2      2.31      0.00
    1   15    2     -0.61      0.00
    2   15    2     -2.56      0.00
    3   15    2      4.39      0.00
    4   15    2      2.26      0.00
    5   15    2     -0.13      0.00
    6   15    2     -0.35      0.00
    7   15    2      1.82      0.00
    8   15    2     -0.37      0.00
    9   15    2      4.61      0.00
   10   15    2     -0.35      0.00
   11   15    2     -1.44      0.00
   12   15    2      0.27      0.00
   13   15    2     -1.78      0.00
   14   15    2     -1.47      0.00
   15   15    2      0.21      0.00
  -15   16    2     -1.21      0.00
  -14   16    2      2.73      0.00
  -13   16    2     -1.16      0.00
  -12   16    2      0.46      0.00
  -11   16    2     -0.68      0.00
  -10   16    2     -2.76      0.00
   -9   16    2     -2.84      0.00
   -8   16    2     -4.18      0.00
   -7   16    2      0.98      0.00
   -6   16    2      2.87      0.00
   -5   16    2     -0.13      0.00
   -4   16    2     -2.63      0.00
   -3   16    2     -1.97      0.00
   -2   16    2      2.05      0.00
   -1   16    2      0.50      0.00
    0   16    2     -3.03      0.00
    1   16    2     -3.20      0.00
    2   16    2      4.65      0.00
    3   16    2      3.11      0.00
    4   16    2     -5.97      0.00
    5   16    2     -2.01      0.00
    6   16    2      3.99      0.00
    7   16    2      0.86      0.00
    8   16    2      1.28      0.00
    9   16    2     -0.70      0.00
   10   16    2     -1.26      0.00
   11   16    2      0.41      0.00
   12   16    2     -0.74      0.00
   13   16    2     -0.87      0.00
   14   16    2      0.07      0.00
   15   16    2      1.12      0.00
   16   16    2     -1.04      0.00
  -16   17    2     -0.50      0.00
  -15   17    2      2.27      0.00
  -14   17    2     -0.34      0.00
  -13   17    2     -2.96      0.00
  -12   17    2      0.29      0.00
  -11   17    2      1.01      0.00
  -10   17    2      0.14      0.00
   -9   17    2     -2.95      0.00
   -8   17    2      0.66      0.00
   -7   17    2     -0.24      0.00
   -6   17    2     -0.64      0.00
   -5   17    2     -6.75      0.00
   -4   17    2     -0.95      0.00
   -3   17    2     -5.48      0.00
   -2   17    2     -0.22      0.00
   -1   17    2     -4.15      0.00
    0   17    2     -2.39      0.00
    1   17    2      0.69      0.00
    2   17    2      2.82      0.00
    3   17    2     -2.52      0.00
    4   17    2     -2.81      0.00
    5   17    2      2.05      0.00
    6   17    2      0.86      0.00
    7   17    2     -2.14      0.00
    8   17    2     -0.12      0.00
    9   17    2     -0.36      0.00
   10   17    2     -0.99      0.00
   11   17    2     -0.25      0.00
   12   17    2     -0.28      0.00
   13   17    2      1.64      0.00
   14   17    2      0.07      0.00
   15   17    2     -1.82      0.00
   16   17    2     -0.20      0.00
   17   17    2      1.13      0.00
  -16   18    2      1.19      0.00
  -15   18    2      0.63      0.00
  -14   18    2     -2.84      0.00
  -13   18    2      0.51      0.00
  -12   18    2      1.05      0.00
  -11   18    2      1.79      0.00
  -10   18    2      3.14      0.00
   -9   18    2     -1.27      0.00
   -8   18    2      0.67      0.00
   -7   18    2      2.81      0.00
   -6   18    2      0.07      0.00
   -5   18    2     -1.10      0.00
   -4   18    2     -4.15      0.00
   -3   18    2      0.56      0.00
   -2   18    2      0.59      0.00
   -1   18    2      0.54      0.00
    0   18    2     -0.70      0.00
    1   18    2      1.23      0.00
    2   18    2      1.14      0.00
    3   18    2     -2.63      0.00
    4   18    2     -1.75      0.00
    5   18    2      1.15      0.00
    6   18    2     -0.06      0.00
    7   18    2     -0.29      0.00
    8   18    2     -0.95      0.00
    9   18    2     -1.46      0.00
   10   18    2      0.16      0.00
   11   18    2      0.89      0.00
   12   18    2      0.48      0.00
   13   18    2     -0.70      0.00
   14   18    2     -1.18      0.00
   15   18    2     -0.18      0.00
   16   18    2      1.50      0.00
  -14   19    2      0.45      0.00
  -13   19    2      2.74      0.00
  -12   19    2     -0.54      0.00
  -11   19    2      0.39      0.00
  -10   19    2     -0.87      0.00
   -9   19    2      0.52      0.00
   -8   19    2      2.27      0.00
   -7   19    2      2.37      0.00
   -6   19    2     -0.65      0.00
   -5   19    2      1.82      0.00
   -4   19    2      0.85      0.00
   -3   19    2      2.56      0.00
   -2   19    2      1.88      0.00
   -1   19    2      5.52      0.00
    0   19    2     -0.42      0.00
    1   19    2     -1.24      0.00
    2   19    2     -0.09      0.00
    3   19    2     -0.02      0.00
    4   19    2      1.02      0.00
    5   19    2      0.53      0.00
    6   19    2     -0.88      0.00
    7   19    2     -0.10      0.00
    8   19    2      0.57      0.00
    9   19    2     -1.61      0.00
   10   19    2      1.72      0.00
   11   19    2      0.20      0.00
   12   19    2      0.54      0.00
   13   19    2      1.46      0.00
   14   19    2     -0.33      0.00
  -13   20    2     -0.71      0.00
  -12   20    2     -1.81      0.00
  -11   20    2     -0.80      0.00
  -10   20    2     -1.44      0.00
   -9   20    2      1.58      0.00
   -8   20    2      2.58      0.00
   -7   20    2     -3.19      0.00
   -6   20    2     -3.47      0.00
   -5   20    2      1.34      0.00
   -4   20    2      5.22      0.00
   -3   20    2     -0.78      0.00
   -2   20    2      1.01      0.00
   -1   20    2      0.09      0.00
    0   20    2     -0.44      0.00
    1   20    2      0.78      0.00
    2   20    2      0.95      0.00
    3   20    2      0.67      0.00
    4   20    2      2.46      0.00
    5   20    2     -0.32      0.00
    6   20    2     -1.46      0.00
    7   20    2      0.72      0.00
    8   20    2     -0.83      0.00
    9   20    2      1.75      0.00
   10   20    2      0.69      0.00
   11   20    2     -0.06      0.00
   12   20    2      1.09      0.00
   13   20    2      0.38      0.00
  -11   21    2      0.24      0.00
  -10   21    2     -1.03      0.00
   -9   21    2     -1.38      0.00
   -8   21    2     -0.96      0.00
   -7   21    2     -0.76      0.00
   -6   21    2      0.47      0.00
   -5   21    2      0.40      0.00
   -4   21    2     -2.22      0.00
   -3   21    2     -0.68      0.00
   -2   21    2      1.73      0.00
   -1   21    2     -3.55      0.00
    0   21    2     -1.50      0.00
    1   21    2      0.24      0.00
    2   21    2      0.77      0.00
    3   21    2     -1.40      0.00
    4   21    2     -1.09      0.00
    5   21    2     -0.03      0.00
    6   21    2      1.04      0.00
    7   21    2     -0.69      0.00
    8   21    2      0.06      0.00
    9   21    2      2.79      0.00
   10   21    2     -2.55      0.00
   11   21    2     -1.76      0.00
   -9   22    2      0.15      0.00
   -8   22    2     -0.21      0.00
   -7   22    2      0.80      0.00
   -6   22    2     -0.81      0.00
   -5   22    2     -0.27      0.00
   -4   22    2      1.45      0.00
   -3   22    2      2.65      0.00
   -2   22    2     -2.78      0.00
   -1   22    2     -3.53      0.00
    0   22    2     -1.35      0.00
    1   22    2      1.36      0.00
    2   22    2     -2.69      0.00
    3   22    2     -1.30      0.00
    4   22    2     -0.66      0.00
    5   22    2      0.75      0.00
    6   22    2      0.58      0.00
    7   22    2     -1.31      0.00
    8   22    2      1.91      0.00
    9   22    2     -1.53      0.00
   -7   23    2     -0.18      0.00
   -6   23    2     -0.45      0.00
   -5   23    2     -0.25      0.00
   -4   23    2      1.02      0.00
   -3   23    2      0.81      0.00
   -2   23    2     -2.02      0.00
   -1   23    2     -0.67      0.00
    0   23    2      2.38      0.00
    1   23    2      2.67      0.00
    2   23    2     -1.36      0.00
    3   23    2      0.93      0.00
    4   23    2      0.19      0.00
    5   23    2      1.49      0.00
    6   23    2     -0.10      0.00
    7   23    2     -1.27      0.00
   -2   24    2      0.19      0.00
   -1   24    2      0.74      0.00
    0   24    2      3.59      0.00
    1   24    2      0.03      0.00
    2   24    2      2.89      0.00
    0    0    3    -53.13      0.00
    0    1    3   -117.85      0.00
    1    1    3      4.62      0.00
   -1    2    3      5.84      0.00
    0    2    3      4.77      0.00
    1    2    3    -36.15      0.00
    2    2    3     32.78      0.00
   -2    3    3     40.56      0.00
   -1    3    3    -16.23      0.00
    0    3    3     42.59      0.00
    1    3    3     16.37      0.00
    2    3    3     38.11      0.00
    3    3    3    -26.18      0.00
   -3    4    3      9.01      0.00
   -2    4    3    -12.95      0.00
   -1    4    3     13.51      0.00
    0    4    3    -20.27      0.00
    1    4    3     11.94      0.00
    2    4    3     -1.55      0.00
    3    4    3     28.41      0.00
    4    4    3     -8.39      0.00
   -4    5    3    -29.05      0.00
   -3    5    3    -10.39      0.00
   -2    5    3    -33.45      0.00
   -1    5    3     -0.18      0.00
    0    5    3     -7.90      0.00
    1    5    3      5.82      0.00
    2    5    3    -17.72      0.00
    3    5    3     -0.30      0.00
    4    5    3    -13.38      0.00
    5    5    3      4.35      0.00
   -5    6    3    -16.06      0.00
   -4    6    3      7.01      0.00
   -3    6    3      4.21      0.00
   -2    6    3      9.35      0.00
   -1    6    3    -19.99      0.00
    0    6    3      9.96      0.00
    1    6    3    -13.85      0.00
    2    6    3      5.95      0.00
    3    6    3    -12.22      0.00
    4    6    3     -3.57      0.00
    5    6    3     -0.80      0.00
    6    6    3      4.28      0.00
   -6    7    3      6.96      0.00
   -5    7    3      1.39      0.00
   -4    7    3     23.85      0.00
   -3    7    3      6.21      0.00
   -2    7    3      9.73      0.00
   -1    7    3     -2.59      0.00
    0    7    3     12.03      0.00
    1    7    3      2.53      0.00
    2    7    3      1.71      0.00
    3    7    3     -9.95      0.00
    4    7    3      7.17      0.00
    5    7    3      9.06      0.00
    6    7    3      1.11      0.00
    7    7    3     -9.76      0.00
   -7    8    3      6.34      0.00
   -6    8    3     -7.64      0.00
   -5    8    3      4.01      0.00
   -4    8    3     -0.70      0.00
   -3    8    3      7.76      0.00
   -2    8    3     -9.60      0.00
   -1    8    3      6.78      0.00
    0    8    3     -3.03      0.00
    1    8    3     17.37      0.00
    2    8    3     -6.57      0.00
    3    8    3      2.19      0.00
    4    8    3      3.50      0.00
    5    8    3      4.14      0.00
    6    8    3     -2.45      0.00
    7    8    3      1.63      0.00
    8    8    3      3.52      0.00
   -8    9    3     -0.84      0.00
   -7    9    3     -9.16      0.00
   -6    9    3    -13.91      0.00
   -5    9    3      2.99      0.00
   -4    9    3     -9.50      0.00
   -3    9    3     -6.45      0.00
   -2    9    3     -8.48      0.00
   -1    9    3      4.19      0.00
    0    9    3     -4.09      0.00
    1    9    3     -3.52      0.00
    2    9    3     -4.71      0.00
    3    9    3      4.40      0.00
    4    9    3      0.63      0.00
    5    9    3     -0.42      0.00
    6    9    3     -3.39      0.00
    7    9    3     -1.02      0.00
    8    9    3     -4.04      0.00
    9    9    3      2.01      0.00
   -9   10    3     -4.22      0.00
   -8   10    3     -0.66      0.00
   -7   10    3     -8.21      0.00
   -6   10    3      3.75      0.00
   -5   10    3     -3.53      0.00
   -4   10    3      2.35      0.00
   -3   10    3     -6.03      0.00
   -2   10    3      4.15      0.00
   -1   10    3    -11.18      0.00
    0   10    3      3.98      0.00
    1   10    3     -2.49      0.00
    2   10    3      3.18      0.00
    3   10    3     -8.84      0.00
    4   10    3     -0.66      0.00
    5   10    3     -0.46      0.00
    6   10    3      0.08      0.00
    7   10    3     -4.33      0.00
    8   10    3      0.24      0.00
    9   10    3      2.17      0.00
   10   10    3     -0.71      0.00
  -10   11    3     -3.91      0.00
   -9   11    3      0.05      0.00
   -8   11    3      4.29      0.00
   -7   11    3      7.11      0.00
   -6   11    3      8.11      0.00
   -5   11    3     -1.47      0.00
   -4   11    3      8.75      0.00
   -3   11    3      1.23      0.00
   -2   11    3      3.00      0.00
   -1   11    3      1.75      0.00
    0   11    3      3.94      0.00
    1   11    3      0.16      0.00
    2   11    3      0.09      0.00
    3   11    3     -1.09      0.00
    4   11    3      0.30      0.00
    5   11    3      2.17      0.00
    6   11    3      5.78      0.00
    7   11    3     -2.26      0.00
    8   11    3      1.38      0.00
    9   11    3      2.50      0.00
   10   11    3     -0.59      0.00
   11   11    3     -4.75      0.00
  -11   12    3      2.27      0.00
  -10   12    3     -1.06      0.00
   -9   12    3      4.24      0.00
   -8   12    3      2.48      0.00
   -7   12    3      4.07      0.00
   -6   12    3     -4.70      0.00
   -5   12    3      9.14      0.00
   -4   12    3     -0.15      0.00
   -3   12    3      3.33      0.00
   -2   12    3     -2.98      0.00
   -1   12    3      9.94      0.00
    0   12    3     -2.19      0.00
    1   12    3     -0.09      0.00
    2   12    3     -2.84      0.00
    3   12    3      6.06      0.00
    4   12    3      3.52      0.00
    5   12    3      3.80      0.00
    6   12    3     -4.09      0.00
    7   12    3      0.09      0.00
    8   12    3      2.36      0.00
    9   12    3      4.28      0.00
   10   12    3     -1.85      0.00
   11   12    3     -0.73      0.00
   12   12    3     -0.31      0.00
  -12   13    3      3.25      0.00
  -11   13    3     -6.27      0.00
  -10   13    3     -2.66      0.00
   -9   13    3      1.08      0.00
   -8   13    3     -2.06      0.00
   -7   13    3     -5.53      0.00
   -6   13    3     -3.75      0.00
   -5   13    3      3.31      0.00
   -4   13    3     -5.41      0.00
   -3   13    3     -4.65      0.00
   -2   13    3     -3.10      0.00
   -1   13    3      1.04      0.00
    0   13    3      0.51      0.00
    1   13    3     -2.76      0.00
    2   13    3      0.95      0.00
    3   13    3      1.30      0.00
    4   13    3     -3.51      0.00
    5   13    3     -3.65      0.00
    6   13    3     -1.54      0.00
    7   13    3      2.90      0.00
    8   13    3     -1.27      0.00
    9   13    3     -2.83      0.00
   10   13    3      0.65      0.00
   11   13    3      0.84      0.00
   12   13    3      0.82      0.00
   13   13    3     -0.41      0.00
  -13   14    3      0.81      0.00
  -12   14    3     -3.11      0.00
  -11   14    3     -3.19      0.00
  -10   14    3      3.65      0.00
   -9   14    3     -1.02      0.00
   -8   14    3     -0.83      0.00
   -7   14    3     -4.53      0.00
   -6   14    3      1.17      0.00
   -5   14    3     -6.59      0.00
   -4   14    3     -0.48      0.00
   -3   14    3     -8.75      0.00
   -2   14    3      3.29      0.00
   -1   14    3     -0.44      0.00
    0   14    3     -1.94      0.00
    1   14    3     -5.79      0.00
    2   14    3      1.86      0.00
    3   14    3      0.02      0.00
    4   14    3     -1.50      0.00
    5   14    3     -3.89      0.00
    6   14    3      0.50      0.00
    7   14    3     -1.06      0.00
    8   14    3     -0.20      0.00
    9   14    3     -4.22      0.00
   10   14    3      1.61      0.00
   11   14    3     -0.20      0.00
   12   14    3      0.87      0.00
   13   14    3      2.13      0.00
   14   14    3      1.14      0.00
  -14   15    3     -0.18      0.00
  -13   15    3      0.72      0.00
  -12   15    3     -2.98      0.00
  -11   15    3      4.29      0.00
  -10   15    3      2.59      0.00
   -9   15    3      0.43      0.00
   -8   15    3      4.67      0.00
   -7   15    3      2.17      0.00
   -6   15    3     -2.36      0.00
   -5   15    3     -1.63      0.00
   -4   15    3      3.07      0.00
   -3   15    3      3.82      0.00
   -2   15    3      0.91      0.00
   -1   15    3     -1.47      0.00
    0   15    3     -0.23      0.00
    1   15    3      4.30      0.00
    2   15    3     -1.02      0.00
    3   15    3     -2.31      0.00
    4   15    3      2.56      0.00
    5   15    3      1.79      0.00
    6   15    3      1.12      0.00
    7   15    3      0.32      0.00
    8   15    3     -3.65      0.00
    9   15    3      1.00      0.00
   10   15    3      2.52      0.00
   11   15    3     -0.53      0.00
   12   15    3     -0.34      0.00
   13   15    3      1.93      0.00
   14   15    3      0.15      0.00
   15   15    3     -1.77      0.00
  -15   16    3     -0.75      0.00
  -14   16    3      0.32      0.00
  -13   16    3      0.06      0.00
  -12   16    3     -1.18      0.00
  -11   16    3      2.58      0.00
  -10   16    3      2.32      0.00
   -9   16    3      0.81      0.00
   -8   16    3     -4.50      0.00
   -7   16    3      0.14      0.00
   -6   16    3      3.04      0.00
   -5   16    3      9.35      0.00
   -4   16    3     -0.43      0.00
   -3   16    3      3.30      0.00
   -2   16    3      0.60      0.00
   -1   16    3      5.75      0.00
    0   16    3      1.91      0.00
    1   16    3     -3.12      0.00
    2   16    3     -1.87      0.00
    3   16    3      6.65      0.00
    4   16    3      2.67      0.00
    5   16    3     -3.94      0.00
    6   16    3     -0.96      0.00
    7   16    3      3.51      0.00
    8   16    3      0.33      0.00
    9   16    3      2.60      0.00
   10   16    3     -0.23      0.00
   11   16    3     -0.77      0.00
   12   16    3      0.38      0.00
   13   16    3     -1.17      0.00
   14   16    3     -1.59      0.00
   15   16    3     -0.02      0.00
   16   16    3      1.36      0.00
  -16   17    3     -0.48      0.00
  -15   17    3     -1.34      0.00
  -14   17    3      2.41      0.00
  -13   17    3     -0.30      0.00
  -12   17    3     -0.72      0.00
  -11   17    3     -2.70      0.00
  -10   17    3     -2.36      0.00
   -9   17    3     -0.62      0.00
   -8   17    3     -1.93      0.00
   -7   17    3     -0.84      0.00
   -6   17    3      1.05      0.00
   -5   17    3     -0.05      0.00
   -4   17    3      1.79      0.00
   -3   17    3     -0.75      0.00
   -2   17    3     -0.41      0.00
   -1   17    3      0.01      0.00
    0   17    3     -0.31      0.00
    1   17    3     -3.19      0.00
    2   17    3      0.66      0.00
    3   17    3      3.52      0.00
    4   17    3     -2.07      0.00
    5   17    3     -2.18      0.00
    6   17    3      2.25      0.00
    7   17    3      0.62      0.00
    8   17    3      0.41      0.00
    9   17    3     -0.14      0.00
   10   17    3      0.35      0.00
   11   17    3     -0.45      0.00
   12   17    3     -1.52      0.00
   13   17    3     -0.13      0.00
   14   17    3      0.76      0.00
   15   17    3      0.29      0.00
   16   17    3     -0.64      0.00
  -15   18    3      1.03      0.00
  -14   18    3     -0.10      0.00
  -13   18    3     -0.46      0.00
  -12   18    3      0.42      0.00
  -11   18    3     -1.96      0.00
  -10   18    3      0.93      0.00
   -9   18    3     -0.32      0.00
   -8   18    3     -1.46      0.00
   -7   18    3     -1.89      0.00
   -6   18    3     -0.11      0.00
   -5   18    3     -1.86      0.00
   -4   18    3     -0.37      0.00
   -3   18    3     -5.71      0.00
   -2   18    3     -3.12      0.00
   -1   18    3     -1.99      0.00
    0   18    3     -0.73      0.00
    1   18    3     -1.63      0.00
    2   18    3      1.59      0.00
    3   18    3      1.22      0.00
    4   18    3     -2.28      0.00
    5   18    3     -1.44      0.00
    6   18    3      1.09      0.00
    7   18    3      0.27      0.00
    8   18    3      0.05      0.00
    9   18    3     -0.14      0.00
   10   18    3     -2.54      0.00
   11   18    3     -1.01      0.00
   12   18    3      0.54      0.00
   13   18    3      0.49      0.00
   14   18    3     -0.17      0.00
   15   18    3     -1.54      0.00
  -14   19    3     -2.26      0.00
  -13   19    3      0.92      0.00
  -12   19    3      1.09      0.00
  -11   19    3      1.42      0.00
  -10   19    3      1.83      0.00
   -9   19    3     -1.50      0.00
   -8   19    3      0.30      0.00
   -7   19    3      3.20      0.00
   -6   19    3      0.33      0.00
   -5   19    3     -1.20      0.00
   -4   19    3     -2.95      0.00
   -3   19    3     -0.28      0.00
   -2   19    3     -1.52      0.00
   -1   19    3      0.68      0.00
    0   19    3      0.75      0.00
    1   19    3      0.07      0.00
    2   19    3      0.64      0.00
    3   19    3     -1.68      0.00
    4   19    3     -2.50      0.00
    5   19    3      1.68      0.00
    6   19    3      1.21      0.00
    7   19    3     -1.74      0.00
    8   19    3      0.16      0.00
    9   19    3     -0.69      0.00
   10   19    3     -0.56      0.00
   11   19    3      0.23      0.00
   12   19    3     -0.23      0.00
   13   19    3     -0.19      0.00
   14   19    3      0.26      0.00
  -13   20    3      0.55      0.00
  -12   20    3     -1.12      0.00
  -11   20    3      1.37      0.00
  -10   20    3     -0.40      0.00
   -9   20    3     -0.42      0.00
   -8   20    3      2.74      0.00
   -7   20    3      3.74      0.00
   -6   20    3     -0.78      0.00
   -5   20    3     -3.47      0.00
   -4   20    3      1.67      0.00
   -3   20    3      3.62      0.00
   -2   20    3      1.03      0.00
   -1   20    3      2.65      0.00
    0   20    3      0.13      0.00
    1   20    3      1.03      0.00
    2   20    3      0.46      0.00
    3   20    3     -0.67      0.00
    4   20    3     -0.20      0.00
    5   20    3      1.59      0.00
    6   20    3     -0.56      0.00
    7   20    3     -0.21      0.00
    8   20    3      0.01      0.00
    9   20    3     -1.23      0.00
   10   20    3      2.48      0.00
   11   20    3      1.08      0.00
   12   20    3      0.43      0.00
  -11   21    3      0.80      0.00
  -10   21    3      0.12      0.00
   -9   21    3     -0.59      0.00
   -8   21    3     -0.08      0.00
   -7   21    3     -1.31      0.00
   -6   21    3     -0.94      0.00
   -5   21    3      1.15      0.00
   -4   21    3      1.09      0.00
   -3   21    3     -1.91      0.00
   -2   21    3      2.74      0.00
   -1   21    3      2.08      0.00
    0   21    3     -0.12      0.00
    1   21    3      0.30      0.00
    2   21    3      2.23      0.00
    3   21    3      0.00      0.00
    4   21    3      0.05      0.00
    5   21    3     -0.50      0.00
    6   21    3      0.33      0.00
    7   21    3      0.69      0.00
    8   21    3     -2.50      0.00
    9   21    3      3.11      0.00
   10   21    3      1.61      0.00
   11   21    3     -1.29      0.00
   -9   22    3      0.01      0.00
   -8   22    3      0.43      0.00
   -7   22    3      0.08      0.00
   -6   22    3     -1.42      0.00
   -5   22    3      0.19      0.00
   -4   22    3     -1.43      0.00
   -3   22    3      1.62      0.00
   -2   22    3      2.75      0.00
   -1   22    3     -3.15      0.00
    0   22    3     -2.77      0.00
    1   22    3     -0.17      0.00
    2   22    3      0.69      0.00
    3   22    3     -2.53      0.00
    4   22    3      0.09      0.00
    5   22    3      0.51      0.00
    6   22    3      1.15      0.00
    7   22    3     -1.40      0.00
    8   22    3     -0.43      0.00
   -6   23    3      0.60      0.00
   -5   23    3      0.95      0.00
   -4   23    3      0.84      0.00
   -3   23    3      0.78      0.00
   -2   23    3     -1.03      0.00
   -1   23    3     -2.50      0.00
    0   23    3     -3.36      0.00
    1   23    3      1.15      0.00
    2   23    3     -1.90      0.00
    3   23    3     -0.09      0.00
    4   23    3     -0.55      0.00
    5   23    3     -0.61      0.00
    0    0    4    152.76      0.00
    0    1    4    -26.65      0.00
    1    1    4    -29.91      0.00
   -1    2    4     16.14      0.00
    0    2    4    -27.84      0.00
    1    2    4    -18.07      0.00
    2    2    4    -57.06      0.00
   -2    3    4     30.46      0.00
   -1    3    4     -8.41      0.00
    0    3    4      1.50      0.00
    1    3    4    -23.27      0.00
    2    3    4     28.09      0.00
    3    3    4      8.22      0.00
   -3    4    4      9.98      0.00
   -2    4    4     30.26      0.00
   -1    4    4      2.28      0.00
    0    4    4     22.72      0.00
    1    4    4     -5.73      0.00
    2    4    4      7.49      0.00
    3    4    4      0.86      0.00
    4    4    4     24.24      0.00
   -4    5    4     -5.52      0.00
   -3    5    4     11.20      0.00
   -2    5    4    -13.90      0.00
   -1    5    4     -3.81      0.00
    0    5    4    -14.94      0.00
    1    5    4     32.43      0.00
    2    5    4      0.43      0.00
    3    5    4      6.27      0.00
    4    5    4     -9.23      0.00
    5    5    4     -5.35      0.00
   -5    6    4     -5.34      0.00
   -4    6    4    -26.02      0.00
   -3    6    4     -7.08      0.00
   -2    6    4    -10.75      0.00
   -1    6    4      1.10      0.00
    0    6    4    -11.44      0.00
    1    6    4     -0.96      0.00
    2    6    4     -7.28      0.00
    3    6    4      5.73      0.00
    4    6    4     -4.44      0.00
    5    6    4     -6.07      0.00
    6    6    4     -4.06      0.00
   -6    7    4      6.50      0.00
   -5    7    4     -5.88      0.00
   -4    7    4      4.73      0.00
   -3    7    4     -3.19      0.00
   -2    7    4      9.06      0.00
   -1    7    4    -11.38      0.00
    0    7    4      6.85      0.00
    1    7    4    -12.40      0.00
    2    7    4      7.74      0.00
    3    7    4    -10.74      0.00
    4    7    4     -6.22      0.00
    5    7    4     -1.29      0.00
    6    7    4      9.50      0.00
    7    7    4      2.81      0.00
   -7    8    4     10.84      0.00
   -6    8    4     11.12      0.00
   -5    8    4     -0.54      0.00
   -4    8    4     11.05      0.00
   -3    8    4      7.49      0.00
   -2    8    4     11.48      0.00
   -1    8    4     -3.78      0.00
    0    8    4     -0.34      0.00
    1    8    4      4.29      0.00
    2    8    4      9.73      0.00
    3    8    4     -6.06      0.00
    4    8    4     -1.75      0.00
    5    8    4      4.96      0.00
    6    8    4      3.10      0.00
    7    8    4     -3.92      0.00
    8    8    4      2.12      0.00
   -8    9    4      3.65      0.00
   -7    9    4      9.99      0.00
   -6    9    4     -8.21      0.00
   -5    9    4     -1.19      0.00
   -4    9    4      1.00      0.00
   -3    9    4      9.21      0.00
   -2    9    4    -10.76      0.00
   -1    9    4      6.70      0.00
    0    9    4     -1.02      0.00
    1    9    4     11.45      0.00
    2    9    4     -6.81      0.00
    3    9    4      1.57      0.00
    4    9    4      0.55      0.00
    5    9    4      7.35      0.00
    6    9    4      0.64      0.00
    7    9    4     -0.37      0.00
    8    9    4     -2.16      0.00
    9    9    4      0.86      0.00
   -9   10    4     -3.11      0.00
   -8   10    4     -1.18      0.00
   -7   10    4     -7.61      0.00
   -6   10    4    -11.87      0.00
   -5   10    4      0.20      0.00
   -4   10    4     -6.02      0.00
   -3   10    4     -3.70      0.00
   -2   10    4     -5.27      0.00
   -1   10    4      0.49      0.00
    0   10    4     -3.50      0.00
    1   10    4     -2.28      0.00
    2   10    4      0.04      0.00
    3   10    4      2.08      0.00
    4   10    4     -1.98      0.00
    5   10    4     -1.76      0.00
    6   10    4     -2.84      0.00
    7   10    4     -0.19      0.00
    8   10    4     -3.69      0.00
    9   10    4      0.71      0.00
   10   10    4      1.66      0.00
  -10   11    4      1.73      0.00
   -9   11    4     -2.93      0.00
   -8   11    4     -3.40      0.00
   -7   11    4     -7.43      0.00
   -6   11    4      4.42      0.00
   -5   11    4     -3.69      0.00
   -4   11    4      3.07      0.00
   -3   11    4     -6.59      0.00
   -2   11    4      2.26      0.00
   -1   11    4     -6.73      0.00
    0   11    4      5.94      0.00
    1   11    4     -5.44      0.00
    2   11    4      1.20      0.00
    3   11    4     -2.20      0.00
    4   11    4     -0.46      0.00
    5   11    4     -6.74      0.00
    6   11    4      2.66      0.00
    7   11    4      0.99      0.00
    8   11    4     -2.20      0.00
    9   11    4     -2.81      0.00
   10   11    4      3.82      0.00
   11   11    4     -0.57      0.00
  -11   12    4      3.95      0.00
  -10   12    4     -0.03      0.00
   -9   12    4      1.07      0.00
   -8   12    4      4.63      0.00
   -7   12    4      6.89      0.00
   -6   12    4      2.90      0.00
   -5   12    4     -1.02      0.00
   -4   12    4      7.63      0.00
   -3   12    4      2.40      0.00
   -2   12    4      0.20      0.00
   -1   12    4      1.66      0.00
    0   12    4      3.16      0.00
    1   12    4      1.38      0.00
    2   12    4     -2.42      0.00
    3   12    4     -1.49      0.00
    4   12    4      1.69      0.00
    5   12    4      5.37      0.00
    6   12    4      5.74      0.00
    7   12    4     -3.20      0.00
    8   12    4     -0.77      0.00
    9   12    4      2.21      0.00
   10   12    4      0.72      0.00
   11   12    4     -1.65      0.00
   12   12    4     -2.25      0.00
  -12   13    4      2.06      0.00
  -11   13    4      3.56      0.00
  -10   13    4     -2.31      0.00
   -9   13    4     -0.39      0.00
   -8   13    4      1.37      0.00
   -7   13    4      5.70      0.00
   -6   13    4     -2.38      0.00
   -5   13    4      6.53      0.00
   -4   13    4      0.08      0.00
   -3   13    4      6.93      0.00
   -2   13    4     -4.31      0.00
   -1   13    4      2.70      0.00
    0   13    4     -0.84      0.00
    1   13    4      3.33      0.00
    2   13    4     -0.93      0.00
    3   13    4      3.79      0.00
    4   13    4      2.00      0.00
    5   13    4      1.67      0.00
    6   13    4     -3.26      0.00
    7   13    4      2.19      0.00
    8   13    4      2.18      0.00
    9   13    4      3.27      0.00
   10   13    4     -2.42      0.00
   11   13    4     -0.20      0.00
   12   13    4     -2.31      0.00
   13   13    4      0.45      0.00
  -13   14    4      0.92      0.00
  -12   14    4      0.92      0.00
  -11   14    4     -7.74      0.00
  -10   14    4     -1.97      0.00
   -9   14    4      0.44      0.00
   -8   14    4     -2.25      0.00
   -7   14    4     -2.82      0.00
   -6   14    4     -1.30      0.00
   -5   14    4     -0.05      0.00
   -4   14    4     -0.85      0.00
   -3   14    4     -4.30      0.00
   -2   14    4     -4.63      0.00
   -1   14    4      2.31      0.00
    0   14    4      4.77      0.00
    1   14    4     -4.46      0.00
    2   14    4     -3.91      0.00
    3   14    4      0.71      0.00
    4   14    4      0.98      0.00
    5   14    4     -1.96      0.00
    6   14    4     -3.98      0.00
    7   14    4     -0.34      0.00
    8   14    4      1.82      0.00
    9   14    4     -1.63      0.00
   10   14    4     -0.02      0.00
   11   14    4      0.34      0.00
   12   14    4     -0.30      0.00
   13   14    4     -0.86      0.00
   14   14    4      1.58      0.00
  -14   15    4      0.43      0.00
  -13   15    4      2.16      0.00
  -12   15    4     -1.37      0.00
  -11   15    4     -4.01      0.00
  -10   15    4      1.45      0.00
   -9   15    4     -0.03      0.00
   -8   15    4      0.45      0.00
   -7   15    4     -1.83      0.00
   -6   15    4      0.09      0.00
   -5   15    4     -7.08      0.00
   -4   15    4     -0.98      0.00
   -3   15    4     -6.40      0.00
   -2   15    4      2.17      0.00
   -1   15    4     -1.57      0.00
    0   15    4     -2.50      0.00
    1   15    4     -1.76      0.00
    2   15    4      1.50      0.00
    3   15    4     -1.74      0.00
    4   15    4     -1.75      0.00
    5   15    4     -2.25      0.00
    6   15    4     -0.12      0.00
    7   15    4      1.05      0.00
    8   15    4      0.54      0.00
    9   15    4     -6.15      0.00
   10   15    4      1.15      0.00
   11   15    4      2.05      0.00
   12   15    4      0.22      0.00
   13   15    4      1.18      0.00
   14   15    4      2.68      0.00
   15   15    4      0.69      0.00
  -15   16    4      1.65      0.00
  -14   16    4     -0.85      0.00
  -13   16    4      1.68      0.00
  -12   16    4     -1.52      0.00
  -11   16    4      0.92      0.00
  -10   16    4      3.42      0.00
   -9   16    4      5.30      0.00
   -8   16    4      2.36      0.00
   -7   16    4     -2.72      0.00
   -6   16    4     -4.07      0.00
   -5   16    4      2.37      0.00
   -4   16    4      2.61      0.00
   -3   16    4      0.45      0.00
   -2   16    4     -1.72      0.00
   -1   16    4      0.77      0.00
    0   16    4      3.02      0.00
    1   16    4      2.55      0.00
    2   16    4     -3.76      0.00
    3   16    4     -1.68      0.00
    4   16    4      6.32      0.00
    5   16    4      1.94      0.00
    6   16    4     -3.45      0.00
    7   16    4     -0.08      0.00
    8   16    4     -0.75      0.00
    9   16    4      1.30      0.00
   10   16    4      0.59      0.00
   11   16    4      0.14      0.00
   12   16    4      0.20      0.00
   13   16    4      1.51      0.00
   14   16    4     -0.23      0.00
   15   16    4     -1.95      0.00
   16   16    4     -0.50      0.00
  -16   17    4      1.86      0.00
  -15   17    4     -0.73      0.00
  -14   17    4     -1.26      0.00
  -13   17    4      0.09      0.00
  -12   17    4      1.43      0.00
  -11   17    4      2.34      0.00
  -10   17    4     -1.24      0.00
   -9   17    4     -0.92      0.00
   -8   17    4     -0.28      0.00
   -7   17    4      2.99      0.00
   -6   17    4      1.75      0.00
   -5   17    4      2.27      0.00
   -4   17    4     -0.39      0.00
   -3   17    4      6.08      0.00
   -2   17    4      3.16      0.00
   -1   17    4      1.67      0.00
    0   17    4      1.38      0.00
    1   17    4      0.92      0.00
    2   17    4     -1.59      0.00
    3   17    4      1.22      0.00
    4   17    4      2.20      0.00
    5   17    4     -1.04      0.00
    6   17    4     -0.98      0.00
    7   17    4      1.97      0.00
    8   17    4      0.50      0.00
    9   17    4      0.57      0.00
   10   17    4      0.83      0.00
   11   17    4      1.16      0.00
   12   17    4     -0.67      0.00
   13   17    4     -1.46      0.00
   14   17    4     -0.44      0.00
   15   17    4      0.44      0.00
   16   17    4     -0.34      0.00
  -15   18    4     -0.90      0.00
  -14   18    4      1.44      0.00
  -13   18    4     -1.25      0.00
  -12   18    4      0.35      0.00
  -11   18    4     -1.42      0.00
  -10   18    4     -1.72      0.00
   -9   18    4     -0.04      0.00
   -8   18    4     -1.52      0.00
   -7   18    4     -1.75      0.00
   -6   18    4      0.70      0.00
   -5   18    4      0.02      0.00
   -4   18    4      3.17      0.00
   -3   18    4      1.72      0.00
   -2   18    4     -0.85      0.00
   -1   18    4     -1.42      0.00
    0   18    4      0.11      0.00
    1   18    4     -1.89      0.00
    2   18    4     -2.00      0.00
    3   18    4      3.24      0.00
    4   18    4      1.64      0.00
    5   18    4     -2.83      0.00
    6   18    4     -0.63      0.00
    7   18    4      1.38      0.00
    8   18    4      0.45      0.00
    9   18    4      0.29      0.00
   10   18    4      1.32      0.00
   11   18    4     -1.63      0.00
   12   18    4     -1.61      0.00
   13   18    4      0.65      0.00
   14   18    4      0.81      0.00
   15   18    4      0.24      0.00
  -13   19    4     -0.37      0.00
  -12   19    4      0.47      0.00
  -11   19    4     -1.56      0.00
  -10   19    4      0.98      0.00
   -9   19    4     -0.69      0.00
   -8   19    4     -2.71      0.00
   -7   19    4     -1.37      0.00
   -6   19    4      0.44      0.00
   -5   19    4      0.53      0.00
   -4   19    4     -1.59      0.00
   -3   19    4     -3.10      0.00
   -2   19    4     -2.52      0.00
   -1   19    4     -3.04      0.00
    0   19    4     -0.96      0.00
    1   19    4     -1.39      0.00
    2   19    4      0.97      0.00
    3   19    4      1.75      0.00
    4   19    4     -0.99      0.00
    5   19    4     -2.06      0.00
    6   19    4      1.93      0.00
    7   19    4      0.31      0.00
    8   19    4     -1.40      0.00
    9   19    4      0.52      0.00
   10   19    4     -1.77      0.00
   11   19    4     -1.88      0.00
   12   19    4      0.34      0.00
   13   19    4     -0.26      0.00
   14   19    4      0.57      0.00
  -11   20    4     -0.14      0.00
  -10   20    4      0.95      0.00
   -9   20    4     -0.48      0.00
   -8   20    4     -0.23      0.00
   -7   20    4      1.82      0.00
   -6   20    4      2.55      0.00
   -5   20    4     -1.07      0.00
   -4   20    4     -3.62      0.00
   -3   20    4     -0.32      0.00
   -2   20    4     -0.70      0.00
   -1   20    4     -0.55      0.00
    0   20    4     -0.36      0.00
    1   20    4     -0.31      0.00
    2   20    4      0.93      0.00
    3   20    4      0.43      0.00
    4   20    4     -2.18      0.00
    5   20    4      0.26      0.00
    6   20    4      0.89      0.00
    7   20    4     -0.55      0.00
    8   20    4      1.06      0.00
    9   20    4     -1.68      0.00
   10   20    4     -1.04      0.00
   11   20    4      0.51      0.00
   12   20    4     -0.19      0.00
  -11   21    4      1.17      0.00
  -10   21    4      0.91      0.00
   -9   21    4      0.48      0.00
   -8   21    4      0.99      0.00
   -7   21    4      0.82      0.00
   -6   21    4      0.01      0.00
   -5   21    4     -1.87      0.00
   -4   21    4      2.68      0.00
   -3   21    4     -0.43      0.00
   -2   21    4     -1.02      0.00
   -1   21    4      3.79      0.00
    0   21    4      0.75      0.00
    1   21    4      0.22      0.00
    2   21    4      1.32      0.00
    3   21    4      1.51      0.00
    4   21    4     -1.97      0.00
    5   21    4     -0.88      0.00
    6   21    4      0.01      0.00
    7   21    4      2.27      0.00
    8   21    4     -1.15      0.00
    9   21    4     -1.56      0.00
   10   21    4      3.75      0.00
   -9   22    4     -2.18      0.00
   -8   22    4      0.35      0.00
   -7   22    4      2.34      0.00
   -6   22    4     -1.62      0.00
   -5   22    4     -1.61      0.00
   -4   22    4     -0.54      0.00
   -3   22    4     -0.80      0.00
   -2   22    4      3.12      0.00
   -1   22    4      2.84      0.00
    0   22    4      0.51      0.00
    1   22    4     -0.22      0.00
    2   22    4      2.44      0.00
    3   22    4     -1.51      0.00
    4   22    4     -0.89      0.00
    5   22    4      0.00      0.00
    6   22    4      1.03      0.00
    7   22    4      1.27      0.00
    8   22    4     -2.00      0.00
   -5   23    4      0.63      0.00
   -4   23    4     -0.09      0.00
   -3   23    4      1.49      0.00
   -2   23    4      1.16      0.00
   -1   23    4     -1.69      0.00
    0   23    4     -2.29      0.00
    1   23    4     -0.59      0.00
    2   23    4      0.66      0.00
    3   23    4     -2.29      0.00
    4   23    4      1.38      0.00
    5   23    4      0.14      0.00
    0    0    5     39.46      0.00
    0    1    5     65.78      0.00
    1    1    5     -8.96      0.00
   -1    2    5     -9.03      0.00
    0    2    5      3.02      0.00
    1    2    5     28.61      0.00
    2    2    5    -36.21      0.00
   -2    3    5    -27.17      0.00
   -1    3    5      8.66      0.00
    0    3    5    -22.69      0.00
    1    3    5    -10.49      0.00
    2    3    5    -26.32      0.00
    3    3    5     16.37      0.00
   -3    4    5     -5.50      0.00
   -2    4    5     15.49      0.00
   -1    4    5     -2.97      0.00
    0    4    5     14.05      0.00
    1    4    5    -16.83      0.00
    2    4    5      5.25      0.00
    3    4    5    -15.34      0.00
    4    4    5      8.35      0.00
   -4    5    5     13.82      0.00
   -3    5    5      7.35      0.00
   -2    5    5     27.41      0.00
   -1    5    5      3.30      0.00
    0    5    5     -2.93      0.00
    1    5    5     -7.55      0.00
    2    5    5     19.41      0.00
    3    5    5      8.32      0.00
    4    5    5      5.07      0.00
    5    5    5     -7.74      0.00
   -5    6    5      5.15      0.00
   -4    6    5     -4.06      0.00
   -3    6    5      1.17      0.00
   -2    6    5    -13.63      0.00
   -1    6    5      7.37      0.00
    0    6    5     -6.52      0.00
    1    6    5     18.07      0.00
    2    6    5     -8.07      0.00
    3    6    5      4.79      0.00
    4    6    5      1.72      0.00
    5    6    5      6.47      0.00
    6    6    5     -7.03      0.00
   -6    7    5     -8.13      0.00
   -5    7    5     -5.28      0.00
   -4    7    5    -13.73      0.00
   -3    7    5     -3.81      0.00
   -2    7    5     -8.75      0.00
   -1    7    5     -1.94      0.00
    0    7    5     -6.28      0.00
    1    7    5     -1.11      0.00
    2    7    5     -2.64      0.00
    3    7    5      4.73      0.00
    4    7    5     -5.91      0.00
    5    7    5     -8.53      0.00
    6    7    5     -0.80      0.00
    7    7    5      8.96      0.00
   -7    8    5     -4.26      0.00
   -6    8    5      8.48      0.00
   -5    8    5      0.34      0.00
   -4    8    5      0.02      0.00
   -3    8    5     -7.78      0.00
   -2    8    5     12.14      0.00
   -1    8    5     -3.67      0.00
    0    8    5      2.18      0.00
    1    8    5    -16.83      0.00
    2    8    5      8.72      0.00
    3    8    5      0.41      0.00
    4    8    5     -2.82      0.00
    5    8    5     -7.24      0.00
    6    8    5      5.82      0.00
    7    8    5     -0.56      0.00
    8    8    5     -4.53      0.00
   -8    9    5     -1.06      0.00
   -7    9    5      9.95      0.00
   -6    9    5     14.31      0.00
   -5    9    5     -1.18      0.00
   -4    9    5      4.03      0.00
   -3    9    5      8.19      0.00
   -2    9    5      6.95      0.00
   -1    9    5     -3.63      0.00
    0    9    5      1.18      0.00
    1    9    5      5.32      0.00
    2    9    5      4.79      0.00
    3    9    5     -2.69      0.00
    4    9    5     -3.08      0.00
    5    9    5      0.73      0.00
    6    9    5      6.16      0.00
    7    9    5      3.39      0.00
    8    9    5      0.18      0.00
    9    9    5     -4.22      0.00
   -9   10    5     -0.87      0.00
   -8   10    5      3.76      0.00
   -7   10    5      9.16      0.00
   -6   10    5     -6.57      0.00
   -5   10    5     -1.04      0.00
   -4   10    5     -0.23      0.00
   -3   10    5      8.10      0.00
   -2   10    5     -7.65      0.00
   -1   10    5      5.40      0.00
    0   10    5     -3.17      0.00
    1   10    5      7.84      0.00
    2   10    5     -4.94      0.00
    3   10    5      2.27      0.00
    4   10    5      0.08      0.00
    5   10    5      5.94      0.00
    6   10    5     -1.82      0.00
    7   10    5      0.18      0.00
    8   10    5     -0.52      0.00
    9   10    5      1.89      0.00
   10   10    5     -0.68      0.00
  -10   11    5      0.38      0.00
   -9   11    5     -2.50      0.00
   -8   11    5     -2.22      0.00
   -7   11    5     -6.59      0.00
   -6   11    5     -8.64      0.00
   -5   11    5     -2.68      0.00
   -4   11    5     -3.56      0.00
   -3   11    5     -0.34      0.00
   -2   11    5     -2.59      0.00
   -1   11    5     -4.43      0.00
    0   11    5     -0.19      0.00
    1   11    5      0.89      0.00
    2   11    5     -1.58      0.00
    3   11    5     -0.93      0.00
    4   11    5      2.25      0.00
    5   11    5     -3.21      0.00
    6   11    5     -6.98      0.00
    7   11    5      0.97      0.00
    8   11    5     -0.21      0.00
    9   11    5     -1.36      0.00
   10   11    5      0.23      0.00
   11   11    5      4.06      0.00
  -11   12    5     -1.95      0.00
  -10   12    5      1.16      0.00
   -9   12    5     -1.18      0.00
   -8   12    5     -3.46      0.00
   -7   12    5     -4.29      0.00
   -6   12    5      3.88      0.00
   -5   12    5     -5.72      0.00
   -4   12    5      1.45      0.00
   -3   12    5     -4.98      0.00
   -2   12    5      3.05      0.00
   -1   12    5     -5.30      0.00
    0   12    5      4.53      0.00
    1   12    5     -2.82      0.00
    2   12    5      1.20      0.00
    3   12    5     -2.80      0.00
    4   12    5     -2.19      0.00
    5   12    5     -5.52      0.00
    6   12    5      4.75      0.00
    7   12    5      1.85      0.00
    8   12    5     -2.32      0.00
    9   12    5     -4.19      0.00
   10   12    5      2.76      0.00
   11   12    5      0.15      0.00
   12   12    5      0.42      0.00
  -12   13    5     -0.98      0.00
  -11   13    5      3.81      0.00
  -10   13    5      3.38      0.00
   -9   13    5      3.87      0.00
   -8   13    5      1.18      0.00
   -7   13    5      1.73      0.00
   -6   13    5      2.21      0.00
   -5   13    5      2.40      0.00
   -4   13    5      2.16      0.00
   -3   13    5      3.32      0.00
   -2   13    5      1.93      0.00
   -1   13    5      0.18      0.00
    0   13    5     -1.41      0.00
    1   13    5      1.70      0.00
    2   13    5     -0.71      0.00
    3   13    5      0.90      0.00
    4   13    5      2.93      0.00
    5   13    5      3.56      0.00
    6   13    5      2.39      0.00
    7   13    5     -0.80      0.00
    8   13    5     -0.08      0.00
    9   13    5      0.85      0.00
   10   13    5      0.17      0.00
   11   13    5      0.88      0.00
   12   13    5     -2.48      0.00
   13   13    5     -1.83      0.00
  -13   14    5      0.58      0.00
  -12   14    5      4.35      0.00
  -11   14    5      1.07      0.00
  -10   14    5     -4.26      0.00
   -9   14    5      0.24      0.00
   -8   14    5      1.99      0.00
   -7   14    5      4.21      0.00
   -6   14    5     -0.48      0.00
   -5   14    5      3.86      0.00
   -4   14    5      1.00      0.00
   -3   14    5      8.70      0.00
   -2   14    5     -5.45      0.00
   -1   14    5     -1.98      0.00
    0   14    5      2.78      0.00
    1   14    5      7.07      0.00
    2   14    5     -1.64      0.00
    3   14    5     -2.86      0.00
    4   14    5      1.05      0.00
    5   14    5      5.57      0.00
    6   14    5     -0.31      0.00
    7   14    5     -1.18      0.00
    8   14    5      0.12      0.00
    9   14    5      3.85      0.00
   10   14    5     -2.15      0.00
   11   14    5     -0.32      0.00
   12   14    5     -1.48      0.00
   13   14    5     -1.73      0.00
   14   14    5     -2.02      0.00
  -14   15    5     -0.82      0.00
  -13   15    5     -1.11      0.00
  -12   15    5      2.40      0.00
  -11   15    5     -3.55      0.00
  -10   15    5     -3.84      0.00
   -9   15    5     -2.95      0.00
   -8   15    5     -1.29      0.00
   -7   15    5     -0.06      0.00
   -6   15    5      2.20      0.00
   -5   15    5     -1.74      0.00
   -4   15    5     -0.06      0.00
   -3   15    5     -2.44      0.00
   -2   15    5     -1.62      0.00
   -1   15    5      0.37      0.00
    0   15    5      0.71      0.00
    1   15    5     -2.91      0.00
    2   15    5     -1.01      0.00
    3   15    5     -0.07      0.00
    4   15    5     -0.96      0.00
    5   15    5     -0.67      0.00
    6   15    5     -3.49      0.00
    7   15    5     -2.03      0.00
    8   15    5      4.69      0.00
    9   15    5     -0.08      0.00
   10   15    5     -2.14      0.00
   11   15    5     -0.64      0.00
   12   15    5      1.22      0.00
   13   15    5     -1.09      0.00
   14   15    5      1.57      0.00
   15   15    5      2.06      0.00
  -15   16    5      0.05      0.00
  -14   16    5      0.77      0.00
  -13   16    5      1.04      0.00
  -12   16    5     -0.42      0.00
  -11   16    5     -3.11      0.00
  -10   16    5     -1.66      0.00
   -9   16    5      0.89      0.00
   -8   16    5      3.00      0.00
   -7   16    5     -0.97      0.00
   -6   16    5     -3.37      0.00
   -5   16    5     -6.24      0.00
   -4   16    5      0.54      0.00
   -3   16    5     -3.13      0.00
   -2   16    5     -1.86      0.00
   -1   16    5     -3.40      0.00
    0   16    5     -0.61      0.00
    1   16    5      0.96      0.00
    2   16    5      0.20      0.00
    3   16    5     -3.96      0.00
    4   16    5     -1.10      0.00
    5   16    5      2.54      0.00
    6   16    5      0.38      0.00
    7   16    5     -2.02      0.00
    8   16    5     -0.81      0.00
    9   16    5     -2.68      0.00
   10   16    5      0.85      0.00
   11   16    5      1.14      0.00
   12   16    5      0.62      0.00
   13   16    5      0.98      0.00
   14   16    5      2.11      0.00
   15   16    5      1.14      0.00
   16   16    5     -1.61      0.00
  -15   17    5      2.34      0.00
  -14   17    5     -0.77      0.00
  -13   17    5     -0.57      0.00
  -12   17    5     -1.21      0.00
  -11   17    5      2.99      0.00
  -10   17    5      3.17      0.00
   -9   17    5      1.50      0.00
   -8   17    5     -1.27      0.00
   -7   17    5     -0.34      0.00
   -6   17    5      0.34      0.00
   -5   17    5      1.97      0.00
   -4   17    5     -3.33      0.00
   -3   17    5     -2.29      0.00
   -2   17    5      1.65      0.00
   -1   17    5      2.34      0.00
    0   17    5      0.65      0.00
    1   17    5      1.79      0.00
    2   17    5      1.09      0.00
    3   17    5     -2.07      0.00
    4   17    5      1.92      0.00
    5   17    5      1.78      0.00
    6   17    5     -1.94      0.00
    7   17    5     -0.51      0.00
    8   17    5      0.39      0.00
    9   17    5      0.79      0.00
   10   17    5     -1.88      0.00
   11   17    5      1.40      0.00
   12   17    5      1.27      0.00
   13   17    5     -0.13      0.00
   14   17    5     -1.26      0.00
   15   17    5     -0.68      0.00
  -14   18    5     -0.01      0.00
  -13   18    5      0.46      0.00
  -12   18    5     -0.19      0.00
  -11   18    5      0.70      0.00
  -10   18    5     -0.72      0.00
   -9   18    5      1.68      0.00
   -8   18    5      2.43      0.00
   -7   18    5      0.63      0.00
   -6   18    5     -0.07      0.00
   -5   18    5      0.17      0.00
   -4   18    5      1.15      0.00
   -3   18    5      4.84      0.00
   -2   18    5      3.97      0.00
   -1   18    5      1.66      0.00
    0   18    5      1.36      0.00
    1   18    5      2.17      0.00
    2   18    5     -2.83      0.00
    3   18    5     -2.05      0.00
    4   18    5      2.61      0.00
    5   18    5      1.85      0.00
    6   18    5     -2.50      0.00
    7   18    5     -0.20      0.00
    8   18    5      1.78      0.00
    9   18    5     -0.15      0.00
   10   18    5      1.60      0.00
   11   18    5      2.17      0.00
   12   18    5     -2.07      0.00
   13   18    5     -1.22      0.00
   14   18    5      0.12      0.00
   15   18    5     -0.12      0.00
  -13   19    5     -1.39      0.00
  -12   19    5      1.15      0.00
  -11   19    5     -0.20      0.00
  -10   19    5     -0.77      0.00
   -9   19    5     -0.20      0.00
   -8   19    5     -1.01      0.00
   -7   19    5     -1.30      0.00
   -6   19    5     -0.27      0.00
   -5   19    5      1.14      0.00
   -4   19    5      2.34      0.00
   -3   19    5      1.00      0.00
   -2   19    5      0.80      0.00
   -1   19    5      0.46      0.00
    0   19    5     -1.60      0.00
    1   19    5     -1.80      0.00
    2   19    5     -1.31      0.00
    3   19    5      1.61      0.00
    4   19    5      1.59      0.00
    5   19    5     -1.68      0.00
    6   19    5     -0.27      0.00
    7   19    5      1.71      0.00
    8   19    5     -0.77      0.00
    9   19    5     -0.39      0.00
   10   19    5      2.39      0.00
   11   19    5     -1.14      0.00
   12   19    5     -1.55      0.00
   13   19    5      0.30      0.00
  -12   20    5      1.05      0.00
  -11   20    5     -0.82      0.00
  -10   20    5      0.08      0.00
   -9   20    5     -1.80      0.00
   -8   20    5     -2.10      0.00
   -7   20    5     -0.45      0.00
   -6   20    5     -0.40      0.00
   -5   20    5      2.01      0.00
   -4   20    5     -1.80      0.00
   -3   20    5     -1.46      0.00
   -2   20    5     -1.48      0.00
   -1   20    5     -2.88      0.00
    0   20    5     -0.56      0.00
    1   20    5     -2.23      0.00
    2   20    5     -0.36      0.00
    3   20    5      2.17      0.00
    4   20    5      2.33      0.00
    5   20    5     -1.79      0.00
    6   20    5     -0.54      0.00
    7   20    5     -0.08      0.00
    8   20    5      0.39      0.00
    9   20    5      0.05      0.00
   10   20    5     -2.44      0.00
   11   20    5     -1.37      0.00
   12   20    5      0.92      0.00
   -8   21    5     -0.40      0.00
   -7   21    5      0.22      0.00
   -6   21    5      2.56      0.00
   -5   21    5     -2.03      0.00
   -4   21    5     -1.04      0.00
   -3   21    5      1.60      0.00
   -2   21    5     -2.34      0.00
   -1   21    5     -2.41      0.00
    0   21    5      0.21      0.00
    1   21    5     -0.45      0.00
    2   21    5     -0.47      0.00
    3   21    5      2.49      0.00
    4   21    5      0.15      0.00
    5   21    5     -0.73      0.00
    6   21    5     -1.69      0.00
    7   21    5      0.30      0.00
    8   21    5      2.31      0.00
    9   21    5     -2.32      0.00
   10   21    5     -1.58      0.00
   -4   22    5      0.05      0.00
   -3   22    5     -1.80      0.00
   -2   22    5     -0.82      0.00
   -1   22    5      3.32      0.00
    0   22    5      0.62      0.00
    1   22    5      0.43      0.00
    2   22    5      1.80      0.00
    3   22    5      1.38      0.00
    4   22    5     -3.27      0.00
    5   22    5     -1.10      0.00
    6   22    5      0.11      0.00
    7   22    5      2.21      0.00
    8   22    5      0.11      0.00
   -4   23    5     -0.65      0.00
   -3   23    5     -0.53      0.00
   -2   23    5      2.22      0.00
   -1   23    5      2.90      0.00
    0   23    5      0.85      0.00
    1   23    5     -2.07      0.00
    2   23    5      2.31      0.00
    3   23    5     -0.55      0.00
    4   23    5     -0.99      0.00
    0    0    6    -83.02      0.00
    0    1    6     22.18      0.00
    1    1    6     16.72      0.00
   -1    2    6    -13.00      0.00
    0    2    6     11.03      0.00
    1    2    6     13.94      0.00
    2    2    6     38.70      0.00
   -2    3    6    -22.95      0.00
   -1    3    6      5.13      0.00
    0    3    6     -2.72      0.00
    1    3    6     13.79      0.00
    2    3    6    -22.89      0.00
    3    3    6     -2.19      0.00
   -3    4    6     -5.20      0.00
   -2    4    6    -21.72      0.00
   -1    4    6     -4.13      0.00
    0    4    6     -7.94      0.00
    1    4    6      6.38      0.00
    2    4    6    -11.55      0.00
    3    4    6     -5.96      0.00
    4    4    6    -11.82      0.00
   -4    5    6      7.48      0.00
   -3    5    6     -7.07      0.00
   -2    5    6     11.80      0.00
   -1    5    6      5.32      0.00
    0    5    6     13.98      0.00
    1    5    6    -25.48      0.00
    2    5    6     -0.31      0.00
    3    5    6     -0.92      0.00
    4    5    6     12.05      0.00
    5    5    6     -1.25      0.00
   -5    6    6      4.01      0.00
   -4    6    6     11.26      0.00
   -3    6    6      7.47      0.00
   -2    6    6     13.02      0.00
   -1    6    6      0.33      0.00
    0    6    6      0.58      0.00
    1    6    6      0.25      0.00
    2    6    6     11.86      0.00
    3    6    6      0.09      0.00
    4    6    6     -1.84      0.00
    5    6    6      3.05      0.00
    6    6    6      8.20      0.00
   -6    7    6     -4.58      0.00
   -5    7    6      1.48      0.00
   -4    7    6     -5.35      0.00
   -3    7    6      2.11      0.00
   -2    7    6     -8.77      0.00
   -1    7    6      7.36      0.00
    0    7    6     -6.81      0.00
    1    7    6     10.11      0.00
    2    7    6     -8.71      0.00
    3    7    6      8.17      0.00
    4    7    6      4.05      0.00
    5    7    6      0.65      0.00
    6    7    6    -11.36      0.00
    7    7    6      0.88      0.00
   -7    8    6     -9.66      0.00
   -6    8    6    -12.24      0.00
   -5    8    6     -0.72      0.00
   -4    8    6     -4.25      0.00
   -3    8    6     -7.63      0.00
   -2    8    6     -9.04      0.00
   -1    8    6      0.68      0.00
    0    8    6      2.10      0.00
    1    8    6     -3.22      0.00
    2    8    6     -8.24      0.00
    3    8    6      1.91      0.00
    4    8    6      3.66      0.00
    5    8    6     -3.55      0.00
    6    8    6     -3.85      0.00
    7    8    6      1.75      0.00
    8    8    6     -0.91      0.00
   -8    9    6     -2.86      0.00
   -7    9    6     -6.34      0.00
   -6    9    6      7.95      0.00
   -5    9    6      2.47      0.00
   -4    9    6     -2.06      0.00
   -3    9    6     -5.91      0.00
   -2    9    6     12.04      0.00
   -1    9    6     -5.88      0.00
    0    9    6      0.25      0.00
    1    9    6     -9.52      0.00
    2    9    6      8.46      0.00
    3    9    6     -0.23      0.00
    4    9    6      0.53      0.00
    5    9    6     -8.56      0.00
    6    9    6      0.68      0.00
    7    9    6      1.46      0.00
    8    9    6      4.41      0.00
    9    9    6     -2.60      0.00
   -9   10    6      3.84      0.00
   -8   10    6     -1.32      0.00
   -7   10    6      8.39      0.00
   -6   10    6     13.78      0.00
   -5   10    6      0.11      0.00
   -4   10    6      0.37      0.00
   -3   10    6      5.13      0.00
   -2   10    6      4.23      0.00
   -1   10    6      1.35      0.00
    0   10    6     -1.49      0.00
    1   10    6      1.67      0.00
    2   10    6      2.80      0.00
    3   10    6      0.47      0.00
    4   10    6     -3.47      0.00
    5   10    6      1.54      0.00
    6   10    6      6.40      0.00
    7   10    6      2.45      0.00
    8   10    6     -1.07      0.00
    9   10    6     -2.13      0.00
   10   10    6      2.66      0.00
  -10   11    6     -1.15      0.00
   -9   11    6      1.01      0.00
   -8   11    6      3.14      0.00
   -7   11    6      5.70      0.00
   -6   11    6     -3.05      0.00
   -5   11    6      0.90      0.00
   -4   11    6     -3.20      0.00
   -3   11    6      5.52      0.00
   -2   11    6     -2.06      0.00
   -1   11    6      4.22      0.00
    0   11    6     -6.60      0.00
    1   11    6      6.46      0.00
    2   11    6     -1.74      0.00
    3   11    6     -0.33      0.00
    4   11    6      0.23      0.00
    5   11    6      7.58      0.00
    6   11    6     -3.73      0.00
    7   11    6     -0.91      0.00
    8   11    6      0.72      0.00
    9   11    6      1.20      0.00
   10   11    6     -2.50      0.00
   11   11    6      1.82      0.00
  -11   12    6     -1.82      0.00
  -10   12    6     -4.54      0.00
   -9   12    6     -3.65      0.00
   -8   12    6     -1.03      0.00
   -7   12    6     -4.45      0.00
   -6   12    6     -5.30      0.00
   -5   12    6     -2.92      0.00
   -4   12    6     -0.89      0.00
   -3   12    6     -1.13      0.00
   -2   12    6     -0.83      0.00
   -1   12    6     -4.55      0.00
    0   12    6      0.84      0.00
    1   12    6      1.44      0.00
    2   12    6      0.71      0.00
    3   12    6     -2.07      0.00
    4   12    6      0.98      0.00
    5   12    6     -4.23      0.00
    6   12    6     -7.13      0.00
    7   12    6      0.60      0.00
    8   12    6      2.98      0.00
    9   12    6      0.22      0.00
   10   12    6     -1.22      0.00
   11   12    6      0.91      0.00
   12   12    6      3.35      0.00
  -12   13    6      0.66      0.00
  -11   13    6     -1.25      0.00
  -10   13    6     -1.38      0.00
   -9   13    6      0.44      0.00
   -8   13    6      1.09      0.00
   -7   13    6     -3.88      0.00
   -6   13    6     -1.38      0.00
   -5   13    6     -4.31      0.00
   -4   13    6      0.53      0.00
   -3   13    6     -5.13      0.00
   -2   13    6      4.94      0.00
   -1   13    6     -1.87      0.00
    0   13    6      0.65      0.00
    1   13    6     -3.02      0.00
    2   13    6      1.02      0.00
    3   13    6     -2.50      0.00
    4   13    6     -1.02      0.00
    5   13    6     -1.95      0.00
    6   13    6      2.07      0.00
    7   13    6     -0.94      0.00
    8   13    6     -0.12      0.00
    9   13    6     -2.71      0.00
   10   13    6      0.26      0.00
   11   13    6      1.15      0.00
   12   13    6      3.85      0.00
   13   13    6     -0.58      0.00
  -13   14    6     -0.47      0.00
  -12   14    6      0.84      0.00
  -11   14    6      5.78      0.00
  -10   14    6      3.05      0.00
   -9   14    6      1.58      0.00
   -8   14    6     -0.06      0.00
   -7   14    6      1.12      0.00
   -6   14    6      1.88      0.00
   -5   14    6      2.42      0.00
   -4   14    6     -3.38      0.00
   -3   14    6      4.42      0.00
   -2   14    6      4.21      0.00
   -1   14    6     -1.73      0.00
    0   14    6     -5.19      0.00
    1   14    6      2.98      0.00
    2   14    6      5.34      0.00
    3   14    6      1.62      0.00
    4   14    6     -3.21      0.00
    5   14    6      0.56      0.00
    6   14    6      6.15      0.00
    7   14    6      2.10      0.00
    8   14    6     -3.43      0.00
    9   14    6     -0.54      0.00
   10   14    6      0.56      0.00
   11   14    6      0.28      0.00
   12   14    6     -2.49      0.00
   13   14    6     -0.89      0.00
   14   14    6     -1.69      0.00
  -14   15    6     -0.36      0.00
  -13   15    6     -1.72      0.00
  -12   15    6      0.98      0.00
  -11   15    6      2.45      0.00
  -10   15    6      0.31      0.00
   -9   15    6     -0.18      0.00
   -8   15    6     -0.31      0.00
   -7   15    6      1.37      0.00
   -6   15    6      2.03      0.00
   -5   15    6      4.53      0.00
   -4   15    6      0.59      0.00
   -3   15    6      5.23      0.00
   -2   15    6     -1.34      0.00
   -1   15    6      0.42      0.00
    0   15    6      1.12      0.00
    1   15    6      2.95      0.00
    2   15    6     -0.36      0.00
    3   15    6     -0.93      0.00
    4   15    6     -0.06      0.00
    5   15    6      4.08      0.00
    6   15    6      1.40      0.00
    7   15    6     -2.87      0.00
    8   15    6     -0.90      0.00
    9   15    6      5.09      0.00
   10   15    6     -0.20      0.00
   11   15    6     -2.06      0.00
   12   15    6     -1.43      0.00
   13   15    6     -1.45      0.00
   14   15    6     -2.27      0.00
   15   15    6     -0.64      0.00
  -15   16    6     -2.71      0.00
  -14   16    6     -0.47      0.00
  -13   16    6      0.34      0.00
  -12   16    6      1.73      0.00
  -11   16    6     -1.63      0.00
  -10   16    6     -4.02      0.00
   -9   16    6     -4.34      0.00
   -8   16    6      1.08      0.00
   -7   16    6      1.97      0.00
   -6   16    6      2.44      0.00
   -5   16    6     -3.17      0.00
   -4   16    6      0.38      0.00
   -3   16    6      1.22      0.00
   -2   16    6      0.20      0.00
   -1   16    6     -3.35      0.00
    0   16    6     -1.96      0.00
    1   16    6      0.00      0.00
    2   16    6      0.31      0.00
    3   16    6     -0.90      0.00
    4   16    6     -3.78      0.00
    5   16    6      0.19      0.00
    6   16    6      0.98      0.00
    7   16    6     -0.66      0.00
    8   16    6      1.88      0.00
    9   16    6     -0.39      0.00
   10   16    6     -0.68      0.00
   11   16    6     -1.05      0.00
   12   16    6      1.73      0.00
   13   16    6      0.22      0.00
   14   16    6      1.26      0.00
   15   16    6      1.34      0.00
   16   16    6      0.95      0.00
  -15   17    6      0.36      0.00
  -14   17    6      1.22      0.00
  -13   17    6      0.45      0.00
  -12   17    6     -1.68      0.00
  -11   17    6     -1.85      0.00
  -10   17    6      0.18      0.00
   -9   17    6      0.96      0.00
   -8   17    6     -1.00      0.00
   -7   17    6     -3.38      0.00
   -6   17    6     -2.01      0.00
   -5   17    6      0.44      0.00
   -4   17    6      0.07      0.00
   -3   17    6     -5.60      0.00
   -2   17    6     -4.58      0.00
   -1   17    6     -0.99      0.00
    0   17    6     -0.50      0.00
    1   17    6     -2.10      0.00
    2   17    6      2.58      0.00
    3   17    6      0.11      0.00
    4   17    6     -2.14      0.00
    5   17    6      0.58      0.00
    6   17    6      1.69      0.00
    7   17    6     -2.00      0.00
    8   17    6     -2.36      0.00
    9   17    6      0.49      0.00
   10   17    6      0.03      0.00
   11   17    6     -0.94      0.00
   12   17    6      1.41      0.00
   13   17    6      1.28      0.00
   14   17    6      0.98      0.00
   15   17    6      0.90      0.00
  -14   18    6     -1.67      0.00
  -13   18    6      0.72      0.00
  -12   18    6     -0.08      0.00
  -11   18    6      1.16      0.00
  -10   18    6     -0.43      0.00
   -9   18    6     -0.55      0.00
   -8   18    6      0.96      0.00
   -7   18    6      2.92      0.00
   -6   18    6     -0.29      0.00
   -5   18    6     -1.82      0.00
   -4   18    6     -3.17      0.00
   -3   18    6     -1.41      0.00
   -2   18    6      1.02      0.00
   -1   18    6      1.29      0.00
    0   18    6      1.81      0.00
    1   18    6      2.47      0.00
    2   18    6      2.02      0.00
    3   18    6     -3.00      0.00
    4   18    6     -0.82      0.00
    5   18    6      1.97      0.00
    6   18    6      0.21      0.00
    7   18    6     -1.63      0.00
    8   18    6      0.05      0.00
    9   18    6      0.28      0.00
   10   18    6     -2.78      0.00
   11   18    6      2.83      0.00
   13   18    6     -2.11      0.00
  -12   19    6     -1.69      0.00
  -11   19    6      0.89      0.00
  -10   19    6      1.80      0.00
   -9   19    6      2.23      0.00
   -8   19    6      0.98      0.00
   -7   19    6     -0.03      0.00
   -6   19    6      1.24      0.00
   -5   19    6     -0.86      0.00
   -4   19    6      1.91      0.00
   -3   19    6      2.24      0.00
   -2   19    6      2.36      0.00
   -1   19    6      3.40      0.00
    0   19    6      1.84      0.00
    1   19    6      1.45      0.00
    2   19    6     -2.88      0.00
    3   19    6     -1.67      0.00
    4   19    6     -0.04      0.00
    5   19    6      1.48      0.00
    6   19    6     -1.13      0.00
    7   19    6      0.08      0.00
    8   19    6      2.17      0.00
    9   19    6     -0.79      0.00
  -11   20    6     -0.76      0.00
  -10   20    6      0.69      0.00
   -9   20    6      0.90      0.00
   -8   20    6     -1.57      0.00
   -7   20    6     -0.99      0.00
   -6   20    6     -0.62      0.00
   -5   20    6      1.82      0.00
   -4   20    6      0.72      0.00
   -3   20    6      0.45      0.00
   -2   20    6      1.73      0.00
   -1   20    6      1.05      0.00
    0   20    6     -1.05      0.00
    1   20    6     -0.33      0.00
    2   20    6     -1.93      0.00
    3   20    6     -2.01      0.00
    4   20    6      2.29      0.00
    5   20    6      2.34      0.00
    6   20    6     -0.61      0.00
    7   20    6     -1.76      0.00
   -9   21    6     -0.17      0.00
   -8   21    6     -0.40      0.00
   -7   21    6     -1.60      0.00
   -6   21    6     -0.76      0.00
   -5   21    6      2.99      0.00
   -4   21    6     -3.04      0.00
   -3   21    6     -0.53      0.00
   -2   21    6      1.26      0.00
   -1   21    6     -2.07      0.00
    0   21    6     -0.66      0.00
    1   21    6     -2.99      0.00
    2   21    6     -0.65      0.00
    3   21    6      1.88      0.00
    4   21    6      3.04      0.00
   -6   22    6      2.29      0.00
   -5   22    6     -0.23      0.00
   -4   22    6      0.89      0.00
   -3   22    6      1.13      0.00
   -2   22    6     -3.43      0.00
    0    0    7    -34.99      0.00
    0    1    7    -34.70      0.00
    1    1    7      8.13      0.00
   -1    2    7      6.73      0.00
    0    2    7      1.72      0.00
    1    2    7    -16.68      0.00
    2    2    7     25.95      0.00
   -2    3    7     14.65      0.00
   -1    3    7     -6.39      0.00
    0    3    7     11.94      0.00
    1    3    7      7.13      0.00
    2    3    7     16.11      0.00
    3    3    7    -11.49      0.00
   -3    4    7      2.58      0.00
   -2    4    7     -8.20      0.00
   -1    4    7     -0.21      0.00
    0    4    7    -16.79      0.00
    1    4    7     12.97      0.00
    2    4    7     -1.35      0.00
    3    4    7      8.31      0.00
    4    4    7    -13.20      0.00
   -4    5    7     -5.76      0.00
   -3    5    7     -5.49      0.00
   -2    5    7    -19.14      0.00
   -1    5    7     -3.86      0.00
    0    5    7      7.27      0.00
    1    5    7      6.79      0.00
    2    5    7    -18.79      0.00
    3    5    7     -8.86      0.00
    4    5    7      2.67      0.00
    5    5    7      6.94      0.00
   -5    6    7      2.80      0.00
   -4    6    7      5.12      0.00
   -3    6    7     -3.51      0.00
   -2    6    7     10.64      0.00
   -1    6    7     -0.22      0.00
    0    6    7      8.82      0.00
    1    6    7    -16.52      0.00
    2    6    7      5.39      0.00
    3    6    7     -0.94      0.00
    4    6    7      3.47      0.00
    5    6    7     -7.63      0.00
    6    6    7      5.29      0.00
   -6    7    7      7.03      0.00
   -5    7    7      3.00      0.00
   -4    7    7      7.81      0.00
   -3    7    7      5.44      0.00
   -2    7    7      6.21      0.00
   -1    7    7      2.10      0.00
    0    7    7      1.27      0.00
    1    7    7      2.23      0.00
    2    7    7      3.47      0.00
    3    7    7     -3.62      0.00
    4    7    7      2.28      0.00
    5    7    7      8.33      0.00
    6    7    7      0.53      0.00
    7    7    7     -8.35      0.00
   -7    8    7      2.32      0.00
   -6    8    7     -4.52      0.00
   -5    8    7     -3.43      0.00
   -4    8    7     -2.14      0.00
   -3    8    7      4.79      0.00
   -2    8    7     -8.10      0.00
   -1    8    7      3.63      0.00
    0    8    7     -5.74      0.00
    1    8    7     10.98      0.00
    2    8    7     -5.44      0.00
    3    8    7      1.74      0.00
    4    8    7     -1.93      0.00
    5    8    7      4.89      0.00
    6    8    7     -3.37      0.00
    7    8    7      2.79      0.00
    8    8    7     -1.11      0.00
   -8    9    7     -0.10      0.00
   -7    9    7     -9.70      0.00
   -6    9    7    -12.29      0.00
   -5    9    7      2.83      0.00
   -4    9    7     -2.12      0.00
   -3    9    7     -9.51      0.00
   -2    9    7     -3.16      0.00
   -1    9    7      2.21      0.00
    0    9    7      1.88      0.00
    1    9    7     -4.95      0.00
    2    9    7     -4.51      0.00
    3    9    7      1.08      0.00
    4    9    7      6.72      0.00
    5    9    7     -1.20      0.00
    6    9    7     -7.81      0.00
    7    9    7     -4.54      0.00
    8    9    7      2.60      0.00
    9    9    7      4.57      0.00
   -9   10    7      2.41      0.00
   -8   10    7     -0.42      0.00
   -7   10    7     -7.29      0.00
   -6   10    7      4.33      0.00
   -5   10    7      3.25      0.00
   -4   10    7      0.79      0.00
   -3   10    7     -5.02      0.00
   -2   10    7      4.48      0.00
   -1   10    7     -4.10      0.00
    0   10    7      5.08      0.00
    1   10    7     -7.06      0.00
    2   10    7      3.22      0.00
    3   10    7     -0.46      0.00
    4   10    7      2.29      0.00
    5   10    7     -7.27      0.00
    6   10    7      0.44      0.00
    7   10    7      1.09      0.00
    8   10    7      4.44      0.00
    9   10    7     -3.68      0.00
   10   10    7     -2.55      0.00
  -10   11    7      2.17      0.00
   -9   11    7      2.13      0.00
   -8   11    7      1.44      0.00
   -7   11    7      6.42      0.00
   -6   11    7      9.37      0.00
   -5   11    7      1.83      0.00
   -4   11    7     -0.91      0.00
   -3   11    7      1.21      0.00
   -2   11    7      1.71      0.00
   -1   11    7      5.47      0.00
    0   11    7     -3.87      0.00
    1   11    7     -1.54      0.00
    2   11    7      2.56      0.00
    3   11    7      1.81      0.00
    4   11    7     -5.33      0.00
    5   11    7      4.38      0.00
    6   11    7      6.99      0.00
    7   11    7      0.11      0.00
    8   11    7     -0.73      0.00
    9   11    7     -0.06      0.00
   10   11    7     -1.30      0.00
   11   11    7     -3.55      0.00
  -11   12    7      2.87      0.00
  -10   12    7      2.18      0.00
   -9   12    7     -1.93      0.00
   -8   12    7     -0.37      0.00
   -7   12    7      5.09      0.00
   -6   12    7      0.74      0.00
   -5   12    7      1.26      0.00
   -4   12    7     -3.19      0.00
   -3   12    7      4.30      0.00
   -2   12    7     -0.05      0.00
   -1   12    7      3.24      0.00
    0   12    7     -6.56      0.00
    1   12    7      2.24      0.00
    2   12    7      1.17      0.00
    3   12    7      2.32      0.00
    4   12    7     -0.82      0.00
    5   12    7      5.34      0.00
    6   12    7     -1.68      0.00
    7   12    7     -2.10      0.00
    8   12    7     -1.56      0.00
    9   12    7      3.83      0.00
   10   12    7      1.52      0.00
   11   12    7     -0.53      0.00
   12   12    7     -2.63      0.00
  -12   13    7      0.72      0.00
  -11   13    7     -0.38      0.00
  -10   13    7     -5.03      0.00
   -9   13    7     -5.86      0.00
   -8   13    7      0.05      0.00
   -7   13    7      0.24      0.00
   -6   13    7     -3.04      0.00
   -5   13    7     -3.22      0.00
   -4   13    7      1.51      0.00
   -3   13    7     -3.96      0.00
   -2   13    7     -0.75      0.00
   -1   13    7     -0.06      0.00
    0   13    7      2.46      0.00
    1   13    7     -1.36      0.00
    2   13    7      0.16      0.00
    3   13    7     -1.89      0.00
    4   13    7     -0.40      0.00
    5   13    7     -3.13      0.00
    6   13    7     -3.64      0.00
    7   13    7     -0.71      0.00
    8   13    7      2.19      0.00
    9   13    7      1.64      0.00
   10   13    7     -1.25      0.00
   11   13    7     -0.70      0.00
   12   13    7      5.22      0.00
   13   13    7      3.15      0.00
  -13   14    7      0.07      0.00
  -12   14    7     -1.49      0.00
  -11   14    7     -0.47      0.00
  -10   14    7     -0.05      0.00
   -9   14    7      0.13      0.00
   -8   14    7      0.37      0.00
   -7   14    7     -3.61      0.00
   -6   14    7     -2.79      0.00
   -5   14    7     -1.14      0.00
   -4   14    7     -0.60      0.00
   -3   14    7     -6.76      0.00
   -2   14    7      3.94      0.00
   -1   14    7      1.80      0.00
    0   14    7     -1.10      0.00
    1   14    7     -5.82      0.00
    2   14    7      0.18      0.00
    3   14    7      3.41      0.00
    4   14    7      1.18      0.00
    5   14    7     -6.46      0.00
    6   14    7     -1.97      0.00
    7   14    7      2.08      0.00
    8   14    7      1.59      0.00
    9   14    7     -3.33      0.00
   10   14    7     -0.78      0.00
   11   14    7      1.42      0.00
   12   14    7      2.02      0.00
   13   14    7      0.11      0.00
   14   14    7      0.74      0.00
  -14   15    7      0.54      0.00
  -13   15    7      0.86      0.00
  -12   15    7     -0.28      0.00
  -11   15    7      1.59      0.00
  -10   15    7      3.33      0.00
   -9   15    7      3.30      0.00
   -8   15    7      0.06      0.00
   -7   15    7     -0.36      0.00
   -6   15    7     -1.41      0.00
   -5   15    7      2.83      0.00
   -4   15    7     -2.70      0.00
   -3   15    7      1.20      0.00
   -2   15    7      2.51      0.00
   -1   15    7      2.08      0.00
    0   15    7     -2.39      0.00
    1   15    7      0.35      0.00
    2   15    7      4.20      0.00
    3   15    7      2.48      0.00
    4   15    7     -2.87      0.00
    5   15    7     -1.07      0.00
    6   15    7      6.23      0.00
    7   15    7      2.11      0.00
    8   15    7     -5.66      0.00
    9   15    7     -1.54      0.00
   10   15    7      2.17      0.00
   11   15    7      0.58      0.00
   12   15    7     -3.09      0.00
   13   15    7     -0.73      0.00
   14   15    7     -1.50      0.00
   15   15    7     -1.27      0.00
  -15   16    7      1.08      0.00
  -14   16    7     -2.11      0.00
  -13   16    7     -1.74      0.00
  -12   16    7      1.48      0.00
  -11   16    7      2.87      0.00
  -10   16    7      2.15      0.00
   -9   16    7     -1.58      0.00
   -8   16    7     -0.86      0.00
   -7   16    7      2.53      0.00
   -6   16    7      3.49      0.00
   -5   16    7      2.41      0.00
   -4   16    7     -0.70      0.00
   -3   16    7      3.11      0.00
   -2   16    7      4.33      0.00
   -1   16    7      1.96      0.00
    0   16    7     -2.05      0.00
    1   16    7      0.78      0.00
    2   16    7      0.61      0.00
    3   16    7      2.00      0.00
    4   16    7     -0.94      0.00
    5   16    7     -0.57      0.00
    6   16    7      1.08      0.00
    7   16    7      1.35      0.00
    8   16    7      0.87      0.00
    9   16    7      1.89      0.00
   10   16    7      0.57      0.00
   11   16    7     -1.45      0.00
   12   16    7     -1.46      0.00
   13   16    7     -0.94      0.00
   14   16    7     -0.72      0.00
   15   16    7     -0.31      0.00
  -13   17    7      0.79      0.00
  -12   17    7      0.02      0.00
  -11   17    7     -1.74      0.00
  -10   17    7     -1.48      0.00
   -9   17    7     -0.88      0.00
   -8   17    7      2.17      0.00
   -7   17    7     -1.21      0.00
   -6   17    7     -1.13      0.00
   -5   17    7     -1.09      0.00
   -4   17    7      4.16      0.00
   -3   17    7      2.94      0.00
   -2   17    7     -2.31      0.00
   -1   17    7     -4.21      0.00
    0   17    7     -0.79      0.00
    1   17    7     -1.33      0.00
    2   17    7     -2.45      0.00
    3   17    7      2.07      0.00
    4   17    7     -0.78      0.00
    5   17    7     -1.34      0.00
    6   17    7      0.74      0.00
    7   17    7      1.97      0.00
    8   17    7     -0.07      0.00
    9   17    7     -0.83      0.00
   10   17    7      1.46      0.00
   11   17    7     -1.23      0.00
   12   17    7      1.25      0.00
   13   17    7      1.29      0.00
   14   17    7      0.58      0.00
  -12   18    7      0.24      0.00
  -11   18    7     -0.32      0.00
  -10   18    7     -0.64      0.00
   -9   18    7     -1.91      0.00
   -8   18    7     -4.09      0.00
   -7   18    7     -1.17      0.00
   -6   18    7      1.65      0.00
   -5   18    7      1.35      0.00
   -4   18    7     -3.54      0.00
   -3   18    7     -3.87      0.00
   -2   18    7     -3.23      0.00
   -1   18    7     -2.66      0.00
    0   18    7     -1.45      0.00
    1   18    7     -0.98      0.00
    2   18    7      4.58      0.00
    3   18    7     -0.17      0.00
    4   18    7     -1.63      0.00
    5   18    7     -0.46      0.00
    6   18    7      1.66      0.00
    7   18    7     -1.41      0.00
    8   18    7     -2.69      0.00
    9   18    7      1.83      0.00
   10   18    7     -1.38      0.00
   11   18    7     -2.28      0.00
   12   18    7      2.77      0.00
   13   18    7      1.63      0.00
  -11   19    7     -1.83      0.00
  -10   19    7     -1.69      0.00
   -9   19    7      2.13      0.00
   -8   19    7      1.97      0.00
   -7   19    7     -0.45      0.00
   -6   19    7     -0.67      0.00
   -5   19    7     -0.31      0.00
   -4   19    7     -0.99      0.00
   -3   19    7     -2.08      0.00
   -2   19    7     -0.60      0.00
   -1   19    7      0.85      0.00
    0   19    7      2.28      0.00
    1   19    7      1.48      0.00
    2   19    7      1.82      0.00
    3   19    7      0.01      0.00
    4   19    7     -1.97      0.00
    5   19    7     -1.67      0.00
    6   19    7      1.47      0.00
    7   19    7      0.09      0.00
    8   19    7     -0.90      0.00
    9   19    7     -0.27      0.00
   10   19    7     -1.45      0.00
   11   19    7      2.08      0.00
   -9   20    7      1.58      0.00
   -8   20    7      2.33      0.00
   -7   20    7      0.51      0.00
   -6   20    7      0.39      0.00
   -5   20    7     -1.82      0.00
   -4   20    7      2.95      0.00
   -3   20    7      1.16      0.00
   -2   20    7      0.25      0.00
   -1   20    7      2.66      0.00
    0   20    7      1.30      0.00
    1   20    7      3.09      0.00
    2   20    7     -1.74      0.00
    3   20    7     -2.62      0.00
    4   20    7     -3.33      0.00
    5   20    7      2.16      0.00
    6   20    7      2.27      0.00
    7   20    7     -0.61      0.00
    8   20    7     -0.34      0.00
    9   20    7      0.05      0.00
   10   20    7      1.66      0.00
   -7   21    7      0.73      0.00
   -6   21    7     -2.10      0.00
   -5   21    7      1.72      0.00
   -4   21    7      0.40      0.00
   -3   21    7     -0.76      0.00
   -2   21    7      1.06      0.00
   -1   21    7      1.36      0.00
    0   21    7      1.24      0.00
    1   21    7      0.48      0.00
    2   21    7     -3.00      0.00
    3   21    7     -3.14      0.00
    4   21    7      2.61      0.00
    5   21    7      2.00      0.00
    6   21    7     -0.76      0.00
    7   21    7     -0.96      0.00
    8   21    7      0.69      0.00
   -4   22    7     -2.98      0.00
   -3   22    7      1.15      0.00
   -2   22    7      3.31      0.00
   -1   22    7     -2.71      0.00
    0   22    7     -1.66      0.00
    1   22    7     -1.34      0.00
    2   22    7      0.44      0.00
    4   22    7      2.24      0.00
    0    0    8     41.09      0.00
    0    1    8    -19.93      0.00
    1    1    8     -7.87      0.00
   -1    2    8      7.58      0.00
    0    2    8     -5.40      0.00
    1    2    8     -7.46      0.00
    2    2    8    -19.54      0.00
   -2    3    8     16.10      0.00
   -1    3    8     -3.32      0.00
    0    3    8      5.63      0.00
    1    3    8     -7.86      0.00
    2    3    8     15.20      0.00
    3    3    8     -1.43      0.00
   -3    4    8     -0.31      0.00
   -2    4    8     10.85      0.00
   -1    4    8      6.46      0.00
    0    4    8      1.98      0.00
    1    4    8     -7.50      0.00
    2    4    8      8.39      0.00
    3    4    8      6.60      0.00
    4    4    8      6.35      0.00
   -4    5    8     -6.83      0.00
   -3    5    8      6.42      0.00
   -2    5    8     -8.52      0.00
   -1    5    8     -8.06      0.00
    0    5    8    -14.42      0.00
    1    5    8     22.27      0.00
    2    5    8      1.85      0.00
    3    5    8     -3.38      0.00
    4    5    8    -13.34      0.00
    5    5    8      7.32      0.00
   -5    6    8     -3.27      0.00
   -4    6    8     -5.88      0.00
   -3    6    8     -5.71      0.00
   -2    6    8     -9.17      0.00
   -1    6    8     -1.39      0.00
    0    6    8      4.67      0.00
    1    6    8     -0.41      0.00
    2    6    8     -9.89      0.00
    3    6    8     -0.33      0.00
    4    6    8      3.15      0.00
    5    6    8     -3.50      0.00
    6    6    8     -6.08      0.00
   -6    7    8      4.75      0.00
   -5    7    8      2.53      0.00
   -4    7    8      3.69      0.00
   -3    7    8     -1.78      0.00
   -2    7    8      6.42      0.00
   -1    7    8     -3.21      0.00
    0    7    8      7.95      0.00
    1    7    8     -9.23      0.00
    2    7    8      5.50      0.00
    3    7    8     -6.14      0.00
    4    7    8     -0.32      0.00
    5    7    8     -1.44      0.00
    6    7    8      8.55      0.00
    7    7    8     -1.32      0.00
   -7    8    8      4.70      0.00
   -6    8    8      7.97      0.00
   -5    8    8      1.76      0.00
   -4    8    8      4.34      0.00
   -3    8    8      4.63      0.00
   -2    8    8      2.75      0.00
   -1    8    8      3.25      0.00
    0    8    8     -1.59      0.00
    1    8    8      0.34      0.00
    2    8    8      2.14      0.00
    3    8    8      0.76      0.00
    4    8    8     -1.36      0.00
    5    8    8      2.57      0.00
    6    8    8     -0.01      0.00
    7    8    8      1.29      0.00
    8    8    8      3.37      0.00
   -8    9    8     -0.44      0.00
   -7    9    8      5.22      0.00
   -6    9    8     -6.71      0.00
   -5    9    8     -3.89      0.00
   -4    9    8      1.94      0.00
   -3    9    8      3.64      0.00
   -2    9    8     -7.29      0.00
   -1    9    8      3.04      0.00
    0    9    8     -2.82      0.00
    1    9    8      9.25      0.00
    2    9    8     -3.99      0.00
    3    9    8     -1.59      0.00
    4    9    8     -3.66      0.00
    5    9    8     10.31      0.00
    6    9    8      1.42      0.00
    7    9    8     -3.55      0.00
    8    9    8     -7.76      0.00
    9    9    8      4.75      0.00
   -9   10    8     -5.76      0.00
   -8   10    8     -1.73      0.00
   -7   10    8     -5.61      0.00
   -6   10    8     -9.71      0.00
   -5   10    8      0.36      0.00
   -4   10    8     -1.38      0.00
   -3   10    8     -3.30      0.00
   -2   10    8      0.40      0.00
   -1   10    8     -3.28      0.00
    0   10    8      2.53      0.00
    1   10    8     -0.58      0.00
    2   10    8     -0.64      0.00
    3   10    8     -0.93      0.00
    4   10    8      4.38      0.00
    5   10    8     -2.89      0.00
    6   10    8     -4.80      0.00
    7   10    8     -3.91      0.00
    8   10    8      1.47      0.00
    9   10    8      3.51      0.00
   10   10    8     -1.37      0.00
  -10   11    8     -0.11      0.00
   -9   11    8      1.05      0.00
   -8   11    8     -0.60      0.00
   -7   11    8     -5.99      0.00
   -6   11    8      2.09      0.00
   -5   11    8      2.72      0.00
   -4   11    8      2.44      0.00
   -3   11    8     -5.56      0.00
   -2   11    8     -1.32      0.00
   -1   11    8     -0.81      0.00
    0   11    8      7.94      0.00
    1   11    8     -6.42      0.00
    2   11    8     -1.40      0.00
    3   11    8      1.31      0.00
    4   11    8      1.82      0.00
    5   11    8     -7.84      0.00
    6   11    8      1.37      0.00
    7   11    8      1.05      0.00
    8   11    8      1.89      0.00
    9   11    8     -1.59      0.00
   10   11    8     -0.91      0.00
   11   11    8     -1.15      0.00
  -11   12    8      0.15      0.00
  -10   12    8      5.98      0.00
   -9   12    8      4.67      0.00
   -8   12    8      0.32      0.00
   -7   12    8      1.65      0.00
   -6   12    8      5.28      0.00
   -5   12    8      3.32      0.00
   -4   12    8     -0.88      0.00
   -3   12    8     -0.22      0.00
   -2   12    8     -0.73      0.00
   -1   12    8      5.27      0.00
    0   12    8     -1.27      0.00
    1   12    8     -2.76      0.00
    2   12    8     -2.76      0.00
    3   12    8      3.69      0.00
    4   12    8     -0.82      0.00
    5   12    8      3.53      0.00
    6   12    8      4.55      0.00
    7   12    8      1.90      0.00
    8   12    8     -2.64      0.00
    9   12    8     -2.85      0.00
   10   12    8      0.01      0.00
   11   12    8      0.15      0.00
   12   12    8     -3.48      0.00
  -12   13    8     -2.27      0.00
  -11   13    8      2.09      0.00
  -10   13    8      3.91      0.00
   -9   13    8     -1.90      0.00
   -8   13    8     -3.43      0.00
   -7   13    8      4.53      0.00
   -6   13    8      3.35      0.00
   -5   13    8      1.05      0.00
   -4   13    8     -0.84      0.00
   -3   13    8      4.04      0.00
   -2   13    8     -2.40      0.00
   -1   13    8      1.11      0.00
    0   13    8     -1.75      0.00
    1   13    8      1.61      0.00
    2   13    8      0.72      0.00
    3   13    8      1.85      0.00
    4   13    8     -0.52      0.00
    5   13    8      3.34      0.00
    6   13    8      0.22      0.00
    7   13    8     -0.45      0.00
    8   13    8     -1.18      0.00
    9   13    8      4.24      0.00
   10   13    8      2.46      0.00
   11   13    8     -2.85      0.00
   12   13    8     -2.78      0.00
   13   13    8      2.55      0.00
  -13   14    8     -1.10      0.00
  -12   14    8     -0.59      0.00
  -11   14    8     -1.24      0.00
  -10   14    8     -3.69      0.00
   -9   14    8     -4.00      0.00
   -8   14    8     -0.09      0.00
   -7   14    8      1.01      0.00
   -6   14    8     -1.50      0.00
   -5   14    8     -3.04      0.00
   -4   14    8      4.17      0.00
   -3   14    8     -3.26      0.00
   -2   14    8     -3.10      0.00
   -1   14    8      0.24      0.00
    0   14    8      4.15      0.00
    1   14    8     -1.40      0.00
    2   14    8     -4.17      0.00
    3   14    8     -2.72      0.00
    4   14    8      4.12      0.00
    5   14    8     -0.74      0.00
    6   14    8     -5.51      0.00
    7   14    8     -1.62      0.00
    8   14    8      2.92      0.00
    9   14    8      1.56      0.00
   10   14    8     -0.58      0.00
   11   14    8      0.95      0.00
   12   14    8      3.63      0.00
   13   14    8      0.45      0.00
   14   14    8     -0.02      0.00
  -14   15    8      0.83      0.00
  -13   15    8      0.48      0.00
  -12   15    8     -0.01      0.00
  -11   15    8     -0.95      0.00
  -10   15    8     -2.52      0.00
   -9   15    8     -0.51      0.00
   -8   15    8      0.87      0.00
   -7   15    8     -1.49      0.00
   -6   15    8     -3.39      0.00
   -5   15    8     -1.87      0.00
   -4   15    8      0.81      0.00
   -3   15    8     -5.02      0.00
   -2   15    8     -2.10      0.00
   -1   15    8      1.72      0.00
    0   15    8      2.36      0.00
    1   15    8     -4.63      0.00
    2   15    8     -2.35      0.00
    3   15    8      3.40      0.00
    4   15    8      2.83      0.00
    5   15    8     -6.99      0.00
    6   15    8     -3.35      0.00
    7   15    8      3.29      0.00
    8   15    8      1.18      0.00
    9   15    8     -4.63      0.00
   10   15    8     -2.18      0.00
   11   15    8      1.79      0.00
   12   15    8      1.33      0.00
   13   15    8      0.62      0.00
   14   15    8     -0.19      0.00
   15   15    8     -0.20      0.00
  -13   16    8     -0.76      0.00
  -12   16    8     -0.67      0.00
  -11   16    8      0.22      0.00
  -10   16    8      3.79      0.00
   -9   16    8      3.37      0.00
   -8   16    8     -2.85      0.00
   -7   16    8     -0.44      0.00
   -6   16    8      0.31      0.00
   -5   16    8      3.18      0.00
   -4   16    8     -2.98      0.00
   -3   16    8     -2.92      0.00
   -2   16    8      1.97      0.00
   -1   16    8      6.18      0.00
    0   16    8      0.22      0.00
    1   16    8     -1.24      0.00
    2   16    8      1.65      0.00
    3   16    8      1.79      0.00
    4   16    8      1.26      0.00
    5   16    8     -0.49      0.00
    6   16    8      0.24      0.00
    7   16    8     -0.71      0.00
    8   16    8     -1.18      0.00
    9   16    8     -0.17      0.00
   10   16    8      0.67      0.00
   11   16    8     -0.09      0.00
   12   16    8     -2.33      0.00
   13   16    8     -0.66      0.00
   14   16    8     -1.06      0.00
  -12   17    8      1.88      0.00
  -11   17    8      0.32      0.00
  -10   17    8      0.67      0.00
   -9   17    8      0.50      0.00
   -8   17    8      3.06      0.00
   -7   17    8      2.88      0.00
   -6   17    8      0.34      0.00
   -5   17    8     -1.16      0.00
   -4   17    8      0.35      0.00
   -3   17    8      3.83      0.00
   -2   17    8      6.50      0.00
   -1   17    8      1.60      0.00
    0   17    8     -1.87      0.00
    1   17    8      1.24      0.00
    2   17    8     -2.22      0.00
    3   17    8      1.52      0.00
    4   17    8      0.49      0.00
    5   17    8     -0.30      0.00
    6   17    8     -0.48      0.00
    7   17    8      3.09      0.00
    8   17    8      2.18      0.00
    9   17    8     -0.95      0.00
   10   17    8      1.62      0.00
   12   17    8     -1.95      0.00
   13   17    8     -0.53      0.00
  -11   18    8      1.23      0.00
  -10   18    8      0.38      0.00
   -9   18    8     -0.55      0.00
   -8   18    8      0.62      0.00
   -7   18    8     -3.25      0.00
   -6   18    8     -1.16      0.00
   -5   18    8      1.90      0.00
   -4   18    8      3.57      0.00
   -3   18    8      1.63      0.00
   -2   18    8     -2.00      0.00
   -1   18    8     -2.84      0.00
    0   18    8     -1.99      0.00
    1   18    8     -2.59      0.00
    2   18    8     -0.98      0.00
    3   18    8      2.44      0.00
    4   18    8     -0.24      0.00
    5   18    8     -1.07      0.00
    6   18    8      0.12      0.00
    7   18    8      2.76      0.00
    8   18    8     -0.62      0.00
    9   18    8     -0.79      0.00
   10   18    8      2.27      0.00
   11   18    8     -1.07      0.00
   12   18    8      0.30      0.00
   -9   19    8     -3.62      0.00
   -8   19    8     -0.88      0.00
   -7   19    8      1.40      0.00
   -6   19    8     -1.40      0.00
   -5   19    8     -0.40      0.00
   -4   19    8     -1.70      0.00
   -3   19    8     -0.61      0.00
   -2   19    8     -3.27      0.00
   -1   19    8     -3.87      0.00
    0   19    8     -0.08      0.00
    1   19    8     -1.11      0.00
    2   19    8      2.25      0.00
    3   19    8      0.14      0.00
    4   19    8      3.55      0.00
    5   19    8     -2.15      0.00
    6   19    8     -2.70      0.00
    7   19    8      0.58      0.00
    8   19    8      0.03      0.00
    9   19    8      0.28      0.00
   10   19    8     -2.30      0.00
   -7   20    8     -0.24      0.00
   -6   20    8      2.29      0.00
   -5   20    8     -0.65      0.00
   -4   20    8     -2.19      0.00
   -3   20    8     -0.82      0.00
   -2   20    8      1.33      0.00
   -1   20    8     -0.35      0.00
    0   20    8     -1.47      0.00
    1   20    8      1.66      0.00
    2   20    8      4.09      0.00
    3   20    8      1.24      0.00
    4   20    8     -4.06      0.00
    5   20    8     -2.61      0.00
    6   20    8      3.12      0.00
    7   20    8      0.97      0.00
    8   20    8     -2.13      0.00
   -4   21    8      3.08      0.00
   -3   21    8     -0.37      0.00
   -2   21    8     -1.30      0.00
   -1   21    8      1.93      0.00
    0   21    8     -0.06      0.00
    1   21    8      3.64      0.00
    2   21    8     -0.39      0.00
    3   21    8     -2.17      0.00
    4   21    8     -3.56      0.00
    5   21    8      1.30      0.00
    0    0    9     27.10      0.00
    0    1    9     16.37      0.00
    1    1    9     -7.09      0.00
   -1    2    9     -1.94      0.00
    0    2    9     -4.43      0.00
    1    2    9      7.72      0.00
    2    2    9    -16.04      0.00
   -2    3    9     -3.68      0.00
   -1    3    9      2.82      0.00
    0    3    9     -6.94      0.00
    1    3    9     -2.77      0.00
    2    3    9     -5.55      0.00
    3    3    9      5.54      0.00
   -3    4    9      1.97      0.00
   -2    4    9      4.03      0.00
   -1    4    9     -0.18      0.00
    0    4    9     15.01      0.00
    1    4    9    -10.26      0.00
    2    4    9     -0.42      0.00
    3    4    9     -5.91      0.00
    4    4    9     11.44      0.00
   -4    5    9      0.81      0.00
   -3    5    9      3.08      0.00
   -2    5    9     12.71      0.00
   -1    5    9      4.13      0.00
    0    5    9    -10.06      0.00
    1    5    9     -5.89      0.00
    2    5    9     13.65      0.00
    3    5    9      8.57      0.00
    4    5    9     -3.21      0.00
    5    5    9     -5.58      0.00
   -5    6    9     -2.15      0.00
   -4    6    9     -2.19      0.00
   -3    6    9      0.82      0.00
   -2    6    9     -8.96      0.00
   -1    6    9     -1.80      0.00
    0    6    9     -6.22      0.00
    1    6    9     15.13      0.00
    2    6    9     -4.67      0.00
    3    6    9      0.42      0.00
    4    6    9     -1.89      0.00
    5    6    9      7.16      0.00
    6    6    9     -6.77      0.00
   -6    7    9     -5.20      0.00
   -5    7    9     -3.47      0.00
   -4    7    9     -5.03      0.00
   -3    7    9     -1.85      0.00
   -2    7    9     -2.74      0.00
   -1    7    9     -5.59      0.00
    0    7    9      1.29      0.00
    1    7    9      1.15      0.00
    2    7    9      0.50      0.00
    3    7    9     -0.32      0.00
    4    7    9     -3.98      0.00
    5    7    9     -5.44      0.00
    6    7    9      2.92      0.00
    7    7    9      3.58      0.00
   -7    8    9      0.71      0.00
   -6    8    9      4.34      0.00
   -5    8    9      1.20      0.00
   -4    8    9      1.31      0.00
   -3    8    9     -0.93      0.00
   -2    8    9      3.45      0.00
   -1    8    9     -3.28      0.00
    0    8    9      6.87      0.00
    1    8    9     -7.95      0.00
    2    8    9      0.96      0.00
    3    8    9     -3.58      0.00
    4    8    9      2.78      0.00
    5    8    9     -3.11      0.00
    6    8    9      2.29      0.00
    7    8    9     -2.93      0.00
    8    8    9      3.32      0.00
   -8    9    9      0.60      0.00
   -7    9    9      4.57      0.00
   -6    9    9      8.60      0.00
   -5    9    9     -0.60      0.00
   -4    9    9      2.34      0.00
   -3    9    9      3.81      0.00
   -2    9    9      0.64      0.00
   -1    9    9      2.49      0.00
    0    9    9     -3.77      0.00
    1    9    9      0.16      0.00
    2    9    9      1.98      0.00
    3    9    9      2.62      0.00
    4    9    9     -5.70      0.00
    5    9    9     -0.18      0.00
    6    9    9      5.63      0.00
    7    9    9      7.67      0.00
    8    9    9     -2.61      0.00
    9    9    9     -6.48      0.00
   -9   10    9     -0.67      0.00
   -8   10    9     -1.58      0.00
   -7   10    9      3.55      0.00
   -6   10    9     -4.81      0.00
   -5   10    9     -0.86      0.00
   -4   10    9      0.54      0.00
   -3   10    9      1.53      0.00
   -2   10    9     -1.46      0.00
   -1   10    9      3.58      0.00
    0   10    9     -3.73      0.00
    1   10    9      5.43      0.00
    2   10    9     -2.03      0.00
    3   10    9      0.24      0.00
    4   10    9     -0.19      0.00
    5   10    9      6.92      0.00
    6   10    9     -1.15      0.00
    7   10    9     -1.49      0.00
    8   10    9     -3.61      0.00
    9   10    9      3.66      0.00
   10   10    9      3.17      0.00
  -10   11    9     -1.84      0.00
   -9   11    9     -3.70      0.00
   -8   11    9     -1.89      0.00
   -7   11    9     -3.10      0.00
   -6   11    9     -7.09      0.00
   -5   11    9     -1.68      0.00
   -4   11    9      1.59      0.00
   -3   11    9      1.82      0.00
   -2   11    9     -1.18      0.00
   -1   11    9     -7.35      0.00
    0   11    9      4.03      0.00
    1   11    9      5.13      0.00
    2   11    9      0.36      0.00
    3   11    9     -4.97      0.00
    4   11    9      3.29      0.00
    5   11    9     -2.59      0.00
    6   11    9     -3.07      0.00
    7   11    9     -3.59      0.00
    8   11    9     -0.20      0.00
    9   11    9      1.80      0.00
   10   11    9      2.96      0.00
   11   11    9      1.48      0.00
  -11   12    9     -2.02      0.00
  -10   12    9     -1.84      0.00
   -9   12    9      2.39      0.00
   -8   12    9      1.85      0.00
   -7   12    9     -4.55      0.00
   -6   12    9     -0.57      0.00
   -5   12    9     -0.46      0.00
   -4   12    9      2.31      0.00
   -3   12    9     -3.31      0.00
   -2   12    9     -1.25      0.00
   -1   12    9     -2.15      0.00
    0   12    9      5.40      0.00
    1   12    9     -0.43      0.00
    2   12    9     -2.56      0.00
    3   12    9     -2.77      0.00
    4   12    9      0.77      0.00
    5   12    9     -4.04      0.00
    6   12    9      0.01      0.00
    7   12    9      1.20      0.00
    8   12    9      1.40      0.00
    9   12    9     -3.68      0.00
   10   12    9     -3.24      0.00
   11   12    9      0.47      0.00
   12   12    9      1.68      0.00
  -12   13    9     -1.37      0.00
  -11   13    9     -0.30      0.00
  -10   13    9      5.15      0.00
   -9   13    9      5.55      0.00
   -8   13    9     -0.03      0.00
   -7   13    9     -1.59      0.00
   -6   13    9      2.28      0.00
   -5   13    9      3.52      0.00
   -4   13    9     -1.62      0.00
   -3   13    9      1.04      0.00
   -2   13    9     -0.17      0.00
   -1   13    9      1.83      0.00
    0   13    9     -0.31      0.00
    1   13    9     -1.00      0.00
    2   13    9     -2.88      0.00
    3   13    9      3.41      0.00
    4   13    9      1.03      0.00
    5   13    9      3.10      0.00
    6   13    9      1.33      0.00
    7   13    9      1.38      0.00
    8   13    9     -1.65      0.00
    9   13    9     -1.35      0.00
   10   13    9      1.40      0.00
   11   13    9     -0.48      0.00
   12   13    9     -4.16      0.00
   13   13    9     -0.91      0.00
  -13   14    9     -0.97      0.00
  -12   14    9     -1.27      0.00
  -11   14    9      1.01      0.00
  -10   14    9      3.32      0.00
   -9   14    9      0.02      0.00
   -8   14    9     -3.31      0.00
   -7   14    9      2.55      0.00
   -6   14    9      3.88      0.00
   -5   14    9      0.53      0.00
   -4   14    9     -0.89      0.00
   -3   14    9      5.64      0.00
   -2   14    9     -1.38      0.00
   -1   14    9     -2.01      0.00
    0   14    9     -0.48      0.00
    1   14    9      3.80      0.00
    2   14    9      1.13      0.00
    3   14    9     -2.96      0.00
    4   14    9     -0.38      0.00
    5   14    9      6.38      0.00
    6   14    9      1.04      0.00
    7   14    9     -1.11      0.00
    8   14    9      0.88      0.00
    9   14    9      3.32      0.00
   10   14    9      0.83      0.00
   11   14    9     -1.36      0.00
   12   14    9      0.75      0.00
   13   14    9      1.47      0.00
   14   14    9     -0.15      0.00
  -13   15    9     -0.35      0.00
  -12   15    9     -0.86      0.00
  -11   15    9      0.11      0.00
  -10   15    9     -2.75      0.00
   -9   15    9     -3.27      0.00
   -8   15    9     -0.10      0.00
   -7   15    9      0.31      0.00
   -6   15    9      0.81      0.00
   -5   15    9     -3.37      0.00
   -4   15    9      3.46      0.00
   -3   15    9      0.72      0.00
   -2   15    9     -4.09      0.00
   -1   15    9     -4.35      0.00
    0   15    9      3.32      0.00
    1   15    9      1.73      0.00
    2   15    9     -4.82      0.00
    3   15    9     -4.56      0.00
    4   15    9      4.31      0.00
    5   15    9      1.06      0.00
    6   15    9     -4.86      0.00
    7   15    9     -1.42      0.00
    8   15    9      2.62      0.00
    9   15    9      1.44      0.00
   10   15    9     -0.64      0.00
   11   15    9      0.65      0.00
   13   15    9     -0.22      0.00
   14   15    9      1.57      0.00
  -11   16    9     -1.18      0.00
  -10   16    9     -3.56      0.00
   -9   16    9      0.81      0.00
   -8   16    9      0.76      0.00
   -7   16    9     -3.34      0.00
   -6   16    9     -2.98      0.00
   -5   16    9      0.22      0.00
   -4   16    9      2.77      0.00
   -3   16    9     -3.88      0.00
   -2   16    9     -7.27      0.00
   -1   16    9      0.34      0.00
    0   16    9      4.40      0.00
    1   16    9     -2.04      0.00
    2   16    9     -1.69      0.00
    3   16    9     -0.34      0.00
    4   16    9      1.65      0.00
    5   16    9     -2.02      0.00
    6   16    9     -1.24      0.00
    7   16    9     -1.50      0.00
    8   16    9     -1.33      0.00
    9   16    9     -2.33      0.00
   10   16    9     -1.71      0.00
   11   16    9      1.34      0.00
   12   16    9      0.69      0.00
  -10   17    9      0.97      0.00
   -9   17    9     -0.69      0.00
   -8   17    9     -2.19      0.00
   -7   17    9      4.27      0.00
   -6   17    9      1.63      0.00
   -5   17    9     -0.13      0.00
   -4   17    9     -3.77      0.00
   -3   17    9     -3.03      0.00
   -2   17    9      2.58      0.00
   -1   17    9      6.26      0.00
    0   17    9      1.55      0.00
    1   17    9      0.62      0.00
    2   17    9      0.19      0.00
    3   17    9     -0.42      0.00
    4   17    9      2.50      0.00
    5   17    9      1.07      0.00
    6   17    9     -2.78      0.00
    7   17    9     -2.28      0.00
    8   17    9      2.91      0.00
    9   17    9      0.04      0.00
   10   17    9     -2.10      0.00
   11   17    9      0.22      0.00
   -9   18    9      2.11      0.00
   -8   18    9      1.69      0.00
   -7   18    9      0.80      0.00
   -6   18    9      0.28      0.00
   -5   18    9     -1.21      0.00
   -4   18    9      0.31      0.00
   -3   18    9      2.80      0.00
   -2   18    9      6.47      0.00
   -1   18    9      1.99      0.00
    0   18    9     -1.66      0.00
    1   18    9      0.53      0.00
    2   18    9     -2.64      0.00
    3   18    9      1.85      0.00
    4   18    9     -0.76      0.00
    5   18    9      1.12      0.00
    6   18    9     -0.37      0.00
    7   18    9      1.42      0.00
    8   18    9      2.23      0.00
    9   18    9     -0.22      0.00
   10   18    9      1.40      0.00
   -6   19    9      0.42      0.00
   -5   19    9      0.61      0.00
   -4   19    9      0.75      0.00
   -3   19    9      1.26      0.00
   -2   19    9     -0.59      0.00
   -1   19    9     -1.63      0.00
    0   19    9     -1.52      0.00
    1   19    9     -2.15      0.00
    2   19    9     -0.78      0.00
    3   19    9     -1.07      0.00
    4   19    9      0.96      0.00
    5   19    9      2.70      0.00
    6   19    9     -1.18      0.00
    7   19    9     -0.40      0.00
    8   19    9      0.21      0.00
    9   19    9      0.80      0.00
   -5   20    9      2.18      0.00
   -4   20    9     -0.48      0.00
   -3   20    9     -2.17      0.00
   -2   20    9     -1.98      0.00
   -1   20    9     -0.23      0.00
    0   20    9      0.04      0.00
    1   20    9     -4.61      0.00
    2   20    9      2.03      0.00
    3   20    9      3.01      0.00
    4   20    9      3.62      0.00
    5   20    9     -4.57      0.00
    0    0   10    -21.50      0.00
    0    1   10     13.12      0.00
    1    1   10      3.92      0.00
   -1    2   10     -3.90      0.00
    0    2   10      5.28      0.00
    1    2   10      3.24      0.00
    2    2   10      5.68      0.00
   -2    3   10     -7.86      0.00
   -1    3   10      4.84      0.00
    0    3   10     -5.78      0.00
    1    3   10      3.23      0.00
    2    3   10     -8.39      0.00
    3    3   10      6.51      0.00
   -3    4   10      0.87      0.00
   -2    4   10     -2.41      0.00
   -1    4   10     -5.33      0.00
    0    4   10     -0.64      0.00
    1    4   10      5.89      0.00
    2    4   10     -3.40      0.00
    3    4   10     -7.47      0.00
    4    4   10     -5.31      0.00
   -4    5   10      4.98      0.00
   -3    5   10     -1.53      0.00
   -2    5   10      5.77      0.00
   -1    5   10      5.45      0.00
    0    5   10      9.66      0.00
    1    5   10    -16.82      0.00
    2    5   10     -1.58      0.00
    3    5   10      0.04      0.00
    4    5   10      8.92      0.00
    5    5   10     -3.88      0.00
   -5    6   10      0.62      0.00
   -4    6   10      4.69      0.00
   -3    6   10      5.77      0.00
   -2    6   10      4.52      0.00
   -1    6   10      0.39      0.00
    0    6   10     -6.21      0.00
    1    6   10      1.36      0.00
    2    6   10      6.25      0.00
    3    6   10      1.42      0.00
    4    6   10     -1.47      0.00
    5    6   10      3.31      0.00
    6    6   10      3.29      0.00
   -6    7   10     -2.63      0.00
   -5    7   10      0.55      0.00
   -4    7   10     -4.54      0.00
   -3    7   10     -2.07      0.00
   -2    7   10     -0.44      0.00
   -1    7   10      4.00      0.00
    0    7   10     -8.36      0.00
    1    7   10      5.89      0.00
    2    7   10     -0.87      0.00
    3    7   10      9.08      0.00
    4    7   10      0.38      0.00
    5    7   10     -2.77      0.00
    6    7   10     -7.29      0.00
    7    7   10      3.64      0.00
   -7    8   10     -3.33      0.00
   -6    8   10     -5.09      0.00
   -5    8   10     -0.76      0.00
   -4    8   10     -2.98      0.00
   -3    8   10     -2.32      0.00
   -2    8   10     -1.90      0.00
   -1    8   10     -5.52      0.00
    0    8   10      3.82      0.00
    1    8   10      3.49      0.00
    2    8   10     -0.20      0.00
    3    8   10     -4.42      0.00
    4    8   10     -0.35      0.00
    5    8   10     -0.69      0.00
    6    8   10      0.69      0.00
    7    8   10     -4.13      0.00
    8    8   10     -2.24      0.00
   -8    9   10      2.80      0.00
   -7    9   10     -1.39      0.00
   -6    9   10      3.82      0.00
   -5    9   10     -0.54      0.00
   -4    9   10      0.53      0.00
   -3    9   10      0.17      0.00
   -2    9   10      1.07      0.00
   -1    9   10     -3.74      0.00
    0    9   10      3.47      0.00
    1    9   10     -6.35      0.00
    2    9   10      0.50      0.00
    3    9   10     -1.05      0.00
    4    9   10      1.91      0.00
    5    9   10     -6.22      0.00
    6    9   10     -0.89      0.00
    7    9   10      2.37      0.00
    8    9   10      5.81      0.00
    9    9   10     -2.93      0.00
   -9   10   10      5.00      0.00
   -8   10   10      2.50      0.00
   -7   10   10      3.87      0.00
   -6   10   10      5.45      0.00
   -5   10   10     -1.10      0.00
   -4   10   10      1.45      0.00
   -3   10   10      1.08      0.00
   -2   10   10     -0.64      0.00
   -1   10   10      3.15      0.00
    0   10   10     -2.90      0.00
    1   10   10     -0.67      0.00
    2   10   10     -0.15      0.00
    3   10   10      0.85      0.00
    4   10   10     -3.49      0.00
    5   10   10      3.68      0.00
    6   10   10      3.80      0.00
    7   10   10      4.38      0.00
    8   10   10     -1.92      0.00
    9   10   10     -2.18      0.00
   10   10   10     -0.37      0.00
  -10   11   10      0.90      0.00
   -9   11   10     -0.25      0.00
   -8   11   10     -1.83      0.00
   -7   11   10      2.71      0.00
   -6   11   10     -1.72      0.00
   -5   11   10      0.30      0.00
   -4   11   10     -2.33      0.00
   -3   11   10      3.14      0.00
   -2   11   10      3.40      0.00
   -1   11   10      2.26      0.00
    0   11   10     -7.42      0.00
    1   11   10      1.99      0.00
    2   11   10      3.96      0.00
    3   11   10      2.26      0.00
    4   11   10     -1.47      0.00
    5   11   10      2.83      0.00
    6   11   10      0.28      0.00
    7   11   10      1.03      0.00
    8   11   10     -0.60      0.00
    9   11   10     -0.12      0.00
   10   11   10      1.22      0.00
   11   11   10      1.44      0.00
  -11   12   10     -1.04      0.00
  -10   12   10     -3.42      0.00
   -9   12   10     -3.25      0.00
   -8   12   10     -0.73      0.00
   -7   12   10     -0.90      0.00
   -6   12   10     -2.59      0.00
   -5   12   10     -2.01      0.00
   -4   12   10      0.98      0.00
   -3   12   10      0.75      0.00
   -2   12   10     -0.39      0.00
   -1   12   10     -3.51      0.00
    0   12   10      0.91      0.00
    1   12   10      3.52      0.00
    2   12   10      3.22      0.00
    3   12   10     -4.42      0.00
    4   12   10     -0.08      0.00
    5   12   10     -2.55      0.00
    6   12   10     -1.94      0.00
    7   12   10     -3.61      0.00
    8   12   10      1.74      0.00
    9   12   10      1.71      0.00
   10   12   10      0.56      0.00
   11   12   10     -0.90      0.00
   12   12   10      0.62      0.00
  -12   13   10      0.94      0.00
  -11   13   10     -1.89      0.00
  -10   13   10     -2.21      0.00
   -9   13   10      1.69      0.00
   -8   13   10      3.50      0.00
   -7   13   10     -2.95      0.00
   -6   13   10     -2.50      0.00
   -5   13   10     -1.69      0.00
   -4   13   10      2.46      0.00
   -3   13   10     -2.75      0.00
   -2   13   10      0.23      0.00
   -1   13   10     -2.79      0.00
    0   13   10      2.59      0.00
    1   13   10      2.77      0.00
    2   13   10     -1.72      0.00
    3   13   10     -4.16      0.00
    4   13   10     -1.44      0.00
    5   13   10     -0.10      0.00
    6   13   10      0.99      0.00
    7   13   10     -1.22      0.00
    8   13   10     -2.79      0.00
    9   13   10     -3.33      0.00
   10   13   10     -0.01      0.00
   11   13   10      2.57      0.00
   12   13   10     -1.20      0.00
   13   13   10     -2.73      0.00
  -12   14   10      0.66      0.00
  -11   14   10     -0.34      0.00
  -10   14   10      2.31      0.00
   -9   14   10      4.62      0.00
   -8   14   10      1.50      0.00
   -7   14   10     -2.26      0.00
   -6   14   10     -0.70      0.00
   -5   14   10      3.93      0.00
   -4   14   10     -3.40      0.00
   -3   14   10      1.19      0.00
   -2   14   10      3.68      0.00
   -1   14   10      1.03      0.00
    0   14   10     -2.55      0.00
    1   14   10     -0.43      0.00
    2   14   10      2.35      0.00
    3   14   10      3.17      0.00
    4   14   10     -2.88      0.00
    5   14   10      2.55      0.00
    6   14   10      2.32      0.00
    7   14   10      0.23      0.00
    8   14   10     -0.11      0.00
    9   14   10      0.94      0.00
   10   14   10     -0.18      0.00
   11   14   10     -2.01      0.00
   12   14   10      0.09      0.00
   13   14   10      1.73      0.00
  -10   15   10      3.04      0.00
   -9   15   10     -0.80      0.00
   -8   15   10     -1.94      0.00
   -7   15   10      2.23      0.00
   -6   15   10      2.70      0.00
   -5   15   10      0.16      0.00
   -4   15   10     -2.75      0.00
   -3   15   10      5.58      0.00
   -2   15   10      2.90      0.00
   -1   15   10     -3.00      0.00
    0   15   10     -3.07      0.00
    1   15   10      3.84      0.00
    2   15   10      2.86      0.00
    3   15   10     -3.84      0.00
    4   15   10     -1.35      0.00
    5   15   10      5.83      0.00
    6   15   10      1.21      0.00
    7   15   10     -0.66      0.00
    8   15   10      1.98      0.00
    9   15   10      2.70      0.00
   10   15   10      0.25      0.00
   11   15   10      0.23      0.00
   12   15   10      1.57      0.00
   -9   16   10     -2.21      0.00
   -8   16   10      1.02      0.00
   -7   16   10     -1.46      0.00
   -6   16   10      0.28      0.00
   -5   16   10     -3.13      0.00
   -4   16   10      2.60      0.00
   -3   16   10      3.29      0.00
   -2   16   10     -2.90      0.00
   -1   16   10     -6.90      0.00
    0   16   10      0.27      0.00
    1   16   10      1.45      0.00
    2   16   10     -2.08      0.00
    3   16   10     -3.08      0.00
    4   16   10      0.24      0.00
    5   16   10      0.11      0.00
    6   16   10      0.22      0.00
    7   16   10     -0.36      0.00
    8   16   10     -0.91      0.00
    9   16   10      1.27      0.00
   10   16   10     -0.38      0.00
   11   16   10     -0.68      0.00
   -8   17   10     -2.97      0.00
   -7   17   10     -3.83      0.00
   -6   17   10      1.17      0.00
   -5   17   10      2.99      0.00
   -4   17   10      1.14      0.00
   -3   17   10     -4.38      0.00
   -2   17   10     -7.48      0.00
   -1   17   10      0.08      0.00
    0   17   10      3.28      0.00
    1   17   10     -0.22      0.00
    2   17   10      0.85      0.00
    3   17   10     -2.50      0.00
    4   17   10     -0.22      0.00
    5   17   10      0.98      0.00
    6   17   10      1.29      0.00
    7   17   10     -4.53      0.00
    8   17   10     -2.89      0.00
    9   17   10      0.54      0.00
   10   17   10     -0.40      0.00
   -7   18   10      2.33      0.00
   -6   18   10     -1.00      0.00
   -5   18   10      0.99      0.00
   -4   18   10     -1.23      0.00
   -3   18   10     -3.35      0.00
   -2   18   10      1.60      0.00
   -1   18   10      5.52      0.00
    0   18   10      1.99      0.00
    1   18   10      0.97      0.00
    2   18   10     -0.55      0.00
    3   18   10      0.94      0.00
    4   18   10      1.34      0.00
    5   18   10     -0.28      0.00
    6   18   10     -1.20      0.00
    7   18   10     -0.99      0.00
    8   18   10      1.41      0.00
    9   18   10     -0.72      0.00
   -5   19   10     -1.26      0.00
   -4   19   10      0.25      0.00
   -3   19   10      1.76      0.00
   -2   19   10      3.76      0.00
   -1   19   10      1.10      0.00
    0   19   10     -0.06      0.00
    1   19   10      1.29      0.00
    2   19   10     -2.30      0.00
    3   19   10      0.56      0.00
    4   19   10     -2.63      0.00
    5   19   10      2.33      0.00
    6   19   10      0.82      0.00
   -2   20   10     -1.66      0.00
   -1   20   10     -0.34      0.00
    1   20   10     -2.38      0.00
    2   20   10     -2.55      0.00
    0    0   11    -13.34      0.00
    0    1   11    -10.41      0.00
    1    1   11      4.72      0.00
   -1    2   11     -1.42      0.00
    0    2   11      2.07      0.00
    1    2   11     -1.73      0.00
    2    2   11      9.33      0.00
   -2    3   11     -3.53      0.00
   -1    3   11      0.35      0.00
    0    3   11      6.45      0.00
    1    3   11      0.51      0.00
    2    3   11     -0.24      0.00
    3    3   11     -1.03      0.00
   -3    4   11     -5.02      0.00
   -2    4   11     -1.76      0.00
   -1    4   11      1.96      0.00
    0    4   11     -9.72      0.00
    1    4   11      6.00      0.00
    2    4   11      1.60      0.00
    3    4   11      7.86      0.00
    4    4   11     -8.56      0.00
   -4    5   11     -4.00      0.00
   -3    5   11     -4.04      0.00
   -2    5   11     -3.90      0.00
   -1    5   11     -1.89      0.00
    0    5   11      6.24      0.00
    1    5   11      2.48      0.00
    2    5   11     -7.51      0.00
    3    5   11     -7.23      0.00
    4    5   11      0.59      0.00
    5    5   11      2.69      0.00
   -5    6   11      0.65      0.00
   -4    6   11      2.14      0.00
   -3    6   11      1.97      0.00
   -2    6   11      5.15      0.00
   -1    6   11      0.60      0.00
    0    6   11      3.43      0.00
    1    6   11    -11.23      0.00
    2    6   11      1.97      0.00
    3    6   11     -3.76      0.00
    4    6   11      1.35      0.00
    5    6   11     -1.45      0.00
    6    6   11      4.34      0.00
   -6    7   11      1.32      0.00
   -5    7   11      2.42      0.00
   -4    7   11      6.12      0.00
   -3    7   11      1.01      0.00
   -2    7   11     -1.43      0.00
   -1    7   11      6.18      0.00
    0    7   11     -0.44      0.00
    1    7   11     -2.15      0.00
    2    7   11     -2.68      0.00
    3    7   11      1.67      0.00
    4    7   11      5.72      0.00
    5    7   11      5.19      0.00
    6    7   11     -2.79      0.00
    7    7   11     -3.24      0.00
   -7    8   11     -0.53      0.00
   -6    8   11     -2.61      0.00
   -5    8   11     -0.90      0.00
   -4    8   11     -2.02      0.00
   -3    8   11      1.37      0.00
   -2    8   11      1.79      0.00
   -1    8   11      1.03      0.00
    0    8   11     -7.93      0.00
    1    8   11      7.23      0.00
    2    8   11      4.44      0.00
    3    8   11      5.44      0.00
    4    8   11     -3.79      0.00
    5    8   11     -0.79      0.00
    6    8   11     -0.15      0.00
    7    8   11      2.68      0.00
    8    8   11     -2.86      0.00
   -8    9   11     -1.92      0.00
   -7    9   11     -3.35      0.00
   -6    9   11     -2.65      0.00
   -5    9   11      0.34      0.00
   -4    9   11     -4.02      0.00
   -3    9   11     -2.50      0.00
   -2    9   11      1.52      0.00
   -1    9   11     -1.43      0.00
    0    9   11      2.42      0.00
    1    9   11     -0.52      0.00
    2    9   11     -0.45      0.00
    3    9   11     -0.68      0.00
    4    9   11      2.64      0.00
    5    9   11     -2.03      0.00
    6    9   11     -4.99      0.00
    7    9   11     -4.93      0.00
    8    9   11      3.09      0.00
    9    9   11      3.49      0.00
   -9   10   11      0.22      0.00
   -8   10   11      1.78      0.00
   -7   10   11     -1.66      0.00
   -6   10   11      2.93      0.00
   -5   10   11     -0.25      0.00
   -4   10   11      1.25      0.00
   -3   10   11     -1.63      0.00
   -2   10   11     -2.41      0.00
   -1   10   11     -3.44      0.00
    0   10   11      4.13      0.00
    1   10   11     -3.39      0.00
    2   10   11     -0.20      0.00
    3   10   11     -2.11      0.00
    4   10   11     -1.01      0.00
    5   10   11     -3.00      0.00
    6   10   11      0.86      0.00
    7   10   11      1.19      0.00
    8   10   11      0.46      0.00
    9   10   11     -0.68      0.00
   10   10   11     -0.83      0.00
  -10   11   11      0.30      0.00
   -9   11   11      3.47      0.00
   -8   11   11      2.22      0.00
   -7   11   11      1.75      0.00
   -6   11   11      1.60      0.00
   -5   11   11      0.16      0.00
   -4   11   11      0.39      0.00
   -3   11   11     -0.52      0.00
   -2   11   11     -0.57      0.00
   -1   11   11      3.79      0.00
    0   11   11     -0.35      0.00
    1   11   11     -4.15      0.00
    2   11   11     -2.95      0.00
    3   11   11      3.41      0.00
    4   11   11      0.38      0.00
    5   11   11      2.20      0.00
    6   11   11      1.17      0.00
    7   11   11      3.58      0.00
    8   11   11      0.06      0.00
    9   11   11      0.07      0.00
   10   11   11     -2.55      0.00
   11   11   11      0.35      0.00
  -11   12   11      0.30      0.00
  -10   12   11     -0.75      0.00
   -9   12   11     -1.48      0.00
   -8   12   11     -1.23      0.00
   -7   12   11      1.98      0.00
   -6   12   11     -0.21      0.00
   -5   12   11      1.78      0.00
   -4   12   11     -2.40      0.00
   -3   12   11      3.20      0.00
   -2   12   11      1.01      0.00
   -1   12   11      2.30      0.00
    0   12   11     -4.82      0.00
    1   12   11     -1.15      0.00
    2   12   11      3.62      0.00
    3   12   11      3.52      0.00
    4   12   11     -0.87      0.00
    5   12   11     -0.02      0.00
    6   12   11      1.53      0.00
    7   12   11      0.09      0.00
    8   12   11      1.00      0.00
    9   12   11      0.86      0.00
   10   12   11      0.76      0.00
   11   12   11      0.01      0.00
   12   12   11      0.71      0.00
  -12   13   11     -0.26      0.00
  -11   13   11      0.15      0.00
  -10   13   11     -2.16      0.00
   -9   13   11     -3.83      0.00
   -8   13   11     -0.85      0.00
   -7   13   11      1.82      0.00
   -6   13   11      0.77      0.00
   -5   13   11     -3.44      0.00
   -4   13   11      0.87      0.00
   -3   13   11     -0.57      0.00
   -2   13   11      0.71      0.00
   -1   13   11     -0.59      0.00
    0   13   11     -2.88      0.00
    1   13   11      0.66      0.00
    2   13   11      4.91      0.00
    3   13   11     -1.09      0.00
    4   13   11     -3.04      0.00
    5   13   11     -4.93      0.00
    6   13   11      0.77      0.00
    7   13   11      0.52      0.00
    8   13   11      0.78      0.00
    9   13   11     -2.65      0.00
   10   13   11     -2.13      0.00
   11   13   11      1.11      0.00
   12   13   11      1.68      0.00
   13   13   11     -0.88      0.00
  -11   14   11     -1.28      0.00
  -10   14   11     -1.07      0.00
   -9   14   11      0.00      0.00
   -8   14   11      2.85      0.00
   -7   14   11     -0.66      0.00
   -6   14   11     -2.37      0.00
   -5   14   11     -0.48      0.00
   -4   14   11      2.54      0.00
   -3   14   11     -5.91      0.00
   -2   14   11      0.65      0.00
   -1   14   11      1.88      0.00
    0   14   11      2.49      0.00
    1   14   11     -1.01      0.00
    2   14   11     -2.46      0.00
    3   14   11      1.14      0.00
    4   14   11     -0.92      0.00
    5   14   11     -1.16      0.00
    6   14   11      0.94      0.00
    7   14   11     -2.30      0.00
    8   14   11     -4.63      0.00
    9   14   11      0.53      0.00
   10   14   11      2.62      0.00
   11   14   11     -1.20      0.00
   12   14   11     -3.49      0.00
   -9   15   11      3.88      0.00
   -8   15   11     -0.64      0.00
   -7   15   11     -1.43      0.00
   -6   15   11     -0.97      0.00
   -5   15   11      4.72      0.00
   -4   15   11     -3.28      0.00
   -3   15   11     -0.49      0.00
   -2   15   11      4.00      0.00
   -1   15   11      2.91      0.00
    0   15   11     -2.23      0.00
    1   15   11     -0.64      0.00
    2   15   11      4.10      0.00
    3   15   11      2.94      0.00
    4   15   11     -4.00      0.00
    5   15   11      1.49      0.00
    6   15   11      2.90      0.00
    7   15   11      0.30      0.00
    8   15   11     -0.55      0.00
    9   15   11      0.65      0.00
   10   15   11      0.91      0.00
   11   15   11     -0.50      0.00
   -8   16   11      1.72      0.00
   -7   16   11      1.97      0.00
   -6   16   11     -1.23      0.00
   -5   16   11     -0.76      0.00
   -4   16   11     -2.04      0.00
   -3   16   11      3.40      0.00
   -2   16   11      4.73      0.00
   -1   16   11     -1.01      0.00
    0   16   11     -3.30      0.00
    1   16   11      0.94      0.00
    2   16   11      1.42      0.00
    3   16   11     -0.98      0.00
    4   16   11     -0.63      0.00
    5   16   11      0.84      0.00
    6   16   11      0.41      0.00
    7   16   11      2.89      0.00
    9   16   11      0.53      0.00
   10   16   11      0.80      0.00
   -7   17   11     -3.16      0.00
   -6   17   11     -1.37      0.00
   -5   17   11     -1.87      0.00
   -4   17   11      3.52      0.00
   -3   17   11      2.94      0.00
   -1   17   11     -6.18      0.00
    0   17   11     -0.96      0.00
    1   17   11     -0.49      0.00
    2   17   11     -0.09      0.00
    3   17   11     -0.83      0.00
    4   17   11     -1.59      0.00
    5   17   11     -1.61      0.00
    6   17   11      2.18      0.00
    9   17   11      0.17      0.00
   -5   18   11      0.86      0.00
   -4   18   11      1.13      0.00
   -3   18   11     -2.06      0.00
   -2   18   11     -6.05      0.00
   -1   18   11     -0.02      0.00
    1   18   11      0.15      0.00
    2   18   11      0.67      0.00
    3   18   11     -1.86      0.00
    4   18   11      1.28      0.00
    5   18   11      0.69      0.00
    6   18   11      0.47      0.00
   -2   19   11      1.15      0.00
   -1   19   11      2.13      0.00
    0   19   11      0.86      0.00
    1   19   11      2.48      0.00
    2   19   11      0.17      0.00
    0    0   12     12.56      0.00
    0    1   12     -6.02      0.00
    1    1   12     -4.63      0.00
   -1    2   12      2.15      0.00
    0    2   12     -3.92      0.00
    1    2   12     -2.41      0.00
    2    2   12     -1.43      0.00
   -2    3   12      4.03      0.00
   -1    3   12     -5.18      0.00
    0    3   12      3.36      0.00
    1    3   12      0.02      0.00
    2    3   12      4.30      0.00
    3    3   12     -8.02      0.00
   -3    4   12     -1.40      0.00
   -2    4   12     -1.94      0.00
   -1    4   12      4.82      0.00
    0    4   12      1.09      0.00
    1    4   12     -3.57      0.00
    2    4   12      1.06      0.00
    3    4   12      6.42      0.00
    4    4   12      5.89      0.00
   -4    5   12     -1.75      0.00
   -3    5   12     -2.76      0.00
   -2    5   12     -5.49      0.00
   -1    5   12     -1.96      0.00
    0    5   12     -4.10      0.00
    1    5   12     10.89      0.00
    2    5   12      1.87      0.00
    3    5   12      2.04      0.00
    4    5   12     -7.42      0.00
    5    5   12      1.52      0.00
   -5    6   12     -2.84      0.00
   -4    6   12     -5.51      0.00
   -3    6   12     -3.02      0.00
   -2    6   12      0.73      0.00
   -1    6   12     -1.91      0.00
    0    6   12      3.09      0.00
    1    6   12     -1.37      0.00
    2    6   12     -2.57      0.00
    3    6   12     -1.89      0.00
    4    6   12     -1.91      0.00
    5    6   12     -3.36      0.00
    6    6   12     -1.17      0.00
   -6    7   12      3.24      0.00
   -5    7   12      0.59      0.00
   -4    7   12      1.95      0.00
   -3    7   12      2.51      0.00
   -2    7   12     -1.14      0.00
   -1    7   12     -2.68      0.00
    0    7   12      5.95      0.00
    1    7   12     -5.37      0.00
    2    7   12     -1.76      0.00
    3    7   12     -8.29      0.00
    4    7   12      0.60      0.00
    5    7   12      3.25      0.00
    6    7   12      4.13      0.00
    7    7   12     -1.43      0.00
   -7    8   12      1.97      0.00
   -6    8   12      2.17      0.00
   -5    8   12      2.00      0.00
   -4    8   12      2.75      0.00
   -3    8   12      0.33      0.00
   -2    8   12      0.20      0.00
   -1    8   12      6.87      0.00
    0    8   12     -2.57      0.00
    1    8   12     -5.12      0.00
    2    8   12     -1.26      0.00
    3    8   12      5.09      0.00
    4    8   12      3.62      0.00
    5    8   12      0.55      0.00
    6    8   12     -0.26      0.00
    7    8   12      1.21      0.00
    8    8   12      1.19      0.00
   -8    9   12     -0.53      0.00
   -7    9   12     -0.09      0.00
   -6    9   12     -3.19      0.00
   -5    9   12      0.34      0.00
   -4    9   12      1.12      0.00
   -3    9   12      0.62      0.00
   -2    9   12     -0.88      0.00
   -1    9   12      1.93      0.00
    0    9   12     -0.35      0.00
    1    9   12      6.56      0.00
    2    9   12     -1.12      0.00
    3    9   12      1.43      0.00
    4    9   12      0.00      0.00
    5    9   12      3.71      0.00
    6    9   12      0.29      0.00
    7    9   12     -3.42      0.00
    8    9   12     -2.72      0.00
    9    9   12      0.47      0.00
   -9   10   12     -2.69      0.00
   -8   10   12     -1.25      0.00
   -7   10   12     -1.62      0.00
   -6   10   12     -2.05      0.00
   -5   10   12     -0.98      0.00
   -4   10   12     -1.43      0.00
   -3   10   12      1.44      0.00
   -2   10   12      2.49      0.00
   -1   10   12     -3.88      0.00
    0   10   12     -1.01      0.00
    1   10   12      1.40      0.00
    2   10   12      2.84      0.00
    3   10   12      0.77      0.00
    4   10   12     -0.69      0.00
    5   10   12     -4.05      0.00
    6   10   12     -3.15      0.00
    7   10   12     -0.52      0.00
    8   10   12      1.89      0.00
    9   10   12     -1.75      0.00
   10   10   12      0.46      0.00
  -10   11   12      0.65      0.00
   -9   11   12     -0.17      0.00
   -8   11   12      0.66      0.00
   -7   11   12     -0.37      0.00
   -6   11   12      2.33      0.00
   -5   11   12     -1.06      0.00
   -4   11   12     -0.16      0.00
   -3   11   12     -3.03      0.00
   -2   11   12     -0.84      0.00
   -1   11   12     -2.59      0.00
    0   11   12      4.41      0.00
    1   11   12     -0.82      0.00
    2   11   12     -2.69      0.00
    3   11   12     -3.16      0.00
    4   11   12      1.45      0.00
    5   11   12      0.23      0.00
    6   11   12     -2.06      0.00
    7   11   12      0.13      0.00
    8   11   12     -0.05      0.00
    9   11   12      2.48      0.00
   10   11   12     -0.60      0.00
   11   11   12     -1.26      0.00
  -11   12   12      0.18      0.00
  -10   12   12      2.37      0.00
   -9   12   12      1.73      0.00
   -8   12   12     -0.32      0.00
   -7   12   12     -0.41      0.00
   -6   12   12     -0.82      0.00
   -5   12   12      2.22      0.00
   -4   12   12      0.49      0.00
   -3   12   12     -0.38      0.00
   -2   12   12     -2.03      0.00
   -1   12   12      1.81      0.00
    0   12   12      2.80      0.00
    1   12   12     -3.05      0.00
    2   12   12     -5.03      0.00
    3   12   12      2.58      0.00
    4   12   12      2.83      0.00
    5   12   12      1.30      0.00
    6   12   12      0.58      0.00
    7   12   12      1.74      0.00
    8   12   12     -1.59      0.00
    9   12   12      1.92      0.00
   10   12   12      0.88      0.00
   12   12   12     -0.77      0.00
  -11   13   12     -0.97      0.00
  -10   13   12     -0.14      0.00
   -9   13   12      0.73      0.00
   -8   13   12     -2.25      0.00
   -7   13   12     -0.33      0.00
   -6   13   12      1.24      0.00
   -5   13   12      1.61      0.00
   -4   13   12     -2.08      0.00
   -3   13   12      3.21      0.00
   -2   13   12     -1.84      0.00
   -1   13   12      2.42      0.00
    0   13   12     -1.86      0.00
    1   13   12     -3.18      0.00
    2   13   12      0.36      0.00
    3   13   12      3.56      0.00
    4   13   12      2.28      0.00
    5   13   12     -2.87      0.00
    6   13   12     -1.01      0.00
    7   13   12      1.18      0.00
    8   13   12      4.03      0.00
    9   13   12     -0.01      0.00
   10   13   12     -1.84      0.00
   11   13   12     -1.39      0.00
   12   13   12      1.34      0.00
   -9   14   12     -2.67      0.00
   -8   14   12      0.29      0.00
   -7   14   12      2.21      0.00
   -6   14   12      0.87      0.00
   -5   14   12     -4.14      0.00
   -4   14   12      3.92      0.00
   -3   14   12     -1.08      0.00
   -2   14   12     -2.80      0.00
   -1   14   12     -1.37      0.00
    0   14   12      0.10      0.00
    1   14   12      1.77      0.00
    2   14   12      0.66      0.00
    3   14   12     -1.79      0.00
    4   14   12     -0.60      0.00
    5   14   12     -3.50      0.00
    6   14   12      1.06      0.00
    7   14   12      2.28      0.00
    8   14   12     -1.81      0.00
    9   14   12     -4.70      0.00
   10   14   12      0.00      0.00
   11   14   12      2.99      0.00
   -8   15   12      1.92      0.00
   -7   15   12     -0.14      0.00
   -6   15   12     -1.38      0.00
   -5   15   12      0.02      0.00
   -4   15   12      2.66      0.00
   -3   15   12     -4.28      0.00
   -2   15   12      0.14      0.00
   -1   15   12      2.64      0.00
    0   15   12      1.51      0.00
    1   15   12     -2.47      0.00
    2   15   12     -1.31      0.00
    3   15   12      4.59      0.00
    4   15   12      0.02      0.00
    5   15   12     -2.48      0.00
    6   15   12     -0.67      0.00
    7   15   12     -0.57      0.00
    9   15   12      0.18      0.00
   10   15   12     -0.14      0.00
   -7   16   12      3.39      0.00
   -6   16   12      0.29      0.00
   -5   16   12      1.76      0.00
   -4   16   12     -2.33      0.00
   -3   16   12     -0.41      0.00
   -2   16   12      0.99      0.00
   -1   16   12      3.84      0.00
    0   16   12      1.11      0.00
    1   16   12      0.17      0.00
    2   16   12      1.01      0.00
    3   16   12      1.08      0.00
    4   16   12     -0.65      0.00
    5   16   12      1.76      0.00
    6   16   12     -0.13      0.00
   -5   17   12     -1.94      0.00
   -4   17   12     -1.19      0.00
   -3   17   12      2.69      0.00
   -2   17   12      4.23      0.00
   -1   17   12     -1.27      0.00
    0   17   12     -1.67      0.00
    1   17   12      0.04      0.00
    2   17   12     -0.42      0.00
    3   17   12     -0.24      0.00
    4   17   12      0.04      0.00
    5   17   12     -1.04      0.00
    6   17   12     -0.09      0.00
   -2   18   12     -1.82      0.00
   -1   18   12     -4.20      0.00
    0   18   12     -0.67      0.00
    1   18   12     -0.88      0.00
    2   18   12      0.16      0.00
    0    0   13      6.15      0.00
    0    1   13      5.83      0.00
    1    1   13     -0.54      0.00
   -1    2   13      0.79      0.00
    0    2   13     -0.86      0.00
    1    2   13      0.29      0.00
    2    2   13     -5.13      0.00
   -2    3   13      3.10      0.00
   -1    3   13     -0.11      0.00
    0    3   13     -3.26      0.00
    1    3   13     -1.71      0.00
    2    3   13      0.98      0.00
    3    3   13      0.20      0.00
   -3    4   13      6.61      0.00
   -2    4   13      0.73      0.00
   -1    4   13     -1.68      0.00
    0    4   13      5.56      0.00
    1    4   13     -4.03      0.00
    2    4   13     -1.57      0.00
    3    4   13     -4.99      0.00
    4    4   13      5.63      0.00
   -4    5   13      2.30      0.00
   -3    5   13      3.68      0.00
   -2    5   13      0.93      0.00
   -1    5   13      1.05      0.00
    0    5   13     -4.36      0.00
    1    5   13     -0.24      0.00
    2    5   13      5.06      0.00
    3    5   13      6.28      0.00
    4    5   13      0.46      0.00
    5    5   13     -2.32      0.00
   -5    6   13     -0.65      0.00
   -4    6   13     -1.22      0.00
   -3    6   13     -5.51      0.00
   -2    6   13     -2.71      0.00
   -1    6   13      1.45      0.00
    0    6   13     -0.79      0.00
    1    6   13      7.03      0.00
    2    6   13     -1.02      0.00
    3    6   13      3.70      0.00
    4    6   13     -1.09      0.00
    5    6   13      1.60      0.00
    6    6   13     -2.75      0.00
   -6    7   13     -3.55      0.00
   -5    7   13     -2.29      0.00
   -4    7   13     -2.07      0.00
   -3    7   13      0.39      0.00
   -2    7   13      0.64      0.00
   -1    7   13     -7.29      0.00
    0    7   13      1.48      0.00
    1    7   13      3.11      0.00
    2    7   13      1.48      0.00
    3    7   13     -3.51      0.00
    4    7   13     -5.51      0.00
    5    7   13     -2.73      0.00
    6    7   13      1.13      0.00
    7    7   13      3.26      0.00
   -7    8   13      1.18      0.00
   -6    8   13      2.14      0.00
   -5    8   13      0.30      0.00
   -4    8   13     -0.55      0.00
   -3    8   13      1.28      0.00
   -2    8   13     -1.76      0.00
   -1    8   13     -1.75      0.00
    0    8   13      4.50      0.00
    1    8   13     -5.26      0.00
    2    8   13     -3.90      0.00
    3    8   13     -5.50      0.00
    4    8   13      3.17      0.00
    5    8   13      0.47      0.00
    6    8   13      0.43      0.00
    7    8   13      1.33      0.00
    8    8   13      1.09      0.00
   -8    9   13      0.39      0.00
   -7    9   13      1.92      0.00
   -6    9   13      2.52      0.00
   -5    9   13      0.54      0.00
   -4    9   13      0.58      0.00
   -3    9   13      1.15      0.00
   -2    9   13      0.13      0.00
   -1    9   13      1.83      0.00
    0    9   13     -2.70      0.00
    1    9   13      0.60      0.00
    2    9   13      0.61      0.00
    3    9   13     -0.13      0.00
    4    9   13      0.04      0.00
    5    9   13      1.69      0.00
    6    9   13      3.97      0.00
    7    9   13      0.36      0.00
    8    9   13     -1.22      0.00
    9    9   13     -0.32      0.00
   -9   10   13      1.46      0.00
   -8   10   13     -0.84      0.00
   -7   10   13     -0.08      0.00
   -6   10   13     -1.65      0.00
   -5   10   13      0.35      0.00
   -4   10   13      0.28      0.00
   -3   10   13     -0.01      0.00
   -2   10   13      1.74      0.00
   -1   10   13      5.25      0.00
    0   10   13     -1.11      0.00
    1   10   13      0.63      0.00
    2   10   13     -2.12      0.00
    3   10   13      3.83      0.00
    4   10   13      2.05      0.00
    5   10   13      1.43      0.00
    6   10   13     -1.54      0.00
    7   10   13     -3.63      0.00
    8   10   13      1.00      0.00
    9   10   13     -0.39      0.00
   10   10   13     -0.23      0.00
   -9   11   13      0.13      0.00
   -8   11   13      0.44      0.00
   -7   11   13     -1.47      0.00
   -6   11   13     -0.71      0.00
   -5   11   13      0.18      0.00
   -4   11   13      1.04      0.00
   -3   11   13      0.68      0.00
   -2   11   13      0.63      0.00
   -1   11   13     -3.81      0.00
    0   11   13     -0.93      0.00
    1   11   13      4.48      0.00
    2   11   13      3.76      0.00
    3   11   13     -2.94      0.00
    4   11   13     -2.72      0.00
    5   11   13      0.87      0.00
    6   11   13     -0.40      0.00
    7   11   13     -1.28      0.00
    8   11   13     -0.57      0.00
    9   11   13     -1.51      0.00
   10   11   13      2.66      0.00
   11   11   13      0.87      0.00
  -11   12   13      0.10      0.00
  -10   12   13     -0.10      0.00
   -9   12   13      0.67      0.00
   -8   12   13      1.75      0.00
   -7   12   13      0.32      0.00
   -6   12   13     -0.57      0.00
   -5   12   13     -2.78      0.00
   -4   12   13      0.79      0.00
   -3   12   13     -0.09      0.00
   -2   12   13      1.44      0.00
   -1   12   13     -4.99      0.00
    0   12   13      1.65      0.00
    1   12   13      2.97      0.00
    2   12   13     -0.45      0.00
    3   12   13     -3.80      0.00
    4   12   13      0.79      0.00
    5   12   13      1.36      0.00
    6   12   13     -2.21      0.00
    7   12   13      2.47      0.00
    8   12   13     -0.72      0.00
    9   12   13     -0.35      0.00
   10   12   13     -0.12      0.00
   11   12   13      2.34      0.00
   -9   13   13      0.58      0.00
   -8   13   13     -0.06      0.00
   -7   13   13     -1.41      0.00
   -6   13   13     -1.08      0.00
   -5   13   13      2.87      0.00
   -4   13   13     -2.20      0.00
   -3   13   13      0.31      0.00
   -2   13   13     -0.46      0.00
   -1   13   13      1.35      0.00
    0   13   13      2.31      0.00
    1   13   13     -1.96      0.00
    2   13   13     -4.66      0.00
    3   13   13      0.18      0.00
    4   13   13      3.65      0.00
    5   13   13      2.44      0.00
    6   13   13     -1.96      0.00
    7   13   13     -2.13      0.00
    9   13   13      4.17      0.00
   10   13   13      0.68      0.00
   -8   14   13     -3.17      0.00
   -7   14   13     -0.23      0.00
   -6   14   13      1.83      0.00
   -5   14   13     -0.89      0.00
   -4   14   13     -1.45      0.00
   -3   14   13      4.58      0.00
   -2   14   13     -2.66      0.00
   -1   14   13     -0.94      0.00
    0   14   13     -1.41      0.00
    1   14   13     -0.69      0.00
    2   14   13      0.74      0.00
    3   14   13     -0.36      0.00
    4   14   13      1.17      0.00
    5   14   13     -1.92      0.00
    6   14   13     -0.84      0.00
    7   14   13      1.22      0.00
   -6   15   13      0.96      0.00
   -5   15   13     -3.28      0.00
   -4   15   13      2.75      0.00
   -3   15   13     -0.92      0.00
   -2   15   13     -1.62      0.00
   -1   15   13     -1.67      0.00
    0   15   13      1.40      0.00
    1   15   13      1.15      0.00
    2   15   13     -2.26      0.00
    3   15   13     -1.56      0.00
    4   15   13      2.18      0.00
    5   15   13     -0.67      0.00
    6   15   13     -0.29      0.00
    7   15   13      0.13      0.00
   -5   16   13      1.03      0.00
   -4   16   13      0.68      0.00
   -3   16   13     -0.40      0.00
   -2   16   13     -0.57      0.00
   -1   16   13     -0.75      0.00
    0   16   13      0.15      0.00
    1   16   13      1.14      0.00
    2   16   13      0.92      0.00
    3   16   13      2.37      0.00
    4   16   13     -1.03      0.00
    0    0   14     -5.35      0.00
    0    1   14      1.47      0.00
    1    1   14      0.48      0.00
   -1    2   14     -2.08      0.00
    0    2   14      1.40      0.00
    1    2   14      2.32      0.00
    2    2   14      0.72      0.00
   -2    3   14     -1.73      0.00
   -1    3   14      0.18      0.00
    0    3   14     -1.05      0.00
    1    3   14      1.18      0.00
    2    3   14     -3.03      0.00
    3    3   14      4.77      0.00
   -3    4   14     -0.20      0.00
   -2    4   14      1.95      0.00
   -1    4   14     -2.01      0.00
    0    4   14      0.67      0.00
    1    4   14      0.21      0.00
    2    4   14     -2.29      0.00
    3    4   14     -4.47      0.00
    4    4   14     -2.87      0.00
   -4    5   14      1.07      0.00
   -3    5   14      4.15      0.00
   -2    5   14      2.82      0.00
   -1    5   14      1.77      0.00
    0    5   14      1.14      0.00
    1    5   14     -7.16      0.00
    2    5   14     -0.94      0.00
    3    5   14     -0.43      0.00
    4    5   14      4.14      0.00
    5    5   14     -2.63      0.00
   -5    6   14      0.65      0.00
   -4    6   14      2.52      0.00
   -3    6   14      3.00      0.00
   -2    6   14     -1.42      0.00
   -1    6   14      0.88      0.00
    0    6   14     -2.04      0.00
    1    6   14      2.64      0.00
    2    6   14      2.29      0.00
    3    6   14      2.27      0.00
    4    6   14      0.95      0.00
    5    6   14      1.53      0.00
    6    6   14      2.82      0.00
   -6    7   14     -1.77      0.00
   -5    7   14     -2.85      0.00
   -4    7   14     -2.13      0.00
   -3    7   14     -3.32      0.00
   -2    7   14      4.60      0.00
   -1    7   14      1.69      0.00
    0    7   14     -5.20      0.00
    1    7   14      3.81      0.00
    2    7   14      3.24      0.00
    3    7   14      5.84      0.00
    4    7   14     -1.33      0.00
    5    7   14     -0.90      0.00
    6    7   14     -3.88      0.00
    7    7   14     -1.75      0.00
   -7    8   14     -2.73      0.00
   -6    8   14     -2.13      0.00
   -5    8   14      0.70      0.00
   -4    8   14     -0.74      0.00
   -3    8   14     -1.67      0.00
   -2    8   14     -0.76      0.00
   -1    8   14     -4.43      0.00
    0    8   14      2.48      0.00
    1    8   14      2.64      0.00
    2    8   14      0.17      0.00
    3    8   14     -4.52      0.00
    4    8   14     -2.79      0.00
    5    8   14      0.89      0.00
    6    8   14     -1.52      0.00
    7    8   14      0.20      0.00
    8    8   14     -0.24      0.00
   -8    9   14      1.80      0.00
   -7    9   14     -0.49      0.00
   -6    9   14      0.15      0.00
   -5    9   14      0.79      0.00
   -4    9   14     -0.50      0.00
   -3    9   14      0.90      0.00
   -2    9   14     -1.58      0.00
   -1    9   14     -2.79      0.00
    0    9   14     -0.67      0.00
    1    9   14     -3.51      0.00
    2    9   14      1.51      0.00
    3    9   14     -2.92      0.00
    4    9   14     -0.55      0.00
    5    9   14     -2.09      0.00
    6    9   14      2.02      0.00
    7    9   14      3.86      0.00
    8    9   14     -0.59      0.00
    9    9   14      0.45      0.00
   -9   10   14     -0.72      0.00
   -8   10   14      1.01      0.00
   -7   10   14      2.11      0.00
   -6   10   14      1.50      0.00
   -5   10   14     -1.24      0.00
   -4   10   14     -0.73      0.00
   -3   10   14      0.09      0.00
   -2   10   14     -1.05      0.00
   -1   10   14      1.82      0.00
    0   10   14      0.93      0.00
    1   10   14      0.89      0.00
    2   10   14     -2.61      0.00
    3   10   14     -1.87      0.00
    4   10   14      1.40      0.00
    5   10   14      1.43      0.00
    6   10   14      2.50      0.00
    7   10   14     -1.12      0.00
    8   10   14     -0.67      0.00
    9   10   14     -0.12      0.00
   10   10   14     -2.38      0.00
  -10   11   14     -0.52      0.00
   -9   11   14     -0.74      0.00
   -8   11   14     -0.25      0.00
   -7   11   14      0.62      0.00
   -6   11   14     -0.80      0.00
   -5   11   14      0.58      0.00
   -4   11   14      0.01      0.00
   -3   11   14      0.41      0.00
   -2   11   14      2.67      0.00
   -1   11   14      4.85      0.00
    0   11   14     -3.92      0.00
    1   11   14     -2.04      0.00
    2   11   14      2.12      0.00
    3   11   14      4.81      0.00
    4   11   14     -2.31      0.00
    5   11   14     -1.24      0.00
    6   11   14      1.39      0.00
    7   11   14     -2.08      0.00
    8   11   14      1.09      0.00
    9   11   14     -1.69      0.00
   10   11   14     -1.05      0.00
   -8   12   14      0.87      0.00
   -7   12   14      0.51      0.00
   -6   12   14      1.31      0.00
   -5   12   14     -0.73      0.00
   -4   12   14     -0.08      0.00
   -3   12   14     -0.47      0.00
   -2   12   14      2.05      0.00
   -1   12   14     -0.56      0.00
    0   12   14     -1.72      0.00
    1   12   14      1.53      0.00
    2   12   14      3.82      0.00
    3   12   14     -1.06      0.00
    4   12   14     -1.87      0.00
    5   12   14      2.38      0.00
    6   12   14     -0.48      0.00
    7   12   14     -1.10      0.00
    9   12   14      0.06      0.00
   -7   13   14     -0.21      0.00
   -6   13   14     -1.56      0.00
   -5   13   14     -0.06      0.00
   -4   13   14      1.63      0.00
   -3   13   14     -1.21      0.00
   -2   13   14      0.63      0.00
   -1   13   14     -3.42      0.00
    0   13   14      1.91      0.00
    1   13   14      3.81      0.00
    2   13   14      0.23      0.00
    3   13   14     -3.38      0.00
    4   13   14     -1.33      0.00
    5   13   14      3.04      0.00
    6   13   14      1.08      0.00
    7   13   14      0.83      0.00
   -6   14   14     -0.37      0.00
   -5   14   14      1.87      0.00
   -4   14   14     -4.25      0.00
   -3   14   14      2.29      0.00
   -2   14   14      2.48      0.00
   -1   14   14     -0.01      0.00
    0   14   14     -1.92      0.00
    1   14   14     -1.60      0.00
    2   14   14     -0.58      0.00
    3   14   14      0.52      0.00
    4   14   14      0.62      0.00
    5   14   14      0.05      0.00
    6   14   14     -1.88      0.00
   -2   15   14     -1.06      0.00
   -1   15   14      0.20      0.00
    0   15   14     -0.64      0.00
    1   15   14     -0.48      0.00
    2   15   14      0.45      0.00
    0    0   15     -0.11      0.00
    0    1   15     -0.52      0.00
    1    1   15     -0.24      0.00
   -1    2   15      2.43      0.00
    0    2   15     -1.03      0.00
    1    2   15     -0.96      0.00
    2    2   15      2.99      0.00
   -2    3   15     -0.65      0.00
   -1    3   15     -0.07      0.00
    0    3   15     -0.37      0.00
    1    3   15      1.64      0.00
    2    3   15      0.92      0.00
    3    3   15      0.27      0.00
   -3    4   15     -4.19      0.00
   -2    4   15     -0.81      0.00
   -1    4   15     -1.97      0.00
    0    4   15     -0.80      0.00
    1    4   15      3.72      0.00
    2    4   15     -0.53      0.00
    3    4   15      0.94      0.00
    4    4   15     -1.99      0.00
   -4    5   15     -1.40      0.00
   -3    5   15     -2.79      0.00
   -2    5   15      1.03      0.00
   -1    5   15      0.27      0.00
    0    5   15      1.65      0.00
    1    5   15     -2.09      0.00
    2    5   15     -3.91      0.00
    3    5   15     -3.41      0.00
    4    5   15      1.35      0.00
    5    5   15      0.02      0.00
   -5    6   15      3.38      0.00
   -4    6   15      0.13      0.00
   -3    6   15      4.00      0.00
   -2    6   15      0.39      0.00
   -1    6   15      0.68      0.00
    0    6   15     -0.67      0.00
    1    6   15     -4.49      0.00
    2    6   15      0.47      0.00
    3    6   15     -1.78      0.00
    4    6   15      0.57      0.00
    5    6   15     -1.46      0.00
    6    6   15      2.71      0.00
   -5    7   15      0.33      0.00
   -4    7   15      1.22      0.00
   -3    7   15     -1.11      0.00
   -2    7   15     -0.80      0.00
   -1    7   15      5.89      0.00
    0    7   15     -0.19      0.00
    1    7   15     -1.74      0.00
    2    7   15     -0.03      0.00
    3    7   15      3.64      0.00
    4    7   15      2.03      0.00
    5    7   15      1.33      0.00
    6    7   15      2.29      0.00
    7    7   15     -3.01      0.00
   -7    8   15      1.74      0.00
   -6    8   15     -1.90      0.00
   -5    8   15     -2.74      0.00
   -4    8   15      0.71      0.00
   -3    8   15     -0.39      0.00
   -2    8   15      3.62      0.00
   -1    8   15     -0.24      0.00
    0    8   15     -2.90      0.00
    1    8   15      3.95      0.00
    2    8   15      3.70      0.00
    3    8   15      3.56      0.00
    4    8   15     -2.70      0.00
    5    8   15      0.00      0.00
    6    8   15     -1.47      0.00
    7    8   15     -1.60      0.00
    8    8   15      0.34      0.00
   -8    9   15     -0.90      0.00
   -7    9   15     -0.13      0.00
   -6    9   15     -0.70      0.00
   -5    9   15      0.54      0.00
   -4    9   15     -1.38      0.00
   -3    9   15     -1.17      0.00
   -2    9   15      1.10      0.00
   -1    9   15     -0.27      0.00
    0    9   15     -0.44      0.00
    1    9   15     -2.75      0.00
    2    9   15      0.83      0.00
    3    9   15      0.98      0.00
    4    9   15     -0.52      0.00
    5    9   15     -0.71      0.00
    6    9   15     -3.25      0.00
    7    9   15      1.54      0.00
    8    9   15      1.54      0.00
    9    9   15      1.60      0.00
   -9   10   15     -1.21      0.00
   -8   10   15     -0.35      0.00
   -7   10   15     -1.27      0.00
   -6   10   15      1.41      0.00
   -5   10   15      1.62      0.00
   -4   10   15     -0.64      0.00
   -3   10   15     -0.80      0.00
   -2   10   15     -3.38      0.00
   -1   10   15     -3.48      0.00
    0   10   15      0.35      0.00
    1   10   15      0.15      0.00
    2   10   15      1.41      0.00
    3   10   15     -3.75      0.00
    4   10   15     -0.88      0.00
    5   10   15     -0.12      0.00
    6   10   15      1.55      0.00
    7   10   15      1.77      0.00
    9   10   15      2.29      0.00
   -7   11   15      1.09      0.00
   -6   11   15     -0.77      0.00
   -5   11   15     -1.35      0.00
   -4   11   15      0.26      0.00
   -3   11   15     -0.41      0.00
   -2   11   15     -1.70      0.00
   -1   11   15      2.32      0.00
    0   11   15      2.32      0.00
    1   11   15     -1.98      0.00
    2   11   15     -4.14      0.00
    3   11   15      1.29      0.00
    4   11   15      1.88      0.00
    5   11   15     -2.89      0.00
    6   11   15      0.93      0.00
    7   11   15     -0.03      0.00
   -4   12   15     -0.96      0.00
   -3   12   15      0.14      0.00
   -2   12   15      1.73      0.00
   -1   12   15      3.30      0.00
    0   12   15     -2.07      0.00
    1   12   15     -1.72      0.00
    2   12   15      1.12      0.00
    3   12   15      2.74      0.00
    4   12   15     -1.86      0.00
    5   12   15     -1.29      0.00
    6   12   15      1.82      0.00
   -3   13   15     -0.91      0.00
   -2   13   15      0.98      0.00
   -1   13   15      0.27      0.00
    0   13   15     -1.12      0.00
    1   13   15      0.23      0.00
    2   13   15      3.42      0.00
    0    0   16     -0.56      0.00
    0    1   16      0.17      0.00
    1    1   16      1.13      0.00
   -1    2   16      0.90      0.00
    0    2   16      1.65      0.00
    1    2   16     -0.79      0.00
    2    2   16     -2.47      0.00
   -2    3   16      0.91      0.00
   -1    3   16      2.98      0.00
    0    3   16     -0.56      0.00
    1    3   16     -1.06      0.00
    2    3   16      1.61      0.00
    3    3   16     -1.68      0.00
   -3    4   16     -0.08      0.00
   -2    4   16     -0.41      0.00
   -1    4   16      0.38      0.00
    0    4   16     -1.24      0.00
    1    4   16      1.54      0.00
    2    4   16      3.49      0.00
    3    4   16      1.22      0.00
    4    4   16      0.56      0.00
   -4    5   16      0.79      0.00
   -3    5   16     -4.27      0.00
   -2    5   16     -2.03      0.00
   -1    5   16     -1.12      0.00
    0    5   16      1.45      0.00
    1    5   16      2.42      0.00
    2    5   16     -0.89      0.00
    3    5   16     -0.36      0.00
    4    5   16     -1.11      0.00
    5    5   16      1.70      0.00
   -5    6   16      0.30      0.00
   -4    6   16     -1.01      0.00
   -3    6   16     -0.40      0.00
   -2    6   16      0.62      0.00
   -1    6   16     -1.35      0.00
    0    6   16     -0.04      0.00
    1    6   16     -2.00      0.00
    2    6   16     -1.85      0.00
    3    6   16     -1.50      0.00
    4    6   16     -0.16      0.00
    5    6   16     -2.01      0.00
    6    6   16     -2.45      0.00
   -4    7   16      0.50      0.00
   -3    7   16      1.79      0.00
   -2    7   16     -3.65      0.00
   -1    7   16      0.66      0.00
    0    7   16      2.29      0.00
    1    7   16     -2.75      0.00
    2    7   16     -2.41      0.00
    3    7   16     -1.99      0.00
    4    7   16      1.10      0.00
    5    7   16     -0.52      0.00
    6    7   16      2.34      0.00
    7    7   16      2.38      0.00
   -4    8   16      0.25      0.00
   -3    8   16     -0.90      0.00
   -2    8   16      1.11      0.00
   -1    8   16      4.38      0.00
    0    8   16     -0.12      0.00
    1    8   16     -1.71      0.00
    2    8   16      0.11      0.00
    3    8   16      3.15      0.00
    4    8   16      1.11      0.00
    5    8   16      0.02      0.00
    6    8   16      1.99      0.00
    7    8   16     -2.56      0.00
   -5    9   16     -0.75      0.00
   -4    9   16      1.48      0.00
   -3    9   16     -0.61      0.00
   -2    9   16      1.29      0.00
   -1    9   16      1.75      0.00
    0    9   16      2.28      0.00
    1    9   16      1.45      0.00
    2    9   16     -1.22      0.00
    3    9   16      2.25      0.00
    4    9   16      0.28      0.00
    5    9   16      0.71      0.00
    6    9   16     -0.89      0.00
   -4   10   16     -0.14      0.00
   -3   10   16      1.21      0.00
   -2   10   16      1.02      0.00
   -1   10   16     -1.93      0.00
    0   10   16     -2.78      0.00
    1   10   16     -1.16      0.00
    2   10   16      2.80      0.00
    3   10   16      1.59      0.00
    0    0   17      0.55      0.00
    0    1   17     -1.25      0.00
    1    1   17     -0.18      0.00
   -1    2   17     -3.44      0.00
    0    2   17     -0.60      0.00
    1    2   17      0.97      0.00
    2    2   17     -0.32      0.00
   -2    3   17     -1.39      0.00
   -1    3   17      0.75      0.00
    0    3   17      1.47      0.00
    1    3   17     -0.94      0.00
    2    3   17     -1.78      0.00
    3    3   17      0.30      0.00
   -3    4   17      3.10      0.00
   -2    4   17      0.22      0.00
   -1    4   17      1.94      0.00
    0    4   17     -0.03      0.00
    1    4   17     -1.26      0.00
    2    4   17      1.10      0.00
    3    4   17      0.75      0.00
    4    4   17      0.68      0.00
   -4    5   17      0.88      0.00
   -3    5   17      0.69      0.00
   -2    5   17     -0.83      0.00
   -1    5   17     -0.22      0.00
    0    5   17      0.97      0.00
    1    5   17      1.97      0.00
    2    5   17      2.01      0.00
    3    5   17      0.40      0.00
    4    5   17     -0.31      0.00
    5    5   17      1.00      0.00
   -5    6   17     -1.60      0.00
   -4    6   17     -0.52      0.00
   -3    6   17     -3.27      0.00
   -2    6   17      0.44      0.00
   -1    6   17     -0.35      0.00
    0    6   17      0.23      0.00
    1    6   17      0.84      0.00
    2    6   17     -0.07      0.00
    3    6   17      1.01      0.00
    4    6   17     -0.13      0.00
    5    6   17      0.26      0.00
   -4    7   17      0.60      0.00
   -1    8   17      0.11      0.00
    0    8   17      1.27      0.00
    1    8   17     -1.39      0.00
    0    2    0    -72.41      0.00
    6   14    0     -0.18      0.00
  -16   18    0     -2.63      0.00
  -15   19    0      3.16      0.00
  -14   20    0     -2.47      0.00
   12   20    0     -1.07      0.00
   14   20    0     -0.54      0.00
   11   21    0      1.58      0.00
  -10   22    0      1.45      0.00
    8   22    0     -2.03      0.00
   10   22    0      2.10      0.00
   -7   23    0      0.22      0.00
   -5   23    0     -0.86      0.00
    3   23    0     -0.50      0.00
    5   23    0     -1.58      0.00
    7   23    0      1.65      0.00
   -4   24    0      0.92      0.00
   -2   24    0      0.31      0.00
    0   24    0     -3.54      0.00
    2   24    0     -3.59      0.00
    4   24    0      0.48      0.00
    0    1    1    174.93      0.00
    0    2    1      6.05      0.00
  -14   20    1     -0.14      0.00
   14   20    1      0.03      0.00
   -8   23    1      1.12      0.00
   -5   24    1     -0.76      0.00
    5   24    1      0.38      0.00
    0    4    2    -41.63      0.00
  -15   19    2     -2.04      0.00
   15   19    2      0.74      0.00
  -14   20    2      1.38      0.00
   14   20    2     -0.22      0.00
  -12   21    2      1.08      0.00
   12   21    2      0.37      0.00
  -10   22    2     -0.67      0.00
   10   22    2     -1.49      0.00
   -8   23    2      1.55      0.00
    8   23    2      0.18      0.00
   -4   24    2     -1.06      0.00
   -3   24    2     -0.65      0.00
    3   24    2      0.27      0.00
    4   24    2     -0.31      0.00
   17   17    3      0.36      0.00
  -16   18    3     -1.12      0.00
   16   18    3      0.15      0.00
  -15   19    3      0.36      0.00
   15   19    3     -0.95      0.00
   13   20    3      1.69      0.00
  -12   21    3     -0.72      0.00
   12   21    3     -0.16      0.00
  -10   22    3     -0.93      0.00
    9   22    3      1.57      0.00
   10   22    3     -1.81      0.00
   -7   23    3      0.92      0.00
    6   23    3      1.38      0.00
    7   23    3     -0.46      0.00
   -3   24    3      0.48      0.00
   -2   24    3     -0.78      0.00
   -1   24    3     -0.68      0.00
    0   24    3      1.36      0.00
    1   24    3      1.76      0.00
    2   24    3     -1.02      0.00
    3   24    3      1.89      0.00
  -14   19    4      0.02      0.00
  -13   20    4      1.97      0.00
  -12   20    4     -0.32      0.00
   13   20    4      0.24      0.00
   11   21    4      2.14      0.00
    9   22    4      1.46      0.00
   -6   23    4     -0.97      0.00
    6   23    4     -0.06      0.00
  -16   17    5     -0.33      0.00
   16   17    5     -0.16      0.00
  -15   18    5     -1.34      0.00
  -14   19    5      0.92      0.00
   14   19    5      0.87      0.00
  -10   21    5      0.97      0.00
   -9   21    5      0.50      0.00
   -8   22    5     -2.14      0.00
   -7   22    5      0.56      0.00
   -6   22    5      3.49      0.00
   -5   22    5     -1.74      0.00
   -5   23    5     -0.49      0.00
    5   23    5     -0.07      0.00
   12   18    6      1.36      0.00
   14   18    6     -1.34      0.00
  -13   19    6     -0.73      0.00
   10   19    6      0.82      0.00
   11   19    6      2.13      0.00
   12   19    6     -1.52      0.00
   13   19    6     -0.75      0.00
    8   20    6     -0.12      0.00
    9   20    6      1.84      0.00
   10   20    6      1.21      0.00
   11   20    6     -2.16      0.00
    5   21    6     -0.44      0.00
    6   21    6     -0.49      0.00
    7   21    6     -1.10      0.00
    8   21    6     -0.06      0.00
    9   21    6     -0.20      0.00
   -7   22    6     -2.11      0.00
   -1   22    6     -2.60      0.00
    0   22    6      0.67      0.00
    1   22    6     -0.19      0.00
    2   22    6     -1.21      0.00
    3   22    6      3.47      0.00
    4   22    6      0.92      0.00
    5   22    6     -1.32      0.00
    6   22    6     -2.22      0.00
    7   22    6      0.19      0.00
   -3   23    6     -0.62      0.00
   -2   23    6     -1.00      0.00
   -1   23    6      1.32      0.00
    0   23    6      1.72      0.00
    1   23    6      0.84      0.00
    2   23    6     -1.02      0.00
    3   23    6      0.59      0.00
   16   16    7      1.86      0.00
  -15   17    7     -1.30      0.00
  -14   17    7      0.71      0.00
   15   17    7      0.51      0.00
  -13   18    7      0.26      0.00
  -12   19    7     -0.67      0.00
   12   19    7     -0.36      0.00
  -10   20    7     -0.09      0.00
   -8   21    7     -0.03      0.00
   -5   22    7      2.15      0.00
    3   22    7      0.01      0.00
    5   22    7      1.33      0.00
  -15   16    8      1.74      0.00
  -14   16    8      1.28      0.00
   15   16    8     -0.85      0.00
  -14   17    8     -1.53      0.00
  -13   17    8      0.34      0.00
   11   17    8      0.35      0.00
   14   17    8      0.82      0.00
  -12   18    8      0.34      0.00
  -11   19    8      0.36      0.00
  -10   19    8     -3.01      0.00
   11   19    8     -0.73      0.00
   -9   20    8      0.35      0.00
   -8   20    8     -0.53      0.00
    9   20    8     -0.46      0.00
   -6   21    8      0.32      0.00
   -5   21    8     -1.06      0.00
    6   21    8      1.66      0.00
   -1   22    8      2.40      0.00
    0   22    8      0.96      0.00
    1   22    8     -1.10      0.00
  -14   15    9     -0.61      0.00
   12   15    9      0.43      0.00
   15   15    9      0.79      0.00
  -14   16    9      1.44      0.00
  -13   16    9     -0.05      0.00
  -12   16    9      0.05      0.00
   13   16    9     -0.01      0.00
   14   16    9     -1.02      0.00
  -12   17    9      0.77      0.00
  -11   17    9      1.37      0.00
   12   17    9      0.05      0.00
  -11   18    9     -0.16      0.00
  -10   18    9      3.46      0.00
   11   18    9      0.26      0.00
   -9   19    9     -1.34      0.00
   -8   19    9     -1.05      0.00
   -7   19    9     -1.12      0.00
   -7   20    9     -0.84      0.00
   -6   20    9     -2.49      0.00
    6   20    9     -2.28      0.00
    7   20    9      3.23      0.00
   -3   21    9      1.40      0.00
   -2   21    9      0.08      0.00
   -1   21    9     -1.07      0.00
    0   21    9     -1.76      0.00
    1   21    9      1.07      0.00
    2   21    9      2.40      0.00
    3   21    9      1.75      0.00
  -13   14   10     -0.02      0.00
   14   14   10      0.13      0.00
  -14   15   10     -0.44      0.00
  -13   15   10     -0.65      0.00
  -12   15   10     -1.31      0.00
  -11   15   10      1.69      0.00
   13   15   10     -1.07      0.00
   14   15   10     -0.58      0.00
  -12   16   10     -2.14      0.00
  -11   16   10      0.57      0.00
  -10   16   10     -1.06      0.00
   12   16   10     -0.58      0.00
  -11   17   10     -1.06      0.00
  -10   17   10     -0.91      0.00
   -9   17   10      0.79      0.00
   11   17   10     -0.57      0.00
   -9   18   10      1.44      0.00
   -8   18   10      1.07      0.00
   -7   19   10      0.26      0.00
   -6   19   10      1.27      0.00
    7   19   10     -0.48      0.00
   -4   20   10      1.05      0.00
   -3   20   10      0.53      0.00
    0   20   10      1.50      0.00
    3   20   10     -1.32      0.00
    4   20   10      2.96      0.00
  -13   14   11      1.68      0.00
  -12   14   11     -0.10      0.00
   13   14   11      0.91      0.00
  -12   15   11      0.66      0.00
  -11   15   11     -1.80      0.00
  -10   15   11      2.48      0.00
   12   15   11      1.96      0.00
  -11   16   11      0.17      0.00
  -10   16   11      0.45      0.00
   -9   16   11     -0.24      0.00
    8   16   11      1.48      0.00
   11   16   11      0.84      0.00
   -9   17   11     -0.81      0.00
   -8   17   11      1.91      0.00
   -2   17   11     -3.00      0.00
    7   17   11      0.99      0.00
    8   17   11     -1.75      0.00
   -7   18   11      0.32      0.00
   -6   18   11      0.50      0.00
    0   18   11      2.11      0.00
    7   18   11     -3.00      0.00
   -4   19   11     -0.56      0.00
   -3   19   11     -1.68      0.00
    3   19   11      0.99      0.00
    4   19   11     -0.78      0.00
   11   12   12     -0.20      0.00
  -12   13   12      0.48      0.00
   13   13   12      0.11      0.00
  -12   14   12      1.20      0.00
  -11   14   12      0.26      0.00
  -10   14   12     -2.52      0.00
   12   14   12     -1.53      0.00
  -10   15   12     -1.17      0.00
   -9   15   12      0.23      0.00
    8   15   12     -1.46      0.00
   -9   16   12     -0.33      0.00
   -8   16   12     -2.04      0.00
    7   16   12     -0.27      0.00
    8   16   12      0.47      0.00
    9   16   12      0.53      0.00
   -7   17   12      0.76      0.00
   -6   17   12     -1.75      0.00
    7   17   12      2.86      0.00
   -4   18   12      1.56      0.00
   -3   18   12      2.25      0.00
    3   18   12     -0.98      0.00
    4   18   12     -1.07      0.00
  -10   11   13     -1.37      0.00
   12   12   13      0.61      0.00
  -11   13   13      0.62      0.00
  -10   13   13      0.51      0.00
    8   13   13      0.71      0.00
   11   13   13     -2.16      0.00
   -9   14   13     -0.22      0.00
    8   14   13      3.33      0.00
    9   14   13     -1.43      0.00
   -8   15   13      0.91      0.00
   -7   15   13      0.01      0.00
    8   15   13     -1.46      0.00
   -6   16   13      2.07      0.00
    5   16   13     -0.53      0.00
    6   16   13     -0.09      0.00
   -2   17   13      0.99      0.00
   -1   17   13      3.25      0.00
    0   17   13      0.26      0.00
    1   17   13      0.31      0.00
    2   17   13      0.46      0.00
   11   11   14     -1.10      0.00
  -10   12   14     -0.60      0.00
   -9   12   14      0.36      0.00
    8   12   14      1.00      0.00
   10   12   14      0.15      0.00
   -8   13   14      2.08      0.00
    8   13   14     -3.48      0.00
   -7   14   14     -1.63      0.00
    7   14   14     -0.97      0.00
   -4   15   14     -1.17      0.00
   -3   15   14      0.66      0.00
    3   15   14     -2.65      0.00
    4   15   14      0.29      0.00
   -6    7   15      2.91      0.00
    8   10   15     -1.16      0.00
   -8   11   15     -0.05      0.00
    8   11   15     -1.06      0.00
   -7   12   15      1.08      0.00
   -6   12   15      0.51      0.00
   -5   12   15      0.64      0.00
    7   12   15     -1.39      0.00
   -4   13   15      1.54      0.00
    3   13   15      1.72      0.00
    4   13   15     -1.17      0.00
   -6    7   16      3.03      0.00
   -5    7   16      3.13      0.00
   -7    8   16      1.22      0.00
   -6    8   16      1.79      0.00
   -5    8   16     -0.35      0.00
    8    8   16     -1.22      0.00
   -7    9   16      0.77      0.00
   -6    9   16     -1.24      0.00
    7    9   16     -1.63      0.00
   -6   10   16     -0.47      0.00
   -5   10   16      0.62      0.00
    4   10   16     -1.05      0.00
    5   10   16     -0.13      0.00
    6   10   16     -1.43      0.00
   -3   11   16     -1.13      0.00
   -2   11   16     -2.72      0.00
   -1   11   16     -2.26      0.00
    0   11   16      1.33      0.00
    1   11   16      0.78      0.00
    2   11   16     -1.33      0.00
    3   11   16     -2.79      0.00
    6    6   17     -1.76      0.00
   -5    7   17      0.55      0.00
   -3    7   17      1.54      0.00
   -2    7   17     -1.70      0.00
   -1    7   17     -3.75      0.00
    0    7   17      0.11      0.00
    1    7   17      0.64      0.00
    2    7   17     -1.56      0.00
    3    7   17     -1.88      0.00
    4    7   17     -0.35      0.00
    5    7   17     -1.06      0.00
   -3    8   17      0.45      0.00
   -2    8   17     -2.79      0.00
    2    8   17     -2.23      0.00
    3    8   17     -1.54      0.00
    0    0    0      0.00      0.00
# SQUEEZE RESULTS (Version = 280317)
# Note: Data are Listed for all Voids in the P1 Unit Cell
# i.e. Centre of Gravity, Solvent Accessible Volume,
# Recovered number of Electrons in the Void and
# Details about the Squeezed Material
loop_
  _platon_squeeze_void_nr
  _platon_squeeze_void_average_x
  _platon_squeeze_void_average_y
  _platon_squeeze_void_average_z
  _platon_squeeze_void_volume
  _platon_squeeze_void_count_electrons
  _platon_squeeze_void_content
   1  0.750  0.750  0.232       314       136 ' '
   2  0.250  0.750  0.500        18         3 ' '
   3  0.750  0.250  0.500        18         3 ' '
   4  0.250  0.250  0.768       313       136 ' '
# Missing Reflections Below sin(th)/lambda = 0.25
loop_
  _platon_missing_refln_index_h
  _platon_missing_refln_index_k
  _platon_missing_refln_index_l
  _platon_missing_refln_theta
    0    2    0     4.575
    0    1    1     3.844
    0    2    1     5.524
    0    4    2    11.100
_platon_squeeze_void_probe_radius                  1.20
_platon_squeeze_details
)
TITL 180628a   P 4/n        R = 0.11
CELL   19.3296   19.3296   14.3057     90.00     90.00     90.00
SPGR P4/n
# Solvent Accessible Volume =       667
# Electrons Found in S.A.V. =       277
# Note: Atoms in Void are Labelled as Cxxx and Qxxx for all Others
C101 0.750 0.753 0.313 !       6.40 eA-3
C102 1.002 0.765 0.235 !       5.44 eA-3
C103 0.558 0.761 0.219 !       3.60 eA-3
C104 0.217 0.562 0.743 !       3.47 eA-3
C105 0.844 0.864 0.232 !       2.84 eA-3
Q106 0.750 0.752 0.469 !       2.48 eA-3
Q107 0.750 0.742 0.016 !       2.04 eA-3
C108 0.390 0.313 0.742 !       2.02 eA-3
C109 0.750 0.750 0.203 !       1.91 eA-3
C110 0.697 0.827 0.271 !       1.65 eA-3
C111 0.722 0.785 0.257 !       1.16 eA-3
C112 0.692 0.750 0.230 !       1.15 eA-3
Q113 0.595 0.818 0.169 !       1.13 eA-3
C114 0.741 0.235 0.489 !       1.12 eA-3
Q115 0.846 0.293 0.594 !       1.04 eA-3
C116 0.204 0.170 0.783 !       0.99 eA-3
Q117 0.322 0.966 0.780 !       0.99 eA-3
Q118 0.862 0.763 0.120 !       0.91 eA-3
Q119 0.978 0.387 0.469 !       0.88 eA-3
Q120 0.440 0.763 0.082 !       0.86 eA-3
Q121 0.640 0.450 0.017 !       0.86 eA-3
Q122 0.093 0.658 0.958 !       0.86 eA-3
Q123 0.562 0.107 0.033 !       0.86 eA-3
Q124 0.470 0.206 0.392 !       0.85 eA-3
Q125 0.278 0.863 0.250 !       0.84 eA-3
Q126 0.944 0.172 0.186 !       0.83 eA-3
Q127 0.249 0.129 0.710 !       0.82 eA-3
Q128 0.750 0.756 0.641 !       0.81 eA-3
Q129 0.800 0.659-0.004 !       0.81 eA-3
Q130 0.061 0.923 0.355 !       0.80 eA-3
Q131 0.522 0.986 0.248 !       0.79 eA-3
Q132 0.328 0.846 0.137 !       0.79 eA-3
Q133 0.823 0.449 0.298 !       0.79 eA-3
Q134 0.376 0.969 0.425 !       0.79 eA-3
Q135 0.072 0.731 0.457 !       0.78 eA-3
Q136 0.970 0.036 0.223 !       0.78 eA-3
Q137 0.314 0.589 0.300 !       0.78 eA-3
Q138 0.718 0.531 0.148 !       0.78 eA-3
Q139 0.361 0.768 0.076 !       0.76 eA-3
Q140 0.486 0.017 0.489 !       0.76 eA-3
Q141 0.453 0.724 0.176 !       0.76 eA-3
Q142 0.122 0.953 0.565 !       0.75 eA-3
Q143 0.371 0.828 0.094 !       0.75 eA-3
Q144 0.326 0.767 0.495 !       0.75 eA-3
Q145 0.299 0.769 0.434 !       0.74 eA-3
Q146 0.626 0.454 0.515 !       0.74 eA-3
Q147 0.518 0.130 0.298 !       0.74 eA-3
Q148 0.674 0.531 0.471 !       0.74 eA-3
Q149 0.250 0.251 0.156 !       0.74 eA-3
Q150 0.562 0.172 0.927 !       0.74 eA-3
Q151 0.565 0.281 0.135 !       0.73 eA-3
Q152 0.953 0.995 0.565 !       0.73 eA-3
Q153 0.593 0.140 0.546 !       0.73 eA-3
Q154 0.970 0.555 0.715 !       0.73 eA-3
Q155 0.423 0.018 0.214 !       0.73 eA-3
Q156 0.099 0.375 0.730 !       0.73 eA-3
Q157 0.880 0.920 0.528 !       0.72 eA-3
Q158 0.402 0.674 0.428 !       0.70 eA-3
Q159 0.321 0.815 0.499 !       0.70 eA-3
Q160 0.141 0.549 0.139 !       0.69 eA-3
Q161 1.000 0.655 0.423 !       0.68 eA-3
Q162 0.265 0.966 0.859 !       0.68 eA-3
Q163 0.550 0.048 0.419 !       0.68 eA-3
Q164 0.236 0.781 0.955 !       0.68 eA-3
Q165 0.781 0.121 0.757 !       0.68 eA-3
Q166 0.594 0.269 0.216 !       0.67 eA-3
Q167 0.719 0.371 0.743 !       0.67 eA-3
Q168 0.655 0.409 0.602 !       0.67 eA-3
Q169 0.895 0.487 0.393 !       0.67 eA-3
Q170 0.214 0.514 0.160 !       0.66 eA-3
Q171 0.512 0.382 0.170 !       0.66 eA-3
Q172 0.205 0.200 0.045 !       0.65 eA-3
Q173 0.722 0.192 0.448 !       0.65 eA-3
Q174 0.659 0.082 0.200 !       0.65 eA-3
Q175 0.595 0.951 0.548 !       0.64 eA-3
Q176 0.637 0.341 0.502 !       0.64 eA-3
Q177 0.461 0.173 0.004 !       0.64 eA-3
Q178 0.967 0.858 0.263 !       0.64 eA-3
Q179 0.645 0.088 0.285 !       0.64 eA-3
Q180 0.349 0.843 0.378 !       0.64 eA-3
Q181 0.469 0.220 0.189 !       0.63 eA-3
Q182 0.854 0.390 0.856 !       0.63 eA-3
Q183 0.826 0.503 0.154 !       0.63 eA-3
Q184 0.955 0.642 0.250 !       0.62 eA-3
Q185 0.676 0.761 0.327 !       0.62 eA-3
Q186 0.325 0.327 0.467 !       0.62 eA-3
Q187 0.744 0.904 0.700 !       0.62 eA-3
Q188 0.872 0.723 0.401 !       0.62 eA-3
Q189 0.219 0.512 0.318 !       0.61 eA-3
Q190 0.998 0.112 0.075 !       0.61 eA-3
Q191 0.281 0.981 0.307 !       0.61 eA-3
Q192 0.624 0.266 0.755 !       0.61 eA-3
Q193 0.902 0.453 0.951 !       0.61 eA-3
Q194 0.599 0.272 0.943 !       0.61 eA-3
Q195 0.175 0.364 0.676 !       0.60 eA-3
Q196 0.326 0.828 0.216 !       0.60 eA-3
Q197 0.260 0.560 0.202 !       0.60 eA-3
Q198 0.419 0.190 0.561 !       0.60 eA-3
Q199 0.789 0.844 0.405 !       0.60 eA-3
)
;
_shelx_fab_checksum              29526
_platon_squeeze_void_probe_radius 1.20
_olex2_submission_special_instructions 'No special instructions were received'
_oxdiff_exptl_absorpt_empirical_details
;
Empirical correction (ABSPACK) includes:
- Absorption correction using spherical harmonics
- Frame scaling
;
_oxdiff_exptl_absorpt_empirical_full_max 1.092
_oxdiff_exptl_absorpt_empirical_full_min 0.927
loop_
_space_group_symop_operation_xyz
'x, y, z'
'-x+1/2, -y+1/2, z'
'-y+1/2, x, z'
'y, -x+1/2, z'
'-x, -y, -z'
'x-1/2, y-1/2, -z'
'y-1/2, -x, -z'
'-y, x-1/2, -z'
loop_
_atom_site_label
_atom_site_type_symbol
_atom_site_fract_x
_atom_site_fract_y
_atom_site_fract_z
_atom_site_U_iso_or_equiv
_atom_site_adp_type
_atom_site_occupancy
_atom_site_site_symmetry_order
_atom_site_calc_flag
_atom_site_refinement_flags_posn
_atom_site_refinement_flags_adp
_atom_site_refinement_flags_occupancy
Cu3 Cu 0.60376(5) 0.47039(4) 0.60814(7) 0.0367(3) Uani 1 1 d . . .
Cu4 Cu 0.45057(4) 0.65854(5) 0.89633(7) 0.0353(2) Uani 1 1 d . . .
Cu1 Cu 0.750000 0.750000 0.55767(14) 0.0385(5) Uani 1 4 d S T P
Cu2 Cu 0.750000 0.750000 0.93974(15) 0.0408(5) Uani 1 4 d S T P
Cl05 Cl 0.750000 0.750000 0.7474(2) 0.0399(7) Uani 1 4 d S T P
N9 N 0.3465(3) 0.6507(3) 0.8899(4) 0.0375(12) Uani 1 1 d . . .
N11 N 0.5475(3) 0.6812(3) 0.9287(4) 0.0378(12) Uani 1 1 d . . .
N8 N 0.4336(3) 0.7321(3) 0.8026(4) 0.0339(12) Uani 1 1 d . . .
N7 N 0.4220(3) 0.8151(3) 0.6930(4) 0.0364(12) Uani 1 1 d . . .
N1 N 0.7106(3) 0.6556(3) 0.5433(4) 0.0396(13) Uani 1 1 d . . .
N3 N 0.6380(3) 0.4415(3) 0.4808(4) 0.0389(13) Uani 1 1 d . . .
N2 N 0.6539(3) 0.5580(3) 0.5750(4) 0.0361(12) Uani 1 1 d . . .
N5 N 0.5447(3) 0.5116(2) 0.7080(4) 0.0358(12) Uani 1 1 d . . .
N6 N 0.4763(3) 0.5729(3) 0.8045(4) 0.0374(13) Uani 1 1 d . . .
N4 N 0.5226(3) 0.4062(3) 0.5956(4) 0.0424(13) Uani 1 1 d . . .
N10 N 0.4545(3) 0.6079(3) 1.0192(4) 0.0411(13) Uani 1 1 d . . .
N12 N 0.6599(3) 0.7017(3) 0.9530(4) 0.0419(13) Uani 1 1 d . . .
C14 C 0.3649(3) 0.7347(3) 0.7768(4) 0.0355(14) Uani 1 1 d . . .
C22 C 0.6038(3) 0.7137(3) 0.8981(5) 0.0346(14) Uani 1 1 d . . .
H22 H 0.604669 0.741525 0.845142 0.042 Uiso 1 1 calc R . .
C4 C 0.6716(3) 0.4890(3) 0.4382(5) 0.0426(16) Uani 1 1 d . . .
H4 H 0.688650 0.482190 0.378134 0.051 Uiso 1 1 calc R . .
C11 C 0.5389(3) 0.5642(3) 0.7664(4) 0.0375(15) Uani 1 1 d . . .
H11 H 0.575920 0.593273 0.780082 0.045 Uiso 1 1 calc R . .
C13 C 0.3584(3) 0.7860(3) 0.7097(5) 0.0399(16) Uani 1 1 d . . .
H13 H 0.317305 0.798829 0.680607 0.048 Uiso 1 1 calc R . .
C2 C 0.6717(3) 0.6207(3) 0.6046(5) 0.0395(15) Uani 1 1 d . . .
H2 H 0.658416 0.638550 0.662232 0.047 Uiso 1 1 calc R . .
C9 C 0.4789(3) 0.4832(3) 0.7079(4) 0.0353(15) Uani 1 1 d . . .
C3 C 0.6822(3) 0.5531(3) 0.4866(5) 0.0380(15) Uani 1 1 d . . .
C10 C 0.4382(3) 0.5202(3) 0.7666(4) 0.0389(15) Uani 1 1 d . . .
H10 H 0.391835 0.511325 0.779144 0.047 Uiso 1 1 calc R . .
C12 C 0.4652(3) 0.7806(3) 0.7513(4) 0.0351(14) Uani 1 1 d . . .
H12 H 0.512365 0.789777 0.755199 0.042 Uiso 1 1 calc R . .
C15 C 0.3203(3) 0.6886(3) 0.8248(5) 0.0420(16) Uani 1 1 d . . .
H15 H 0.273614 0.685735 0.809790 0.050 Uiso 1 1 calc R . .
C16 C 0.3036(3) 0.6040(4) 0.9457(5) 0.0480(18) Uani 1 1 d . . .
H16A H 0.269719 0.582394 0.905012 0.058 Uiso 1 1 calc R . .
H16B H 0.278570 0.630968 0.991816 0.058 Uiso 1 1 calc R . .
C1 C 0.7164(3) 0.6133(3) 0.4670(5) 0.0422(16) Uani 1 1 d . . .
H1 H 0.739443 0.623702 0.411761 0.051 Uiso 1 1 calc R . .
C8 C 0.4708(4) 0.4241(4) 0.6480(5) 0.0477(17) Uani 1 1 d . . .
H8 H 0.429480 0.399423 0.646778 0.057 Uiso 1 1 calc R . .
C20 C 0.5684(3) 0.6464(3) 1.0081(5) 0.0438(17) Uani 1 1 d . . .
C5 C 0.6231(4) 0.3750(3) 0.4362(5) 0.0459(17) Uani 1 1 d . . .
H5A H 0.648093 0.338703 0.468705 0.055 Uiso 1 1 calc R . .
H5B H 0.639444 0.376084 0.372107 0.055 Uiso 1 1 calc R . .
C7 C 0.5184(4) 0.3460(4) 0.5354(5) 0.0532(19) Uani 1 1 d . . .
H7A H 0.470345 0.331904 0.530400 0.064 Uiso 1 1 calc R . .
H7B H 0.543747 0.308301 0.564085 0.064 Uiso 1 1 calc R . .
C6 C 0.5471(4) 0.3583(3) 0.4369(5) 0.0487(18) Uani 1 1 d . . .
H6A H 0.539211 0.317249 0.399352 0.058 Uiso 1 1 calc R . .
H6B H 0.521947 0.396195 0.408153 0.058 Uiso 1 1 calc R . .
C19 C 0.5152(3) 0.6078(4) 1.0561(5) 0.0500(19) Uani 1 1 d . . .
H19 H 0.524447 0.583857 1.111156 0.060 Uiso 1 1 calc R . .
C21 C 0.6374(3) 0.6587(4) 1.0208(5) 0.0497(18) Uani 1 1 d . . .
H21 H 0.664414 0.640347 1.068549 0.060 Uiso 1 1 calc R . .
C18 C 0.3974(4) 0.5711(4) 1.0643(6) 0.055(2) Uani 1 1 d . . .
H18A H 0.375895 0.601266 1.110104 0.066 Uiso 1 1 calc R . .
H18B H 0.415515 0.531102 1.097122 0.066 Uiso 1 1 calc R . .
C17 C 0.3440(4) 0.5480(4) 0.9954(6) 0.065(2) Uani 1 1 d . . .
H17A H 0.311375 0.518373 1.027767 0.078 Uiso 1 1 calc R . .
H17B H 0.366883 0.519902 0.948410 0.078 Uiso 1 1 calc R . .
loop_
_atom_site_aniso_label
_atom_site_aniso_U_11
_atom_site_aniso_U_22
_atom_site_aniso_U_33
_atom_site_aniso_U_23
_atom_site_aniso_U_13
_atom_site_aniso_U_12
Cu3 0.0379(5) 0.0339(5) 0.0384(5) -0.0049(5) -0.0053(5) -0.0014(4)
Cu4 0.0315(5) 0.0357(5) 0.0387(5) 0.0067(4) 0.0034(4) 0.0003(4)
Cu1 0.0346(6) 0.0346(6) 0.0464(12) 0.000 0.000 0.000
Cu2 0.0338(6) 0.0338(6) 0.0547(13) 0.000 0.000 0.000
Cl05 0.0419(10) 0.0419(10) 0.0360(17) 0.000 0.000 0.000
N9 0.034(3) 0.035(3) 0.043(3) 0.009(3) 0.000(3) 0.002(2)
N11 0.035(3) 0.033(3) 0.045(3) 0.008(3) 0.000(3) 0.000(2)
N8 0.030(3) 0.035(3) 0.036(3) 0.007(2) 0.003(2) -0.001(2)
N7 0.040(3) 0.034(3) 0.036(3) 0.007(2) -0.002(3) 0.002(2)
N1 0.034(3) 0.041(3) 0.044(3) -0.006(3) 0.004(3) 0.003(2)
N3 0.044(3) 0.035(3) 0.038(3) -0.008(3) -0.007(3) 0.003(2)
N2 0.037(3) 0.034(3) 0.038(3) -0.006(2) -0.002(2) 0.001(2)
N5 0.039(3) 0.031(3) 0.037(3) 0.000(2) -0.004(2) 0.001(2)
N6 0.035(3) 0.040(3) 0.037(3) 0.004(3) 0.000(3) 0.001(2)
N4 0.049(3) 0.037(3) 0.041(3) -0.011(3) -0.006(3) -0.005(3)
N10 0.036(3) 0.048(3) 0.040(3) 0.023(3) 0.001(3) -0.002(2)
N12 0.035(3) 0.040(3) 0.050(4) 0.006(3) -0.002(3) 0.004(2)
C14 0.037(3) 0.035(3) 0.034(3) 0.001(3) 0.007(3) 0.002(3)
C22 0.029(3) 0.033(3) 0.042(4) 0.004(3) 0.005(3) -0.007(2)
C4 0.043(4) 0.045(4) 0.039(4) -0.009(3) 0.001(3) 0.000(3)
C11 0.037(3) 0.038(3) 0.038(4) 0.000(3) -0.002(3) 0.000(3)
C13 0.030(3) 0.047(4) 0.043(4) 0.000(3) -0.004(3) 0.001(3)
C2 0.042(4) 0.034(3) 0.042(4) -0.003(3) 0.008(3) -0.003(3)
C9 0.038(3) 0.031(3) 0.037(4) 0.004(3) -0.007(3) -0.006(3)
C3 0.035(3) 0.034(3) 0.046(4) -0.006(3) -0.003(3) -0.001(3)
C10 0.033(3) 0.042(4) 0.041(4) 0.004(3) 0.000(3) 0.000(3)
C12 0.037(3) 0.038(3) 0.030(3) 0.001(3) 0.003(3) -0.002(3)
C15 0.033(3) 0.045(4) 0.048(4) 0.000(3) 0.004(3) -0.005(3)
C16 0.029(3) 0.055(4) 0.060(5) 0.013(4) 0.018(3) -0.002(3)
C1 0.038(4) 0.046(4) 0.043(4) -0.001(3) 0.004(3) -0.002(3)
C8 0.046(4) 0.054(4) 0.044(4) 0.001(4) -0.012(4) -0.009(3)
C20 0.035(4) 0.046(4) 0.051(4) 0.014(3) 0.001(3) -0.007(3)
C5 0.060(5) 0.038(4) 0.040(4) -0.009(3) -0.008(4) 0.002(3)
C7 0.056(5) 0.045(4) 0.058(5) -0.013(4) -0.001(4) -0.012(3)
C6 0.059(5) 0.037(4) 0.050(4) -0.008(3) -0.014(4) 0.002(3)
C19 0.042(4) 0.059(4) 0.050(4) 0.024(4) -0.003(4) 0.002(3)
C21 0.038(4) 0.056(5) 0.055(5) 0.015(4) -0.008(4) -0.007(3)
C18 0.040(4) 0.071(5) 0.054(5) 0.034(4) 0.000(4) -0.010(4)
C17 0.052(5) 0.065(5) 0.079(6) 0.021(5) 0.020(5) -0.008(4)
loop_
_atom_type_symbol
_atom_type_description
_atom_type_scat_dispersion_real
_atom_type_scat_dispersion_imag
_atom_type_scat_source
C C 0.0181 0.0091 'International Tables Vol C Tables 4.2.6.8 and 6.1.1.4'
H H 0.0000 0.0000 'International Tables Vol C Tables 4.2.6.8 and 6.1.1.4'
Cl Cl 0.3639 0.7018 'International Tables Vol C Tables 4.2.6.8 and 6.1.1.4'
Cu Cu -1.9646 0.5888 'International Tables Vol C Tables 4.2.6.8 and 6.1.1.4'
N N 0.0311 0.0180 'International Tables Vol C Tables 4.2.6.8 and 6.1.1.4'
loop_
_geom_angle_atom_site_label_1
_geom_angle_atom_site_label_2
_geom_angle_atom_site_label_3
_geom_angle
_geom_angle_site_symmetry_1
_geom_angle_site_symmetry_3
N3 Cu3 N7 98.5(2) . 3_655
N2 Cu3 N7 98.3(2) . 3_655
N2 Cu3 N3 82.1(2) . .
N2 Cu3 N4 151.3(2) . .
N5 Cu3 N7 100.6(2) . 3_655
N5 Cu3 N3 160.9(2) . .
N5 Cu3 N2 96.2(2) . .
N5 Cu3 N4 82.2(2) . .
N4 Cu3 N7 110.2(2) . 3_655
N4 Cu3 N3 90.3(2) . .
N9 Cu4 N6 98.3(2) . .
N11 Cu4 N9 166.0(2) . .
N11 Cu4 N8 99.0(2) . .
N11 Cu4 N6 95.3(2) . .
N11 Cu4 N10 82.4(2) . .
N8 Cu4 N9 81.8(2) . .
N8 Cu4 N6 100.1(2) . .
N8 Cu4 N10 161.0(2) . .
N10 Cu4 N9 92.3(2) . .
N10 Cu4 N6 98.6(2) . .
N1 Cu1 Cl05 95.94(17) . .
N1 Cu1 Cl05 95.94(17) 2_665 .
N1 Cu1 Cl05 95.94(17) 3_655 .
N1 Cu1 Cl05 95.94(17) 4_565 .
N1 Cu1 N1 168.1(3) 4_565 3_655
N1 Cu1 N1 89.39(4) . 4_565
N1 Cu1 N1 89.39(4) 2_665 3_655
N1 Cu1 N1 168.1(3) . 2_665
N1 Cu1 N1 89.39(4) 2_665 4_565
N1 Cu1 N1 89.39(4) . 3_655
N12 Cu2 Cl05 95.49(17) 2_665 .
N12 Cu2 Cl05 95.49(17) 4_565 .
N12 Cu2 Cl05 95.49(17) . .
N12 Cu2 Cl05 95.49(17) 3_655 .
N12 Cu2 N12 89.48(3) . 3_655
N12 Cu2 N12 169.0(3) 4_565 3_655
N12 Cu2 N12 89.48(3) . 4_565
N12 Cu2 N12 89.48(3) 2_665 4_565
N12 Cu2 N12 89.48(3) 2_665 3_655
N12 Cu2 N12 169.0(3) 2_665 .
Cu1 Cl05 Cu2 180.0 . .
C15 N9 Cu4 112.5(4) . .
C15 N9 C16 121.4(5) . .
C16 N9 Cu4 125.9(4) . .
C22 N11 Cu4 143.3(5) . .
C22 N11 C20 105.1(5) . .
C20 N11 Cu4 111.2(4) . .
C14 N8 Cu4 111.6(4) . .
C12 N8 Cu4 142.9(4) . .
C12 N8 C14 105.4(5) . .
C13 N7 Cu3 140.4(4) . 4_565
C12 N7 Cu3 115.4(4) . 4_565
C12 N7 C13 104.1(5) . .
C2 N1 Cu1 127.6(4) . .
C2 N1 C1 105.5(5) . .
C1 N1 Cu1 126.8(5) . .
C4 N3 Cu3 113.4(4) . .
C4 N3 C5 121.6(6) . .
C5 N3 Cu3 124.9(4) . .
C2 N2 Cu3 145.0(5) . .
C2 N2 C3 104.6(5) . .
C3 N2 Cu3 110.4(4) . .
C11 N5 Cu3 144.0(5) . .
C11 N5 C9 103.2(5) . .
C9 N5 Cu3 111.5(4) . .
C11 N6 Cu4 123.3(4) . .
C11 N6 C10 103.5(5) . .
C10 N6 Cu4 133.1(4) . .
C8 N4 Cu3 112.7(4) . .
C8 N4 C7 121.0(6) . .
C7 N4 Cu3 126.3(5) . .
C19 N10 Cu4 113.2(5) . .
C19 N10 C18 120.4(6) . .
C18 N10 Cu4 126.4(4) . .
C22 N12 Cu2 124.4(4) . .
C21 N12 Cu2 129.9(5) . .
C21 N12 C22 105.2(5) . .
N8 C14 C13 107.4(5) . .
N8 C14 C15 115.6(6) . .
C13 C14 C15 137.0(6) . .
N11 C22 N12 112.5(6) . .
N11 C22 H22 123.7 . .
N12 C22 H22 123.7 . .
N3 C4 H4 121.2 . .
N3 C4 C3 117.6(6) . .
C3 C4 H4 121.2 . .
N5 C11 N6 115.5(6) . .
N5 C11 H11 122.2 . .
N6 C11 H11 122.2 . .
N7 C13 C14 109.4(6) . .
N7 C13 H13 125.3 . .
C14 C13 H13 125.3 . .
N1 C2 H2 123.3 . .
N2 C2 N1 113.4(6) . .
N2 C2 H2 123.3 . .
N5 C9 C8 114.7(6) . .
C10 C9 N5 108.8(6) . .
C10 C9 C8 136.5(6) . .
N2 C3 C4 116.4(6) . .
C1 C3 N2 108.6(6) . .
C1 C3 C4 134.9(7) . .
N6 C10 H10 125.5 . .
C9 C10 N6 109.0(6) . .
C9 C10 H10 125.5 . .
N8 C12 N7 113.6(5) . .
N8 C12 H12 123.2 . .
N7 C12 H12 123.2 . .
N9 C15 C14 118.0(6) . .
N9 C15 H15 121.0 . .
C14 C15 H15 121.0 . .
N9 C16 H16A 108.8 . .
N9 C16 H16B 108.8 . .
N9 C16 C17 113.9(5) . .
H16A C16 H16B 107.7 . .
C17 C16 H16A 108.8 . .
C17 C16 H16B 108.8 . .
N1 C1 C3 107.9(6) . .
N1 C1 H1 126.1 . .
C3 C1 H1 126.1 . .
N4 C8 C9 118.2(6) . .
N4 C8 H8 120.9 . .
C9 C8 H8 120.9 . .
N11 C20 C19 115.8(6) . .
C21 C20 N11 108.1(6) . .
C21 C20 C19 136.1(7) . .
N3 C5 H5A 109.2 . .
N3 C5 H5B 109.2 . .
N3 C5 C6 112.2(6) . .
H5A C5 H5B 107.9 . .
C6 C5 H5A 109.2 . .
C6 C5 H5B 109.2 . .
N4 C7 H7A 108.8 . .
N4 C7 H7B 108.8 . .
N4 C7 C6 113.7(6) . .
H7A C7 H7B 107.7 . .
C6 C7 H7A 108.8 . .
C6 C7 H7B 108.8 . .
C5 C6 C7 113.1(6) . .
C5 C6 H6A 109.0 . .
C5 C6 H6B 109.0 . .
C7 C6 H6A 109.0 . .
C7 C6 H6B 109.0 . .
H6A C6 H6B 107.8 . .
N10 C19 C20 116.9(6) . .
N10 C19 H19 121.5 . .
C20 C19 H19 121.5 . .
N12 C21 C20 109.1(6) . .
N12 C21 H21 125.5 . .
C20 C21 H21 125.5 . .
N10 C18 H18A 109.2 . .
N10 C18 H18B 109.2 . .
N10 C18 C17 112.0(6) . .
H18A C18 H18B 107.9 . .
C17 C18 H18A 109.2 . .
C17 C18 H18B 109.2 . .
C16 C17 H17A 108.1 . .
C16 C17 H17B 108.1 . .
C18 C17 C16 116.9(7) . .
C18 C17 H17A 108.1 . .
C18 C17 H17B 108.1 . .
H17A C17 H17B 107.3 . .
loop_
_geom_bond_atom_site_label_1
_geom_bond_atom_site_label_2
_geom_bond_distance
_geom_bond_site_symmetry_2
Cu3 N7 2.193(5) 3_655
Cu3 N3 2.018(5) .
Cu3 N2 2.007(5) .
Cu3 N5 1.995(5) .
Cu3 N4 2.009(5) .
Cu4 N9 2.019(5) .
Cu4 N11 1.979(5) .
Cu4 N8 1.981(5) .
Cu4 N6 2.172(5) .
Cu4 N10 2.014(5) .
Cu1 Cl05 2.715(4) .
Cu1 N1 1.988(5) 2_665
Cu1 N1 1.988(5) .
Cu1 N1 1.988(5) 3_655
Cu1 N1 1.988(5) 4_565
Cu2 Cl05 2.751(4) .
Cu2 N12 1.985(5) 4_565
Cu2 N12 1.985(5) .
Cu2 N12 1.985(5) 2_665
Cu2 N12 1.985(5) 3_655
N9 C15 1.288(8) .
N9 C16 1.463(7) .
N11 C22 1.331(7) .
N11 C20 1.381(8) .
N8 C14 1.379(7) .
N8 C12 1.340(7) .
N7 C13 1.373(8) .
N7 C12 1.355(7) .
N1 C2 1.338(8) .
N1 C1 1.367(8) .
N3 C4 1.279(8) .
N3 C5 1.463(7) .
N2 C2 1.329(7) .
N2 C3 1.382(8) .
N5 C11 1.320(7) .
N5 C9 1.385(7) .
N6 C11 1.338(7) .
N6 C10 1.368(8) .
N4 C8 1.298(8) .
N4 C7 1.450(8) .
N10 C19 1.288(8) .
N10 C18 1.462(8) .
N12 C22 1.358(8) .
N12 C21 1.351(8) .
C14 C13 1.386(9) .
C14 C15 1.417(8) .
C22 H22 0.9300 .
C4 H4 0.9300 .
C4 C3 1.433(8) .
C11 H11 0.9300 .
C13 H13 0.9300 .
C2 H2 0.9300 .
C9 C10 1.356(8) .
C9 C8 1.436(9) .
C3 C1 1.368(8) .
C10 H10 0.9300 .
C12 H12 0.9300 .
C15 H15 0.9300 .
C16 H16A 0.9700 .
C16 H16B 0.9700 .
C16 C17 1.514(9) .
C1 H1 0.9300 .
C8 H8 0.9300 .
C20 C19 1.444(9) .
C20 C21 1.366(8) .
C5 H5A 0.9700 .
C5 H5B 0.9700 .
C5 C6 1.505(9) .
C7 H7A 0.9700 .
C7 H7B 0.9700 .
C7 C6 1.533(10) .
C6 H6A 0.9700 .
C6 H6B 0.9700 .
C19 H19 0.9300 .
C21 H21 0.9300 .
C18 H18A 0.9700 .
C18 H18B 0.9700 .
C18 C17 1.496(11) .
C17 H17A 0.9700 .
C17 H17B 0.9700 .
loop_
_platon_squeeze_void_nr
_platon_squeeze_void_average_x
_platon_squeeze_void_average_y
_platon_squeeze_void_average_z
_platon_squeeze_void_volume
_platon_squeeze_void_count_electrons
_platon_squeeze_void_content
1 0.750 0.750 0.232 314 136 ' '
2 0.250 0.750 0.500 18 3 ' '
3 0.750 0.250 0.500 18 3 ' '
4 0.250 0.250 0.768 313 136 ' '
