#------------------------------------------------------------------------------
#$Date: 2019-11-05 11:18:54 +0200 (Tue, 05 Nov 2019) $
#$Revision: 223300 $
#$URL: file:///home/coder/svn-repositories/cod/cif/7/70/15/7701560.cif $
#------------------------------------------------------------------------------
#
# This file is available in the Crystallography Open Database (COD),
# http://www.crystallography.net/
#
# All data on this site have been placed in the public domain by the
# contributors.
#
data_7701560
loop_
_publ_author_name
'Gharib, Maniya'
'Esrafili, Leili'
'Morsali, Ali'
'Retailleau, Pascal'
_publ_section_title
;
 Solvent-assisted ligand exchange (SALE) for the enhancement of epoxide
 ring-opening reaction catalysis based on three amide-functionalized
 metal-organic frameworks.
;
_journal_issue                   24
_journal_name_full
'Dalton transactions (Cambridge, England : 2003)'
_journal_page_first              8803
_journal_page_last               8814
_journal_paper_doi               10.1039/c9dt00941h
_journal_volume                  48
_journal_year                    2019
_chemical_formula_moiety
'C50 H32 Co2 N4 O12, 2(C3 H7 N O), +[solvent C3 H7 N O]'
_chemical_formula_sum            'C56 H46 Co2 N6 O14'
_chemical_formula_weight         1144.85
_space_group_crystal_system      orthorhombic
_space_group_IT_number           33
_space_group_name_Hall           'P 2c -2n'
_space_group_name_H-M_alt        'P n a 21'
_atom_sites_solution_hydrogens   geom
_atom_sites_solution_primary     dual
_atom_sites_solution_secondary   difmap
_audit_creation_method           SHELXL-2018/3
_audit_update_record
;
2019-04-18 deposited with the CCDC.	2019-04-24 downloaded from the CCDC.
;
_cell_angle_alpha                90
_cell_angle_beta                 90
_cell_angle_gamma                90
_cell_formula_units_Z            4
_cell_length_a                   24.5947(18)
_cell_length_b                   15.6607(11)
_cell_length_c                   16.3428(12)
_cell_measurement_reflns_used    944
_cell_measurement_temperature    293
_cell_measurement_theta_max      27.5
_cell_measurement_theta_min      3.1
_cell_volume                     6294.8(8)
_computing_cell_refinement
;
CrystalClear-SM Expert 2.1 b45 (Rigaku, 2015)
;
_computing_data_collection
;
CrystalClear-SM Expert 2.1 b45 (Rigaku, 2015)
;
_computing_data_reduction
;
CrystalClear-SM Expert 2.1 b45 (Rigaku, 2015)
;
_computing_structure_refinement  'SHELXL-2018/3 (Sheldrick, 2018)'
_computing_structure_solution    'SHELXT 2014/5 (Sheldrick, 2014)'
_diffrn_ambient_temperature      293(2)
_diffrn_detector
;
Dectris Pilatus3R 200K
;
_diffrn_measured_fraction_theta_full 0.982
_diffrn_measured_fraction_theta_max 0.979
_diffrn_measurement_device_type  'Rigaku XtaLabPro MicroMax003'
_diffrn_measurement_method       'profile data from \w-scans'
_diffrn_radiation_monochromator  'Rigaku MaxFlux double bounce layer mirrors'
_diffrn_radiation_type           MoK\a
_diffrn_radiation_wavelength     0.71075
_diffrn_reflns_av_R_equivalents  0.0645
_diffrn_reflns_av_unetI/netI     0.0812
_diffrn_reflns_Laue_measured_fraction_full 0.982
_diffrn_reflns_Laue_measured_fraction_max 0.979
_diffrn_reflns_limit_h_max       19
_diffrn_reflns_limit_h_min       -31
_diffrn_reflns_limit_k_max       20
_diffrn_reflns_limit_k_min       -16
_diffrn_reflns_limit_l_max       18
_diffrn_reflns_limit_l_min       -20
_diffrn_reflns_number            35004
_diffrn_reflns_point_group_measured_fraction_full 0.905
_diffrn_reflns_point_group_measured_fraction_max 0.877
_diffrn_reflns_theta_full        25.242
_diffrn_reflns_theta_max         27.517
_diffrn_reflns_theta_min         3.604
_diffrn_source                   'microsource Mo'
_diffrn_source_current           0.6
_diffrn_source_power             0.03
_diffrn_source_voltage           50.0
_exptl_absorpt_coefficient_mu    0.589
_exptl_absorpt_correction_T_max  1.000
_exptl_absorpt_correction_T_min  0.581
_exptl_absorpt_correction_type   multi-scan
_exptl_absorpt_process_details   'Refqab (Higashi-Rigaku)'
_exptl_crystal_colour            Colorless
_exptl_crystal_density_diffrn    1.208
_exptl_crystal_description       stick
_exptl_crystal_F_000             2360
_exptl_crystal_size_max          0.18
_exptl_crystal_size_mid          0.08
_exptl_crystal_size_min          0.03
_refine_diff_density_max         0.336
_refine_diff_density_min         -0.303
_refine_diff_density_rms         0.060
_refine_ls_abs_structure_details
;
 Refined as an inversion twin.
;
_refine_ls_abs_structure_Flack   0.47(2)
_refine_ls_extinction_method     none
_refine_ls_goodness_of_fit_ref   1.008
_refine_ls_hydrogen_treatment    mixed
_refine_ls_matrix_type           full
_refine_ls_number_parameters     751
_refine_ls_number_reflns         12685
_refine_ls_number_restraints     102
_refine_ls_restrained_S_all      1.007
_refine_ls_R_factor_all          0.1020
_refine_ls_R_factor_gt           0.0552
_refine_ls_shift/su_max          0.010
_refine_ls_shift/su_mean         0.000
_refine_ls_structure_factor_coef Fsqd
_refine_ls_weighting_details
'w=1/[\s^2^(Fo^2^)+(0.0698P)^2^] where P=(Fo^2^+2Fc^2^)/3'
_refine_ls_weighting_scheme      calc
_refine_ls_wR_factor_gt          0.1193
_refine_ls_wR_factor_ref         0.1407
_reflns_Friedel_coverage         0.731
_reflns_Friedel_fraction_full    0.823
_reflns_Friedel_fraction_max     0.767
_reflns_number_gt                8301
_reflns_number_total             12722
_reflns_threshold_expression     'I > 2\s(I)'
_cod_data_source_file            c9dt00941h2.cif
_cod_data_source_block           TMU-51_sq
_cod_database_code               7701560
_shelx_shelxl_version_number     2018/3
_shelx_space_group_comment
;
The symmetry employed for this shelxl refinement is uniquely defined
by the following loop, which should always be used as a source of
symmetry information in preference to the above space-group names.
They are only intended as comments.
;
_shelx_res_file
;
TITL shelx_a.res in Pna2(1)
    shelx_sq.res
    created by SHELXL-2018/3 at 15:42:29 on 20-Mar-2019
REM Old TITL shelx in Pna21 #33
REM SHELXT solution in Pna2(1)
REM R1 0.170, Rweak 0.016, Alpha 0.009, Orientation as input
REM Flack x = 0.472 ( 0.011 ) from Parsons' quotients
REM Formula found by SHELXT: C51 Co2 N11 O14
REM #####
CELL 0.71075 24.5947 15.6607 16.3428 90 90 90
ZERR 4 0.0018 0.0011 0.0012 0 0 0
LATT -1
SYMM -X,-Y,0.5+Z
SYMM 0.5+X,0.5-Y,+Z
SYMM 0.5-X,0.5+Y,0.5+Z
SFAC C H Co N O
UNIT 224 184 8 24 56
RIGU  O12 C45 C46 C47 C48 C49 C50 N4 Co2 C47B C48B C49B C50B
ACTA
L.S. 20 0 39
PLAN  20
LIST 4
BOND $H
MORE -1
CONF
ABIN
SADI 0.01  N5 C52 N5 C53  N6 C55 N6 C56
DFIX 0.87 N2 H2N N3 H3N
fmap 2
acta
TWIN -1 0 0 0 -1 0 0 0 -1 2
OMIT 2 4 0
OMIT 0 4 0
OMIT 3 1 -1
OMIT 2 0 3
OMIT 4 1 1
OMIT 2 2 1
OMIT 1 1 3
OMIT 2 2 0
OMIT 3 2 1
OMIT 3 2 -1
OMIT 0 2 4
OMIT 2 1 -2
OMIT 2 1 3
OMIT 2 0 4
OMIT 4 1 -1
OMIT 0 4 2
OMIT 1 1 -3
OMIT 4 2 0
OMIT 6 1 -1
OMIT 2 0 -4
OMIT 6 2 0
OMIT 0 4 -2
OMIT 4 0 3
OMIT 1 3 1
OMIT 8 2 -1
OMIT 4 0 -3
OMIT 6 2 2
OMIT 1 3 0
OMIT 12 2 3
OMIT 3 3 3
OMIT 10 2 -1
OMIT 1 3 -1
OMIT 1 4 0
OMIT 2 3 0
OMIT 5 5 0
OMIT 3 3 -3
OMIT 1 2 -2
REM <olex2.extras>
REM <HklSrc "%./shelx_sq.hkl">
REM </olex2.extras>

WGHT    0.069800
BASF   0.46705
FVAR       0.28264   0.45716
C1    1   -0.017714    0.095860    0.080952    11.00000    0.03656    0.03942 =
         0.04200    0.00242   -0.00442    0.00434
N1    4   -0.077492    0.146544    0.320102    11.00000    0.05136    0.03217 =
         0.03716   -0.00915    0.00024    0.00496
O1    5   -0.038172    0.120383    0.149004    11.00000    0.05361    0.05415 =
         0.05180   -0.00489    0.01434   -0.01861
CO1   3   -0.087708    0.059302    0.226998    11.00000    0.03288    0.03012 =
         0.03628   -0.00895    0.00185   -0.00189
C2    1    0.022650    0.153588    0.043735    11.00000    0.03266    0.04170 =
         0.03502   -0.00248    0.00262   -0.00536
N2    4   -0.061767    0.405004    0.507877    11.00000    0.09508    0.03921 =
         0.02944   -0.01014    0.00443   -0.00547
H2N   2   -0.059143    0.417257    0.456756    11.00000   -1.20000
O2    5   -0.028709    0.027381    0.046045    11.00000    0.05249    0.03859 =
         0.04709   -0.00693    0.00252   -0.01503
CO2   3    0.420492    0.557067    0.104132    11.00000    0.03425    0.02970 =
         0.03572    0.00972   -0.00175    0.00039
N3    4   -0.122815    0.601036    0.822715    11.00000    0.11343    0.04015 =
         0.03912   -0.01369    0.01578   -0.00749
H3N   2   -0.121433    0.581175    0.872758    11.00000   -1.20000
C3    1    0.047160    0.136161   -0.031240    11.00000    0.04691    0.04622 =
         0.05059   -0.01774    0.00005   -0.00534
AFIX  43
H3    2    0.036954    0.087682   -0.060297    11.00000   -1.20000
AFIX   0
O3    5    0.141067    0.312278   -0.056731    11.00000    0.05540    0.09618 =
         0.04567    0.01104   -0.00498   -0.03713
C4    1    0.085950    0.189174   -0.062738    11.00000    0.04597    0.06658 =
         0.04319   -0.01371    0.01101   -0.01098
AFIX  43
H4    2    0.101456    0.176793   -0.113265    11.00000   -1.20000
AFIX   0
O4    5    0.345879    0.390764    0.168259    11.00000    0.05040    0.06152 =
         0.04504    0.00577   -0.00952   -0.01402
N4    4   -0.089540    0.853928    1.012841    11.00000    0.05964    0.03347 =
         0.03869   -0.00559    0.00091   -0.00282
N5    4   -0.075402    0.603222    0.278302    11.00000    0.19103    0.06531 =
         0.08884    0.00953    0.05058    0.01925
C5    1    0.102162    0.259891   -0.021032    11.00000    0.03351    0.06555 =
         0.04842    0.00587    0.00107   -0.01880
O5    5    0.355521    0.487045    0.068998    11.00000    0.03994    0.05242 =
         0.06271    0.01094   -0.00450   -0.01722

C6    1    0.078722    0.279848    0.053417    11.00000    0.05673    0.05657 =
         0.05510   -0.01015    0.00641   -0.02144
AFIX  43
H6    2    0.089512    0.328654    0.081474    11.00000   -1.20000
AFIX   0
O6    5    0.483800    0.605848    0.164044    11.00000    0.05294    0.05209 =
         0.05695    0.00961   -0.01311   -0.01771
C7    1    0.039782    0.227894    0.085631    11.00000    0.05319    0.05541 =
         0.04357   -0.01103    0.00583   -0.02378
AFIX  43
H7    2    0.024253    0.241476    0.135858    11.00000   -1.20000
AFIX   0
O7    5    0.477775    0.512397    0.266059    11.00000    0.04583    0.04517 =
         0.06773    0.00963   -0.01003   -0.01355
C8    1    0.185321    0.340253   -0.012082    11.00000    0.03918    0.07373 =
         0.04524    0.00869   -0.00753   -0.02033
O8    5    0.675312    0.729289    0.394219    11.00000    0.05749    0.11446 =
         0.05206    0.01214   -0.00394   -0.04581
C9    1    0.213224    0.408084   -0.043391    11.00000    0.04919    0.06485 =
         0.05679    0.01489   -0.00673   -0.01666
AFIX  43
H9    2    0.200557    0.435445   -0.090162    11.00000   -1.20000
AFIX   0
O9    5    0.868447    0.881105    0.182509    11.00000    0.05878    0.05662 =
         0.05037   -0.00418    0.01228   -0.01534
C10   1    0.259470    0.435789   -0.006441    11.00000    0.05678    0.05729 =
         0.05770    0.01468   -0.00532   -0.02542
AFIX  43
H10   2    0.277952    0.482228   -0.028449    11.00000   -1.20000
AFIX   0
O10   5    0.863081    0.976503    0.283068    11.00000    0.05265    0.04767 =
         0.06080   -0.00174    0.00629   -0.01387
O11   5   -0.032170    0.293949    0.578781    11.00000    0.23520    0.05121 =
         0.05636   -0.00411   -0.04156    0.01727
C11   1    0.279854    0.396573    0.063324    11.00000    0.03890    0.04453 =
         0.04673   -0.00188    0.00089   -0.01048
C12   1    0.250324    0.327912    0.093929    11.00000    0.05638    0.07027 =
         0.04601    0.02139   -0.01077   -0.02804
AFIX  43
H12   2    0.262650    0.300347    0.140795    11.00000   -1.20000
AFIX   0
O12   5   -0.124489    0.718888    0.743922    11.00000    0.26745    0.05247 =
         0.03330   -0.00703   -0.00885   -0.01495
C13   1    0.203425    0.299532    0.056968    11.00000    0.06037    0.07167 =
         0.05921    0.02277   -0.00454   -0.03258
AFIX  43
H13   2    0.184320    0.253467    0.078487    11.00000   -1.20000
AFIX   0

C14   1    0.330639    0.426292    0.103095    11.00000    0.04038    0.04407 =
         0.05122   -0.00522   -0.00182   -0.00246
C15   1    0.498978    0.575003    0.230626    11.00000    0.03071    0.04209 =
         0.04740    0.00494    0.00144    0.00116
C16   1    0.547231    0.616204    0.272420    11.00000    0.03499    0.04660 =
         0.04670    0.01096    0.00290   -0.00428
C17   1    0.571313    0.686669    0.237403    11.00000    0.05103    0.06230 =
         0.04810    0.01377   -0.01106   -0.01381
AFIX  43
H17   2    0.558014    0.708606    0.188456    11.00000   -1.20000
AFIX   0
C18   1    0.615233    0.724562    0.275234    11.00000    0.06165    0.06575 =
         0.05430    0.02020   -0.00934   -0.02855
AFIX  43
H18   2    0.631808    0.772127    0.252030    11.00000   -1.20000
AFIX   0
C19   1    0.634244    0.691316    0.347551    11.00000    0.04357    0.07578 =
         0.04280    0.00716   -0.00133   -0.02474
C20   1    0.609455    0.622551    0.384011    11.00000    0.04812    0.07909 =
         0.04309    0.01929   -0.00606   -0.01699
AFIX  43
H20   2    0.622166    0.601637    0.433717    11.00000   -1.20000
AFIX   0
C21   1    0.566305    0.585575    0.346748    11.00000    0.03640    0.05521 =
         0.06012    0.02280    0.00080   -0.01184
AFIX  43
H21   2    0.549255    0.539133    0.371230    11.00000   -1.20000
AFIX   0
C22   1    0.718344    0.771156    0.354445    11.00000    0.04326    0.07131 =
         0.04703    0.01254   -0.00660   -0.02278
C23   1    0.741155    0.740562    0.284334    11.00000    0.06354    0.07262 =
         0.06518   -0.01024   -0.00294   -0.03935
AFIX  43
H23   2    0.728068    0.691083    0.259793    11.00000   -1.20000
AFIX   0
C24   1    0.784996    0.785760    0.250066    11.00000    0.05427    0.05784 =
         0.05243   -0.00713    0.00525   -0.01324
AFIX  43
H24   2    0.801555    0.765426    0.202762    11.00000   -1.20000
AFIX   0
C25   1    0.803453    0.858892    0.285342    11.00000    0.03133    0.04759 =
         0.04757    0.00102   -0.00113   -0.00647
C26   1    0.780471    0.886602    0.358934    11.00000    0.04718    0.06208 =
         0.04782   -0.00610    0.00026   -0.01945
AFIX  43
H26   2    0.794234    0.934624    0.385233    11.00000   -1.20000
AFIX   0
C27   1    0.737360    0.842552    0.392397    11.00000    0.04223    0.08538 =
         0.04572   -0.00845    0.00470   -0.01213
AFIX  43
H27   2    0.721344    0.861493    0.440644    11.00000   -1.20000
AFIX   0
C28   1    0.848175    0.908406    0.248136    11.00000    0.03801    0.04233 =
         0.04337    0.00471    0.00017   -0.00361
C29   1   -0.065618    0.122326    0.394252    11.00000    0.11872    0.02748 =
         0.04746   -0.00798   -0.00353    0.00818
AFIX  43
H29   2   -0.063543    0.064124    0.405111    11.00000   -1.20000
AFIX   0
C30   1   -0.055828    0.179550    0.458393    11.00000    0.11753    0.04380 =
         0.03711   -0.00270   -0.01351    0.00829
AFIX  43
H30   2   -0.046334    0.159253    0.509928    11.00000   -1.20000
AFIX   0
C31   1   -0.060211    0.263848    0.445143    11.00000    0.07340    0.03804 =
         0.03413   -0.00909    0.00089   -0.00045
C32   1   -0.072477    0.289978    0.366906    11.00000    0.15846    0.02424 =
         0.03711   -0.00252    0.00031    0.00970
AFIX  43
H32   2   -0.075740    0.347801    0.354906    11.00000   -1.20000
AFIX   0
C33   1   -0.079866    0.229842    0.306625    11.00000    0.12713    0.04082 =
         0.03338   -0.00546   -0.01125    0.00908
AFIX  43
H33   2   -0.086890    0.248624    0.253686    11.00000   -1.20000
AFIX   0
C34   1   -0.050269    0.324079    0.515859    11.00000    0.10908    0.04037 =
         0.03245   -0.00303   -0.00076    0.00453
C35   1   -0.053870    0.462422    0.576154    11.00000    0.06923    0.03710 =
         0.03944   -0.00960    0.00347    0.00210
C36   1   -0.003944    0.497086    0.588215    11.00000    0.08679    0.05468 =
         0.06048   -0.01431    0.02280   -0.00904
AFIX  43
H36   2    0.023673    0.486944    0.550579    11.00000   -1.20000
AFIX   0
C37   1    0.006379    0.548488    0.657561    11.00000    0.08083    0.06236 =
         0.06976   -0.01599   -0.00234   -0.01993
AFIX  43
H37   2    0.040808    0.571232    0.666427    11.00000   -1.20000
AFIX   0
C38   1   -0.035113    0.564404    0.711686    11.00000    0.08231    0.04555 =
         0.05422   -0.01868    0.00139   -0.01269
AFIX  43
H38   2   -0.028310    0.597934    0.757524    11.00000   -1.20000
AFIX   0
C39   1   -0.087330    0.531450    0.699585    11.00000    0.07407    0.02884 =
         0.04008   -0.00742   -0.00133   -0.00390
C40   1   -0.131469    0.546500    0.753577    11.00000    0.09826    0.03565 =
         0.03986   -0.01340    0.00985   -0.01007
C41   1   -0.180435    0.509975    0.743950    11.00000    0.09526    0.06436 =
         0.07225   -0.02808    0.02725   -0.02721
AFIX  43
H41   2   -0.208217    0.520364    0.781247    11.00000   -1.20000
AFIX   0
C42   1   -0.189286    0.454399    0.674902    11.00000    0.09526    0.07536 =
         0.07922   -0.02684    0.01860   -0.03526
AFIX  43
H42   2   -0.223117    0.429204    0.666947    11.00000   -1.20000
AFIX   0
C43   1   -0.148578    0.439045    0.622034    11.00000    0.07908    0.05703 =
         0.04306   -0.02464    0.00289   -0.01933
AFIX  43
H43   2   -0.154712    0.401990    0.578535    11.00000   -1.20000
AFIX   0
C44   1   -0.096574    0.477358    0.630225    11.00000    0.07083    0.03293 =
         0.02798   -0.00764   -0.00150    0.00183
C45   1   -0.120417    0.686742    0.810119    11.00000    0.12745    0.04929 =
         0.03359   -0.00785    0.00591   -0.00980
C46   1   -0.108962    0.741528    0.884839    11.00000    0.09595    0.03794 =
         0.04131   -0.01191    0.01180   -0.00232
PART 1
C47   1   -0.122840    0.831455    0.870167    21.00000    0.09440    0.04209 =
         0.04867   -0.00643   -0.02483   -0.00557
AFIX  43
H47   2   -0.138113    0.851984    0.821970    21.00000   -1.20000
AFIX   0
C48   1   -0.111358    0.877495    0.931517    21.00000    0.10650    0.03747 =
         0.05140    0.00059   -0.02892   -0.00432
AFIX  43
H48   2   -0.117667    0.935558    0.924275    21.00000   -1.20000
AFIX   0
C49   1   -0.082636    0.774556    1.024768    21.00000    0.07753    0.02578 =
         0.04397   -0.01593   -0.01869   -0.00310
AFIX  43
H49   2   -0.071798    0.754694    1.075855    21.00000   -1.20000
AFIX   0
C50   1   -0.092097    0.712977    0.955780    21.00000    0.07053    0.03222 =
         0.04397   -0.01747    0.00860    0.00522
AFIX  43
H50   2   -0.086018    0.654903    0.963377    21.00000   -1.20000
AFIX   0
PART 2
C47B  1   -0.092129    0.821404    0.873877   -21.00000    0.16303    0.04750 =
         0.02585    0.00150   -0.01066   -0.02569
AFIX  43
H47B  2   -0.083371    0.839908    0.821435   -21.00000   -1.20000
AFIX   0
C48B  1   -0.087239    0.879073    0.940574   -21.00000    0.22494    0.05064 =
         0.03950   -0.00804   -0.01321   -0.06953
AFIX  43
H48B  2   -0.082207    0.936899    0.930070   -21.00000   -1.20000
AFIX   0
C49B  1   -0.104757    0.773152    1.022232   -21.00000    0.14230    0.04093 =
         0.04140   -0.00111   -0.00306   -0.02003
AFIX  43
H49B  2   -0.108698    0.754048    1.075786   -21.00000   -1.20000
AFIX   0
C50B  1   -0.114745    0.717884    0.964927   -21.00000    0.10404    0.04871 =
         0.04302   -0.01220    0.01713   -0.00793
AFIX  43
H50B  2   -0.125721    0.662776    0.978218   -21.00000   -1.20000
AFIX   0
PART 0
REM DMF
O14   5   -0.120122    0.505196    0.970033    11.00000    0.21786    0.10146 =
         0.12049    0.04419   -0.07024   -0.05152
C54   1   -0.131326    0.450469    1.017503    11.00000    0.15283    0.12146 =
         0.13427    0.03776   -0.06673   -0.04545
AFIX  43
H54   2   -0.157607    0.463448    1.056481    11.00000   -1.20000
AFIX   0
N6    4   -0.111165    0.376796    1.020222    11.00000    0.15698    0.08598 =
         0.12805    0.04340   -0.06378   -0.04544
C55   1   -0.069752    0.358840    0.961280    11.00000    0.23176    0.27382 =
         0.21633   -0.05942    0.01083   -0.08978
AFIX 137
H55A  2   -0.057165    0.301285    0.968346    11.00000   -1.50000
H55B  2   -0.039962    0.397672    0.968758    11.00000   -1.50000
H55C  2   -0.084325    0.365507    0.907162    11.00000   -1.50000
AFIX   0

C56   1   -0.118433    0.304249    1.067400    11.00000    0.20061    0.11923 =
         0.14833    0.05292   -0.05080   -0.04078
AFIX 137
H56A  2   -0.128571    0.257344    1.032795    11.00000   -1.50000
H56B  2   -0.146627    0.314268    1.106874    11.00000   -1.50000
H56C  2   -0.085141    0.290838    1.095242    11.00000   -1.50000
AFIX   0
REM DMF
O13   5   -0.092694    0.492766    0.360419    11.00000    0.24469    0.06052 =
         0.09036    0.01400    0.01275    0.03059

C51   1   -0.072236    0.552266    0.332895    11.00000    0.33214    0.08594 =
         0.13924    0.01318    0.11771    0.05080
AFIX  43
H51   2   -0.042119    0.565886    0.364734    11.00000   -1.20000
AFIX   0
C52   1   -0.121941    0.594132    0.227620    11.00000    0.30492    0.32640 =
         0.14047   -0.00483   -0.05028    0.15341
AFIX 137
H52A  2   -0.144217    0.644250    0.232122    11.00000   -1.50000
H52B  2   -0.142396    0.545049    0.244672    11.00000   -1.50000
H52C  2   -0.110674    0.586952    0.171801    11.00000   -1.50000
AFIX   0

C53   1   -0.043711    0.673258    0.256584    11.00000    0.35503    0.16122 =
         0.18711   -0.00125    0.11885   -0.07670
AFIX 137
H53A  2   -0.034340    0.669506    0.199674    11.00000   -1.50000
H53B  2   -0.011125    0.673734    0.288918    11.00000   -1.50000
H53C  2   -0.063805    0.724848    0.266178    11.00000   -1.50000
AFIX   0
HKLF 4




REM  shelx_a.res in Pna2(1)
REM wR2 = 0.1407, GooF = S = 1.008, Restrained GooF = 1.007 for all data
REM R1 = 0.0552 for 8301 Fo > 4sig(Fo) and 0.1020 for all 12685 data
REM 751 parameters refined using 102 restraints

END

WGHT      0.0698      0.0000

REM Highest difference peak  0.336,  deepest hole -0.303,  1-sigma level  0.060
Q1    1  -0.1314  0.5790  0.2181  11.00000  0.05    0.34
Q2    1  -0.1503  0.3967  1.0742  11.00000  0.05    0.30
Q3    1  -0.0769  0.5590  0.3522  11.00000  0.05    0.26
Q4    1   0.5161  0.4797  0.1946  11.00000  0.05    0.24
Q5    1  -0.1523  0.3559  1.1092  11.00000  0.05    0.24
Q6    1   0.7506  0.8156  0.2214  11.00000  0.05    0.23
Q7    1  -0.2245  0.5015  0.8453  11.00000  0.05    0.23
Q8    1  -0.0905  0.4375  0.9774  11.00000  0.05    0.23
Q9    1   0.7332  0.9381  0.3837  11.00000  0.05    0.23
Q10   1  -0.0797  0.1577  0.5193  11.00000  0.05    0.23
Q11   1   0.9057  0.9426  0.3539  11.00000  0.05    0.23
Q12   1   0.0800  0.1281 -0.1493  11.00000  0.05    0.23
Q13   1   0.5427  0.4989  0.2408  11.00000  0.05    0.22
Q14   1   0.2566  0.4582  0.0163  11.00000  0.05    0.22
Q15   1   0.8085  0.9042  0.2515  11.00000  0.05    0.21
Q16   1  -0.0497  0.2435  0.4510  11.00000  0.05    0.21
Q17   1   0.9085  0.8994  0.1934  11.00000  0.05    0.21
Q18   1  -0.1567  0.6387  0.2219  11.00000  0.05    0.21
Q19   1  -0.1542  0.3989  1.1174  11.00000  0.05    0.21
Q20   1   0.1913  0.2970  0.1331  11.00000  0.05    0.21
;
_shelx_res_checksum              25059
_shelx_fab_file
;
    3    1    1    -22.95     17.57
    2    1    2      4.61     -1.78
    0    2    2     -8.18     20.93
    1    2    2     -1.96    -10.30
    3    1    2      3.70    -10.56
    4    1    1    -15.07    -23.50
    3    2    1      4.20     -8.06
    1    3    0     17.01      0.01
    1    1    3     -0.87    -18.96
    0    3    1    -13.90      8.98
    1    3    1    -15.16      7.78
    4    2    0    -32.38      0.01
    2    3    0    -19.10      0.00
    2    1    3      3.05     -3.38
    5    1    1     11.24     -6.62
    1    2    3      3.52     -4.46
    4    0    3     -0.71      3.32
    5    1    2     -3.37     -6.05
    4    3    0      8.09     -0.00
    4    1    3     -9.35      1.91
    0    4    0     19.36      0.05
    1    1    4     -1.67     -4.37
    2    0    4      9.48      2.23
    3    3    2      0.93     -7.08
    1    4    0    -12.11      0.01
    4    3    1     11.29     -2.36
    6    1    1     12.78     17.11
    2    1    4     -3.77      4.29
    1    4    1     -6.50      3.53
    2    4    0     -4.96     -0.05
    1    3    3     -0.08     -2.53
    5    2    2     -4.81     -6.46
    6    0    2     -6.60     15.27
    2    4    1    -11.03     11.85
    6    2    0     13.15     -0.02
    0    2    4     -1.25    -10.58
    4    2    3      4.33     -0.52
    2    3    3      3.39      0.26
    1    2    4     -4.86      8.14
    5    3    0     -0.15     -0.00
    4    3    2      6.75     -0.35
    6    1    2      1.66     -7.61
    3    1    4      4.90      3.81
    5    1    3      4.35     -1.71
    6    2    1     -5.48     -8.59
    3    4    0     -6.25     -0.01
    0    4    2      0.11      8.03
    5    3    1     -2.82     -0.50
    1    4    2      1.44     -3.50
    2    2    4      3.76      4.46
    3    4    1      2.21     -4.38
    3    3    3      0.75     -1.39
    4    0    4     -0.84      2.13
    2    4    2      1.83     -0.76
    7    1    1     -5.56     -0.87
    4    1    4      1.59      1.86
    6    2    2      3.01     -8.22
    3    2    4     -0.13      3.53
    5    2    3     -2.78      1.97
    4    4    0     -3.74      0.05
    5    3    2      0.21      4.32
    6    0    3      5.22     -3.10
    3    4    2      5.61     -3.87
    4    4    1      4.98     -5.34
    6    3    0     -3.85     -0.00
    4    3    3      1.24      2.80
    6    1    3      5.58      0.90
    7    2    0     -3.25     -0.04
    0    1    5      1.12     10.93
    1    3    4     -0.18     -0.84
    1    1    5      5.46      3.31
    6    3    1     -3.98     -2.78
    7    1    2      4.52     -1.59
    2    0    5      6.31      3.41
    1    4    3      3.27     -3.90
    7    2    1      2.08      0.27
    4    2    4     -1.98      2.50
    2    3    4      4.21      4.46
    1    5    0      7.29      0.00
    2    1    5     -1.27     -3.61
    5    1    4     -4.18     -0.26
    2    4    3     -3.15     -4.36
    0    5    1     -9.06     -3.20
    5    4    0      3.97      0.01
    4    4    2      0.15     -4.68
    1    5    1     -6.25      6.63
    2    5    0     -4.54     -0.02
    6    2    3     -8.21      0.51
    5    4    1      3.49     -2.59
    6    3    2      0.68      8.16
    3    3    4      4.04      1.61
    1    2    5      1.87      4.01
    5    3    3     -0.11      4.85
    2    5    1      1.56      3.33
    7    2    2      2.85      4.36
    3    1    5     -3.06      2.87
    8    1    1     -5.59    -12.95
    3    4    3     -0.44      1.24
    2    2    5      3.10      5.07
    3    5    0     -9.06     -0.01
    5    2    4     -1.55     -1.47
    7    3    0     -3.01      0.00
    1    5    2      0.87      3.13
    7    1    3     -4.37     -2.75
    6    0    4     -5.16     -3.08
    4    0    5     -8.01      0.35
    3    5    1      2.39      0.21
    8    0    2      9.57    -11.72
    7    3    1     -1.30      3.40
    5    4    2      1.49      2.98
    8    2    0    -17.80      0.02
    4    3    4     -6.99      0.90
    6    1    4     -1.58     -1.68
    2    5    2      5.16     -1.65
    4    1    5      1.28     -1.36
    6    4    0      1.64     -0.06
    3    2    5     -3.52     -1.67
    8    1    2     -2.11      6.04
    0    4    4     -5.24     -2.61
    4    4    3      1.67      7.74
    8    2    1      6.45      8.93
    1    4    4     -0.64      0.95
    4    5    0     -0.24      0.01
    6    4    1      0.00      2.46
    6    3    3     -5.33     -0.59
    0    3    5      2.65      5.60
    7    2    3     -0.87      0.57
    2    4    4      3.89      3.97
    3    5    2      1.75     -5.44
    1    3    5      7.54      1.09
    4    5    1      2.01     -4.54
    7    3    2      0.65     -2.90
    0    0    6     -1.34      4.79
    0    5    3      1.80     -6.40
    6    2    4     -6.58     -3.49
    4    2    5     -6.52     -1.12
    2    3    5     -1.93     -0.59
    8    2    2     -2.33      0.37
    1    5    3     -1.47     -1.53
    5    3    4     -5.30      0.59
    5    1    5     -5.24      0.13
    8    0    3     -3.72      0.57
    6    4    2     -3.75      6.58
    3    4    4     -0.63      4.70
    5    4    3      2.23      0.41
    1    1    6      1.79      1.42
    2    0    6      1.54     -1.94
    9    1    1      5.65      0.38
    2    5    3      3.55      2.64
    8    3    0      5.83      0.01
    5    5    0      0.42      0.01
    4    5    2      0.26      1.35
    8    1    3     -3.60      0.28
    7    1    4     -1.70     -0.09
    3    3    5     -5.36      0.92
    2    1    6     -2.34     -1.79
    7    4    0      3.77     -0.01
    8    3    1      2.35      7.82
    0    6    0     -0.29      0.04
    5    5    1      1.61     -0.96
    1    6    0     -8.92     -0.01
    7    4    1     -0.21      4.33
    9    2    0      2.08      0.03
    3    5    3     -1.27      1.79
    0    2    6      3.53      1.23
    5    2    5      1.18      0.17
    7    3    3     -4.07     -7.98
    4    4    4      1.90     -1.17
    1    6    1     -3.57      0.58
    1    2    6     -3.01      0.19
    9    1    2      1.17     -2.82
    6    0    5     -0.80      2.96
    2    6    0      0.62     -0.04
    3    1    6     -3.60      2.09
    9    2    1      2.60     -1.44
    8    2    3      4.15     -5.75
    6    3    4      2.84      2.37
    4    3    5     -1.51      0.33
    2    6    1     -2.53      2.06
    6    1    5     -1.19     -0.54
    7    2    4      1.77      1.20
    8    3    2      1.44     -9.20
    2    2    6     -2.49      1.86
    5    5    2     -2.08      3.80
    6    4    3      1.45     -3.85
    1    4    5      1.14      1.23
    7    4    2      1.43      0.45
    4    0    6     -4.57      6.42
    6    5    0      0.08      0.00
    3    6    0      2.04      0.00
    0    6    2     -2.88      3.10
    4    5    3     -2.40     -1.60
    1    6    2      3.93     -3.24
    1    5    4     -0.77      0.71
    6    5    1     -0.96      2.71
    9    2    2     -1.41     -2.08
    4    1    6      0.59     -1.21
    3    6    1      3.67     -3.16
    2    4    5      1.76     -2.36
    8    0    4      1.25      3.95
    3    2    6      0.00     -3.71
    5    4    4     -2.36     -2.72
    2    6    2      5.15     -3.05
    2    5    4     -0.91      4.03
    6    2    5      0.83      3.61
    8    1    4      3.09      1.11
    9    3    0     -4.66      0.01
    8    4    0     -3.59      0.05
    5    3    5     -2.69      1.80
    9    1    3      0.41      2.08
    1    3    6      0.34     -0.95
   10    1    1      3.97      7.10
    4    6    0     -2.99      0.03
    3    4    5     -3.23      1.07
    9    3    1      2.42     -3.21
    8    4    1     -3.18      0.28
    8    3    3      1.94      1.80
    6    5    2      2.49     -1.24
    3    6    2      0.76      0.96
    3    5    4      3.85      1.88
    5    5    3      1.25      3.62
    4    6    1      3.61     -2.15
    4    2    6     -1.06      0.11
    7    3    4     -5.13     -1.60
    2    3    6     -1.52      0.49
    7    1    5      4.74      0.98
    7    4    3     -4.43      0.94
    5    1    6      0.08      0.15
   10    0    2     -6.13      4.28
   10    2    0      6.97     -0.01
    8    2    4      4.32      3.67
    1    6    3      3.40     -2.65
    7    5    0      3.75      0.00
    9    2    3     -1.99      1.81
   10    1    2      0.69     -4.66
    6    4    4     -7.90     -2.05
    4    4    5     -5.33      1.94
   10    2    1     -1.63    -10.52
    9    3    2     -0.85     -4.50
    8    4    2      4.69     -5.38
    3    3    6     -2.36      4.54
    7    5    1     -3.63      0.85
    2    6    3     -0.65     -1.47
    0    1    7      2.05     -1.00
    5    6    0      2.02     -0.01
    4    6    2     -3.41      0.42
    4    5    4     -2.19     -1.14
    1    1    7     -1.10      2.65
    6    3    5      3.26      0.01
    2    0    7     -0.75      3.82
    7    2    5      1.32     -2.34
    5    6    1     -0.80      2.99
    5    2    6      2.51      1.32
    2    1    7     -3.90     -0.66
    6    0    6      6.40     -7.37
    6    5    3     -0.79      0.22
    3    6    3     -2.12      3.91
    0    5    5      4.04      1.15
   10    2    2      1.71     -5.47
    1    5    5     -2.35     -2.35
    9    1    4      1.44      1.34
    7    5    2      1.68      0.67
    4    3    6      1.93     -1.54
    6    1    6      0.93      0.77
   10    0    3      2.45      0.47
    9    4    0     -5.09      0.01
    8    0    5      3.56     -0.73
    0    4    6      3.33     -0.24
    5    4    5      0.64     -0.55
    1    2    7     -0.54      0.01
    1    7    0      1.23     -0.01
    1    4    6     -0.40     -4.81
   10    3    0     -7.24     -0.01
    2    5    5     -4.14      0.70
    8    3    4     -3.74      0.03
    3    1    7      1.09     -1.47
    9    4    1      1.46     -0.15
    5    6    2      0.56      2.37
   10    1    3      3.01      1.49
    5    5    4     -4.81     -2.15
    8    1    5      1.52      1.66
    0    7    1     -4.93      3.28
    9    3    3     -0.92      3.29
    8    4    3     -7.65     -2.15
    1    7    1     -0.20      5.05
   10    3    1     -0.22     -4.49
    7    4    4      0.29      3.82
    6    6    0      5.24     -0.03
    2    2    7      0.93      1.70
    2    7    0     -5.00     -0.00
    2    4    6     -3.91     -0.91
    0    6    4     -4.09     -0.39
    4    6    3      2.25      5.48
    8    5    0      0.86      0.01
   11    1    1     -0.15     -2.23
    1    6    4     -1.79      4.78
    4    0    7      0.21     -5.32
    6    6    1     -0.62      1.46
    9    2    4     -0.84      1.30
    2    7    1      1.89     -2.71
    3    5    5      3.15      0.57
    6    2    6      1.74     -2.40
    7    3    5      2.96     -1.81
    8    5    1      2.29      0.12
    5    3    6      2.19     -3.32
    2    6    4      3.81      1.55
    4    1    7      5.20      0.66
    9    4    2     -0.97     -0.90
    3    2    7     -0.55     -3.17
    3    7    0     -4.54      0.01
    3    4    6      1.19      4.85
   10    2    3     -4.71      6.97
    8    2    5      2.24     -7.25
   11    2    0     -0.74     -0.01
    1    7    2      0.56     -0.13
    7    5    3     -1.06     -4.82
   10    3    2     -4.10      7.66
    6    4    5      0.77      2.10
    3    7    1      0.44     -3.11
   11    1    2     -2.41      1.33
    7    1    6      2.48     -5.24
   11    2    1     -1.17      0.50
    0    3    7     -0.16      1.70
    6    6    2      0.91      3.67
    6    5    4      0.95     -0.16
    2    7    2      2.41     -3.31
    3    6    4      1.58     -1.21
    1    3    7      3.16      1.80
    5    6    3      0.15     -2.97
    4    5    5      0.89     -1.27
    8    5    2     -0.11      0.16
   10    0    4      0.95      0.10
    4    2    7     -2.58     -2.21
    4    7    0      2.82      0.01
    4    4    6      2.36      3.88
    2    3    7      0.99     -3.44
    7    6    0     -2.73      0.02
    5    1    7     -0.78     -2.32
   10    1    4     -4.25     -1.49
    3    7    2      0.52     -1.62
    4    7    1      1.93     -0.22
    9    3    4      8.30      1.73
   10    4    0     -0.32     -0.02
    8    4    4      2.31      3.22
    6    3    6      1.81     -3.59
   11    2    2     -0.53      1.29
    7    6    1     -0.17     -1.42
    9    1    5      0.10     -2.81
    7    2    6     -0.97     -2.06
    9    4    3      0.01      0.50
    4    6    4     -1.49     -0.56
    0    7    3      0.83     -1.61
   10    4    1      4.19      0.87
    3    3    7     -2.44      0.58
    1    7    3     -1.48      0.99
   10    3    3     -3.97      0.42
    9    5    0     -4.46     -0.00
    8    3    5      1.31     -0.06
   11    3    0      2.06     -0.00
    5    5    5     -6.15      0.62
   11    1    3      1.69      0.46
    1    5    6     -0.43     -0.48
    9    5    1      2.91      0.98
    0    0    8      5.60      6.58
    7    4    5      4.30      1.16
    6    6    3     -2.53     -3.67
    2    7    3      0.43      0.07
   11    3    1      1.37     -0.34
    8    0    6     -4.02      0.45
    5    2    7      2.46      1.93
    5    7    0      3.90     -0.00
    4    7    2      0.90      3.95
    5    4    6      2.74     -6.12
    8    5    3      0.51      0.92
   10    2    4      2.24     -3.67
    1    6    5      1.57      0.27
    7    6    2      1.98     -3.32
    7    5    4     -2.00      0.50
    6    0    7      0.47     -1.00
    2    5    6      0.13      0.99
    9    2    5      0.38      1.66
    8    1    6      0.61     -0.37
    5    7    1      2.49      0.25
    1    1    8      0.35      1.61
   10    4    2     -3.66     -0.44
   12    1    1     -2.19     -2.71
    2    0    8     -3.44     -6.12
    4    3    7     -0.71      0.42
    2    6    5      0.73     -0.35
    6    1    7     -3.52     -0.43
    5    6    4     -4.16     -1.15
    3    7    3      0.56     -0.39
   11    2    3      1.39     -0.78
    2    1    8      1.87     -0.12
    1    4    7      0.66     -0.05
    9    5    2     -1.91     -2.93
    3    5    6     -1.07      0.91
   11    3    2     -1.79      0.20
    7    3    6     -1.15     -1.67
    8    6    0     -5.77      0.03
   12    0    2      2.63     -2.00
   12    2    0     -2.22      0.01
    6    5    5      1.73      2.72
    3    6    5     -5.45     -0.22
    2    4    7      2.12      2.43
    0    2    8      0.53      1.87
    5    7    2      0.09      2.22
    8    6    1     -0.73      1.52
    8    2    6     -1.10     -1.12
   12    1    2     -0.84      7.07
    1    2    8      1.33     -0.98
   12    2    1      3.41      4.44
    3    1    8     -0.68     -4.51
   10    0    5      0.18     -4.22
    9    4    4      1.54      1.34
    6    2    7      3.05     -0.92
    6    7    0      0.77     -0.02
    6    4    6     -0.86     -3.79
    4    7    3      0.70      1.97
    0    8    0      1.11      0.02
    1    7    4     -0.62     -0.76
    5    3    7      2.13     -2.93
    7    6    3     -1.34     -0.17
   10    3    4      4.71      1.11
    2    2    8      0.43     -0.79
    1    8    0      0.04     -0.03
   10    1    5     -0.52     -1.13
    6    7    1     -3.41      0.47
    4    5    6      1.54     -0.92
    3    4    7      0.45     -3.12
   11    1    4      0.75     -0.74
    9    3    5      0.84     -2.84
   10    4    3      3.42      1.94
    8    4    5      3.74     -4.59
   11    4    0      1.65     -0.01
    4    0    8     -0.12      1.62
    6    6    4     -2.43      0.15
    2    7    4      0.47      2.66
    1    8    1     -1.58      0.42
    4    6    5     -2.63      1.28
   10    5    0      1.01     -0.01
    2    8    0     -1.64     -0.03
    8    6    2      0.68     -3.31
    8    5    4     -0.10      2.85
    7    1    7     -0.22      0.38
   11    4    1     -1.05      0.35
   12    2    2     -2.06      4.40
    9    5    3     -3.03      1.62
    4    1    8     -0.50      0.29
   11    3    3      3.10      0.21
    3    2    8     -0.25      0.99
   10    5    1     -0.02      0.49
    2    8    1     -1.08      0.75
   12    0    3     -6.23      0.16
    9    1    6     -1.52      1.53
    6    7    2     -1.39     -0.96
    3    7    4      2.52      2.52
   12    3    0      5.55      0.00
    5    7    3      0.91      2.62
    4    4    7     -0.83     -3.05
   10    2    5     -0.08      3.45
    3    8    0     -1.74      0.03
   12    1    3     -2.92     -1.61
    0    8    2      0.47     -0.23
   11    2    4      0.35     -0.64
    7    5    5      4.91      1.24
    8    3    6     -2.96      2.76
    1    8    2      1.53     -2.14
    1    3    8      1.46      1.00
    5    5    6      3.05     -0.02
   12    3    1      1.20      1.52
    3    8    1      2.10     -1.71
    6    3    7     -1.54      1.12
   11    4    2     -0.48     -0.32
    9    6    0      1.53     -0.01
    7    2    7     -2.83      2.04
    7    7    0     -1.11      0.00
    7    4    6     -1.71      2.04
    0    6    6     -0.36     -2.30
    5    6    5      4.57      0.19
   10    5    2     -0.37      1.01
    4    2    8     -0.87     -2.18
    2    8    2      0.52      0.14
    2    3    8     -0.18     -0.91
    1    6    6     -1.72      4.33
    9    6    1      2.32      0.99
    7    7    1     -3.06      1.27
    9    2    6     -2.12      1.25
    5    1    8      0.66      1.97
    0    5    7      2.97     -1.30
    4    7    4     -1.92     -3.00
    8    6    3     -2.17      0.46
    1    5    7     -1.91      1.08
   13    1    1     -0.98      0.27
    4    8    0      0.05      0.02
    7    6    4      3.41      2.26
   12    2    3      7.50     -5.09
    2    6    6      0.57      2.09
    8    0    7     -1.85      1.50
   12    3    2      0.98     -7.14
    5    4    7     -0.88      2.14
   10    4    4      1.82     -2.90
    3    8    2     -0.62      1.39
    4    8    1      2.94     -1.75
    3    3    8     -1.57     -2.20
    2    5    7     -0.64      0.36
    9    4    5     -1.69     -1.32
    6    7    3     -1.28     -3.55
    8    1    7      0.85      1.26
    0    7    5      3.25     -0.26
    1    7    5      2.28      1.46
   10    3    5     -2.42     -2.77
    9    6    2     -0.82      1.55
   13    2    0      1.04      0.00
    9    5    4      2.92      2.19
    7    7    2      0.37      0.87
    6    5    6      3.04     -1.76
    1    8    3      0.74     -0.41
    3    6    6      2.01     -1.98
   11    3    4     -2.36     -3.58
    5    2    8      0.94      1.31
   11    1    5     -0.47     -0.04
   12    0    4      1.32     -1.56
   13    1    2      1.75     -2.40
   11    4    3     -2.43      1.79
    6    0    8      0.59      0.53
   13    2    1     -0.61      0.28
    6    6    5      1.72     -0.40
    2    7    5     -2.87     -0.25
   10    0    6      0.17     -0.67
    3    5    7      1.83     -0.12
   10    5    3     -1.94      1.51
    5    7    4     -3.49     -2.24
    7    3    7     -1.65      1.81
    2    8    3     -0.62      0.19
    8    5    5      2.07     -1.44
   11    5    0      2.58      0.01
   12    1    4      4.14      2.95
    5    8    0      3.40     -0.03
    4    8    2     -0.22     -1.94
    4    3    8      1.29      3.23
    6    1    8      0.17      0.93
   12    4    0      0.75      0.01
   10    1    6     -2.04      0.52
    0    4    8      1.96      3.82
    9    3    6     -0.34      0.97
    8    2    7     -1.55      0.70
    8    7    0      0.10      0.01
   11    5    1      0.37     -1.35
    8    4    6     -0.25     -1.18
    5    8    1     -0.45      0.94
    1    4    8      0.91     -0.98
   12    4    1     -4.01     -3.13
    0    1    9      1.70     -1.73
    4    6    6     -0.55     -1.17
    6    4    7     -0.18      1.60
    3    7    5     -1.02     -1.36
   12    3    3      1.04      1.84
    1    1    9     -1.54     -2.46
    8    7    1      3.61      1.41
    3    8    3      0.50      0.82
    2    0    9     -1.68     -1.60
   11    2    5     -0.84     -1.69
   13    2    2     -0.10     -0.07
    2    4    8     -0.86     -2.50
    4    5    7      0.58     -2.28
   10    6    0      2.49     -0.03
    8    6    4      0.37      1.76
    2    1    9     -0.84      0.62
   12    2    4     -2.26      1.74
    9    6    3      1.94      2.47
    7    7    3     -1.57     -3.25
    6    2    8      0.34      1.55
   10    6    1      2.03     -2.89
   13    3    0     -2.11      0.01
   10    2    6      1.29      1.02
   11    5    2     -1.01      0.86
   13    1    3     -1.10     -1.83
    5    8    2      0.91      0.60
    5    3    8      0.03      0.55
    7    5    6     -3.18     -2.34
   12    4    2      0.01      0.30
    6    7    4     -0.07      1.07
    3    4    8     -1.64      1.50
   13    3    1     -1.16     -1.29
    4    7    5     -0.27      0.04
    6    8    0      0.41     -0.02
    8    7    2      2.23     -1.75
    0    8    4     -1.71     -2.27
    4    8    3      0.51      0.82
    1    2    9      0.82     -0.10
    7    6    5      0.63      1.35
    9    1    7     -0.42     -1.00
    3    1    9     -1.31      0.79
    1    8    4      0.88      1.04
    5    6    6      2.33      0.18
   10    4    5     -2.38     -0.81
    6    8    1     -1.48      1.66
    7    1    8     -1.98      0.07
   11    4    4     -1.84     -0.76
    8    3    7     -0.13      2.46
    2    2    9     -2.04     -1.70
    5    5    7     -1.41     -0.80
   10    6    2     -1.32     -0.06
   10    5    4      0.13      0.90
    2    8    4      1.49      2.56
   13    2    3     -1.72      1.50
    9    5    5     -1.85     -5.67
    7    4    7     -1.60      0.93
    4    0    9      0.96      2.05
   11    3    5     -0.52      0.52
   13    3    2      2.80      0.56
    4    4    8      0.24     -0.53
   12    0    5      1.23      2.59
   14    1    1     -0.03      1.89
    1    6    7      0.82      0.56
    1    9    0     -0.63     -0.00
    9    2    7      0.76     -0.83
    9    7    0     -1.60      0.00
    4    1    9      0.59      1.35
    9    4    6     -2.26     -0.74
    0    9    1     -2.18     -0.57
    3    2    9     -0.06      0.48
   12    3    4     -1.83     -0.97
    5    7    5     -0.58      2.48
    6    8    2     -0.27      3.46
    1    9    1     -0.73      1.55
   11    5    3      0.12      0.93
    3    8    4     -0.67     -0.65
   12    1    5     -1.49     -1.03
    6    3    8     -0.69      0.12
    5    8    3     -1.86     -0.73
    1    7    6      0.51     -0.56
   10    3    6     -1.43     -0.29
    2    6    7      0.70      0.43
    2    9    0     -1.18     -0.00
    7    2    8     -0.52      0.40
   12    4    3     -0.23     -0.88
    9    7    1      2.66     -0.30
   11    1    6      1.17     -0.85
   14    0    2      0.97     -3.86
    8    7    3      0.52      2.62
    0    3    9     -1.51     -1.72
   12    5    0     -3.52      0.01
   14    2    0     -0.15     -0.01
    9    6    4     -1.40      0.77
    2    9    1      2.16      0.29
    7    7    4     -0.30      2.22
    6    6    6     -0.07     -0.56
    2    7    6     -0.06      0.75
    1    3    9     -2.56     -0.40
    7    8    0     -3.72      0.02
    8    5    6     -3.70      1.80
   14    1    2      0.64     -6.75
    1    5    8      0.72      0.31
   13    1    4      1.12      0.74
   12    5    1     -0.21     -0.11
   14    2    1     -1.60     -3.33
   13    4    0     -0.73     -0.00
    6    5    7     -1.90      2.30
    3    6    7      1.09     -2.92
    3    9    0     -0.95      0.01
    8    0    8     -2.44     -1.21
    7    8    1      0.46      0.45
   10    6    3      0.16      1.38
    4    2    9      0.79      1.86
    5    4    8      1.22      1.28
    8    6    5      1.51     -1.25
    2    3    9      1.55      1.34
   11    6    0      0.52      0.01
    1    9    2      0.80     -0.53
    4    8    4     -0.30     -2.51
   12    2    5      0.76     -0.52
    2    5    8     -0.34     -0.79
   13    4    1      2.16     -1.09
    9    7    2     -1.04     -3.69
    5    1    9      1.74      1.55
   10    0    7      1.18     -1.74
    3    9    1      1.22     -1.23
    3    7    6     -1.17      1.49
    8    1    8     -0.74      0.29
   13    3    3     -0.94     -1.65
   11    6    1     -2.29      0.65
   11    2    6     -0.06      0.34
    2    9    2      0.94     -0.55
   10    1    7     -0.11      0.13
    6    7    5      2.14      1.60
    9    3    7      1.33     -1.80
    6    8    3      0.82      0.04
    8    4    7     -0.56     -0.07
    3    3    9     -0.36     -1.26
   12    5    2     -0.93     -0.47
   14    2    2      4.11     -3.05
   13    2    4     -0.84     -0.91
    1    8    5     -0.17     -0.35
    3    5    8     -1.06     -0.75
    4    6    7     -0.92     -0.94
    4    9    0      1.32     -0.00
    7    8    2      0.69     -2.03
    7    3    8      0.26      0.36
   14    0    3      6.97     -0.33
   11    4    5     -0.40     -0.95
   13    4    2     -1.45     -0.31
    3    9    2     -0.35     -0.71
    4    9    1     -1.61     -0.96
   14    3    0     -3.01     -0.00
   10    5    5     -2.01      1.19
    5    2    9     -0.13      0.15
    4    7    6      2.60     -0.11
    2    8    5      0.54     -0.83
    8    2    8     -2.61     -1.36
   11    6    2     -0.84      0.74
   14    1    3     -0.54      1.48
   11    5    4      1.16     -4.45
    5    8    4     -0.89     -0.29
    7    6    6     -1.05     -1.23
    6    0    9     -0.17      1.21
   12    4    4      1.23     -0.50
    0    9    3     -2.59      0.08
    6    4    8     -0.21      1.63
   14    3    1      0.88     -1.84
   10    2    7     -0.02     -2.54
   10    7    0     -0.41     -0.00
   10    4    6     -0.07      1.58
    8    7    4      2.32      0.98
    1    9    3     -1.22      1.00
    7    5    7      0.73      1.13
    4    3    9      0.10      0.73
    8    8    0     -0.25      0.01
    6    1    9     -0.36     -1.19
    9    7    3     -1.87      2.51
    4    5    8     -0.30      2.18
   12    3    5     -1.31      0.44
   10    7    1     -0.72     -1.41
    3    8    5     -1.65      0.55
    1    4    9      0.23     -0.21
    8    8    1     -0.01     -0.85
    2    9    3      3.04      0.27
    9    5    6      0.00      1.50
   11    3    6      2.53     -0.02
    5    6    7     -1.75      1.92
    5    9    0      1.89     -0.01
    4    9    2     -0.68      2.22
   10    6    4      1.35     -1.44
   12    0    6      1.86     -1.04
   12    5    3     -0.56      0.14
   14    2    3     -5.52      3.42
    9    6    5      0.60      0.01
    7    7    5      1.74     -1.56
    0    0   10     -2.11      0.52
    2    4    9     -2.95     -1.44
    5    9    1      0.16     -0.18
    7    8    3      0.46     -0.99
   14    3    2     -1.27      5.63
    5    7    6      1.82     -1.44
   13    3    4      2.04      2.56
   12    1    6     -0.34     -0.98
   13    1    5      1.45      0.84
    9    1    8     -0.26     -0.72
   13    4    3      0.90     -0.15
    3    9    3      1.25      0.25
    6    2    9     -0.77      0.31
   15    1    1      4.15     -1.54
   10    7    2     -1.95      2.84
    1    1   10     -0.99      0.55
    6    8    4     -1.72      1.99
   11    6    3     -2.89     -0.49
    4    8    5     -0.69      1.36
    2    0   10      1.49     -0.43
    5    3    9      0.90      2.95
   13    5    0     -1.79     -0.00
    8    8    2      1.28     -2.62
    8    3    8      0.16     -0.65
    9    4    7     -0.70      1.30
    5    5    8      0.72     -0.06
    0    7    7     -1.56     -1.25
    3    4    9     -0.28      1.04
   14    0    4     -0.38      2.11
   12    6    0      0.97      0.02
    1    7    7     -1.15      1.35
   13    5    1     -2.01      0.28
    2    1   10     -0.14     -0.37
   10    3    7      1.02     -1.00
    7    4    8     -0.57      0.63
    0    6    8      1.53     -0.87
    5    9    2     -0.72      2.25
    8    6    6     -1.67     -0.01
   11    1    7      0.53     -0.95
   14    1    4     -3.70     -2.61
    1    6    8     -1.70     -3.30
   15    2    0     -0.61     -0.00
    7    1    9     -1.86      0.38
   12    6    1     -1.03      1.89
   12    2    6      0.76     -1.12
   14    4    0     -2.24     -0.00
   13    2    5     -1.64     -0.10
    6    6    7      0.60      0.96
    6    9    0     -0.86     -0.00
    9    2    8      0.65     -0.77
    2    7    7      2.21      0.70
    4    9    3     -2.50     -0.44
    0    2   10     -0.71     -2.05
   15    1    2     -0.32     -0.12
    8    5    7     -1.35      0.78
    1    9    4      0.06     -0.01
   15    2    1      0.68      0.72
    1    2   10     -0.20      1.33
   14    4    1      4.57      1.41
    2    6    8     -1.76      0.61
    3    1   10      1.84     -0.44
    6    9    1     -0.43      2.11
    9    7    4      2.12      0.36
    6    7    6      0.42     -1.86
   14    3    3     -0.22     -0.95
    9    8    0      3.11     -0.02
    4    4    9      2.42      1.66
   11    5    5      0.54      1.19
    0    8    6     -3.78     -0.47
    5    8    5      2.67     -0.37
   13    5    2      0.17     -1.18
    2    9    4     -1.04     -0.17
   12    4    5      0.94      0.67
    2    2   10     -0.53      2.21
    1    8    6      1.72      1.99
    3    7    7      1.18     -1.03
    9    8    1      0.28     -1.02
   10    7    3     -1.38      0.26
    8    7    5      1.05     -1.41
    6    3    9     -0.19     -1.09
   11    2    7     -0.84      0.77
   12    6    2     -1.60      1.26
   11    7    0      2.47     -0.00
   12    5    4     -0.36      0.44
   11    4    6     -1.76      0.48
   14    2    4      2.90      1.33
    8    8    3     -2.66     -1.69
    7    2    9     -0.86      0.33
    4    0   10     -0.04      1.89
    6    5    8     -0.51      0.77
    3    6    8      0.99      2.35
    7    8    4      1.13      0.89
   10    5    6     -1.46     -1.90
    2    8    6      3.53      0.64
   15    2    2     -0.88     -0.49
   11    7    1      0.59     -1.18
   14    4    2      0.65     -2.58
   13    4    4      1.79     -0.30
    6    9    2      1.66     -2.62
    4    1   10      0.02      1.14
   10    0    8      1.90      1.13
    3    9    4      0.39      0.67
    0    5    9      0.33     -0.03
    5    9    3     -0.07      0.74
    3    2   10      0.96      0.08
   10    6    5     -3.58     -2.31
   11    6    4      0.93      0.54
    1    5    9     -1.33     -2.69
    0   10    0     -1.76     -0.01
   15    3    0      3.00     -0.01
   10    1    8      0.83     -1.05
    8    0    9     -0.87     -0.84
    1   10    0      0.93     -0.04
   12    3    6     -0.69     -0.58
   13    3    5      1.17      2.35
    4    7    7     -0.92     -2.36
   15    1    3      0.90      3.73
    9    8    2     -0.43      1.71
    5    4    9      1.02      0.40
    9    3    8     -2.94     -1.70
    3    8    6     -0.82     -1.80
    8    4    8     -1.20     -1.24
    7    6    7     -1.02      0.52
    7    9    0     -0.61      0.02
    2    5    9     -1.22      0.03
   15    3    1      2.98     -0.23
    1    3   10     -1.08      0.58
    4    6    8      1.11     -1.33
    1   10    1     -0.27      0.40
    8    1    9      0.09      0.50
   10    4    7      1.50     -2.50
    6    8    5      0.34     -0.05
    2   10    0      1.06      0.00
   11    7    2     -0.37      3.36
    7    9    1     -0.49      0.93
   13    5    3      1.23     -1.99
    9    6    6     -1.08      1.20
    7    7    6     -2.29     -0.23
    4    9    4     -0.38     -0.13
    4    2   10      1.84     -1.05
   14    0    5     -2.25     -1.26
    2    3   10      1.13     -0.44
    2   10    1      0.20     -0.21
   13    1    6     -0.95      1.01
   12    6    3      0.71     -0.30
    9    5    7      0.45     -1.50
    5    1   10     -0.00      1.42
    3    5    9      0.69      1.72
   11    3    7     -0.41     -0.39
   14    3    4      0.07     -0.96
    7    3    9     -1.39     -1.39
   10    2    8      1.27      1.67
   12    0    7     -0.09      0.59
   14    1    5      2.16      0.66
   15    2    3      0.43     -1.06
    4    8    6     -2.77     -0.27
    7    5    8     -0.66      0.86
    3   10    0     -0.75      0.04
    0   10    2     -2.18      2.27
   14    4    3      2.30      0.25
    6    9    3      0.78     -1.15
   15    3    2     -0.43     -0.78
    0    9    5     -0.58      2.29
    1   10    2      1.30     -1.01
    5    7    7     -1.55     -0.38
   10    7    4     -1.51      0.96
    8    2    9      0.30      1.01
    1    9    5      2.01     -0.30
   12    1    7      0.02     -0.31
   14    5    0      3.57     -0.01
    3    3   10      1.71     -0.63
   13    6    0     -0.97      0.00
    7    9    2      0.54     -1.57
   10    8    0     -0.05     -0.00
    3   10    1      0.62     -1.26
    8    8    4      0.57      0.02
    9    7    5     -1.20     -1.81
    5    6    8     -1.43      0.69
    6    4    9     -1.06      0.00
    9    8    3      0.76      2.90
    2   10    2      2.57     -3.02
   14    5    1      0.47      0.21
   13    6    1      1.54     -0.13
   10    8    1      1.98     -0.57
    2    9    5      0.24     -1.93
   13    2    6      0.69     -1.12
   16    1    1      1.16     -0.96
    5    9    4     -0.75     -1.69
    4    5    9      2.05      1.21
    5    2   10     -1.39     -0.23
   11    7    3      0.98     -0.12
   12    5    5     -0.74     -3.04
    6    0   10      0.73     -1.50
   14    2    5     -0.07      0.53
    4   10    0     -1.89      0.01
    7    8    5     -0.12      0.28
   15    1    4      1.10      0.57
    8    6    7     -0.61     -0.33
    8    9    0     -0.16      0.00
   11    5    6      1.71     -1.18
    5    8    6      1.71      0.02
   15    4    0      1.47      0.01
    4    3   10     -0.96      0.62
    3   10    2     -0.85      0.72
   12    2    7      0.08      1.69
   12    7    0      0.04      0.00
    4   10    1      1.96     -0.39
    6    1   10     -0.03     -1.00
   12    4    6      2.60      0.32
   16    0    2     -1.66      3.98
   13    4    5     -3.07     -1.86
    3    9    5     -2.49      0.15
    9    4    8      1.22     -0.64
   16    2    0      1.63      0.01
    0    4   10     -2.17      0.80
    8    9    1      2.75     -2.02
    8    7    6     -2.23      1.85
   11    6    5     -2.01     -0.58
   14    5    2     -0.42     -1.59
   15    4    1     -0.77     -0.63
    1    7    8      0.98     -0.09
   13    6    2     -0.02     -0.99
   13    5    4     -0.16      0.66
   10    8    2     -2.00      0.92
    9    1    9      2.64     -0.01
    1    4   10      1.25     -0.83
   12    7    1     -1.27      1.98
   10    3    8      0.25     -0.32
   16    1    2     -1.21      2.82
   15    3    3      1.45      3.34
    6    7    7     -0.43      3.37
    1   10    3     -0.01     -0.27
   16    2    1      2.25      1.78
   11    1    8      1.30      1.31
   12    6    4      0.31     -3.08
    7    9    3     -0.91     -1.86
    8    3    9     -1.18      0.36
    6    6    8     -0.15      1.84
    2    7    8     -0.27     -1.97
    1    8    7      0.15     -0.83
    2    4   10      1.04     -0.65
    5    5    9      0.68     -0.58
   10    6    6      1.54     -0.62
    8    5    8      0.64     -0.28
    2   10    3     -1.30      1.10
   15    2    4      0.53     -0.20
   11    4    7      0.70     -0.60
    5   10    0      1.22     -0.04
    4   10    2     -2.10      1.91
   14    4    4      1.03      0.24
    7    4    9     -0.82     -1.29
    6    9    4      0.35      0.18
    6    2   10     -0.32      1.13
    4    9    5     -1.23      1.81
   10    5    7      0.30      0.58
   13    3    6     -1.27      0.06
    2    8    7      0.09      0.49
    8    9    2     -1.61      0.00
    1    6    9     -1.17     -0.24
   15    4    2      0.04      0.70
    5    3   10     -0.60      0.41
    5   10    1     -0.92      1.79
   12    7    2      0.88     -1.71
    9    2    9      0.33     -1.26
    3    7    8     -2.71     -1.08
   14    3    5      0.62     -1.22
   16    2    2     -3.25      1.29
    3    4   10      0.69      0.72
    9    8    4      0.17     -0.14
    6    8    6      2.30     -0.51
   11    2    8     -0.98     -0.62
    3   10    3      0.06      1.19
    2    6    9     -0.69     -0.29
   16    0    3     -2.28      3.20
    0    1   11      0.94      0.32
   12    3    7     -0.51     -0.63
   10    7    5     -0.85      0.96
    1    1   11     -0.41      0.31
   14    0    6     -1.38      3.56
    3    8    7      0.15      0.34
    7    1   10     -0.53     -1.29
    2    0   11      1.47     -1.10
   14    5    3     -1.28      0.48
   11    7    4     -0.72     -1.88
   13    6    3     -0.01      1.13
   16    3    0      2.87      0.00
   10    8    3      1.64      2.47
    8    8    5      1.28     -0.81
   11    8    0      0.06      0.02
   16    1    3      1.25     -1.24
   14    1    6      0.55      0.47
   16    3    1     -1.15      1.12
    2    1   11     -0.80      0.01
    5   10    2      0.45      0.56
    9    6    7     -0.42      0.85
    9    9    0     -1.49     -0.01
    7    7    7      1.19      0.84
    6    5    9     -0.89     -0.83
   11    8    1     -0.70      1.55
    3    6    9      1.79      0.74
    5    9    5      1.03      0.95
    4    7    8      0.19      3.28
    4    4   10      1.19      0.39
    1    9    6     -0.50     -0.40
   13    1    7      0.33      2.64
    6   10    0      1.93     -0.01
    7    6    8      1.15      0.30
    0   10    4      0.20      0.38
    4   10    3      2.01      0.80
    9    9    1      0.98     -1.39
    9    7    6      0.02      0.57
   15    3    4     -1.53      0.54
   10    0    9      3.37      0.23
    1   10    4      2.45      1.43
   15    1    5     -1.81     -0.67
    8    9    3     -0.60      2.17
   10    4    8      0.70     -0.37
    6    3   10     -0.39      0.22
   14    6    0      0.14     -0.00
    4    8    7      0.49     -0.72
   15    4    3      0.41      1.37
    6   10    1     -1.62      0.20
    1    2   11      0.33     -0.57
    7    9    4     -0.95      1.73
   12    7    3      0.50     -0.44
    2    9    6      0.21      0.54
    7    2   10      0.32     -0.21
    3    1   11      0.59     -0.01
   10    1    9     -1.07     -0.94
   16    2    3      2.96      0.35
    9    3    9      1.61      0.79
   15    5    0      0.28      0.00
    2   10    4      0.95      0.15
    8    4    9     -0.46     -0.44
   14    6    1     -0.53     -1.31
   12    5    6     -1.42      1.16
   16    3    2      0.88     -2.64
   13    5    5      1.38      0.37
   14    2    6     -2.09      1.00
    9    5    8     -1.08     -1.40
    2    2   11     -0.34     -0.69
   11    8    2     -1.50      0.14
   11    3    8      3.57      2.53
    4    6    9      1.48      0.83
    7    8    6     -0.60      0.00
   15    5    1      2.43     -0.95
   12    0    8      0.96      0.75
    1    5   10     -0.50     -0.24
   12    6    5      2.66      0.26
    9    9    2     -0.07     -0.02
   13    2    7      1.94     -1.53
   13    7    0      0.54     -0.01
   13    4    6      1.55     -0.38
    4    0   11     -1.18      1.88
    3    9    6      1.14      1.50
    8    0   10     -0.12      0.18
    5    7    8      1.92      0.94
    5    4   10     -0.30     -0.68
   11    6    6     -2.23      0.09
   12    1    8      0.20     -0.13
   15    2    5      0.18     -2.45
    6   10    2      1.07      0.33
    3   10    4     -1.88     -0.90
    5   10    3      0.11     -2.02
   14    4    5      0.63      0.94
   13    7    1     -1.80      0.45
    2    5   10      2.10     -0.17
   16    0    4      1.80     -1.13
    6    9    5      2.62     -1.73
    4    1   11      0.71     -0.50
    3    2   11     -0.78      1.37
    8    1   10     -0.84      0.38
   10    2    9      2.74     -1.49
   11    5    7     -0.13      0.19
   17    1    1     -0.73     -0.23
    5    8    7     -0.37     -0.39
   14    6    2      0.64     -0.95
   14    5    4      0.09     -3.17
   13    6    4     -1.02      0.02
   10    8    4      1.38      0.55
    7    5    9     -1.08      1.26
   12    4    7      0.14      2.39
   16    1    4      3.05     -0.06
   16    4    0      3.05      0.01
    9    8    5     -0.16     -0.32
    7   10    0     -2.48      0.03
   15    5    2      0.90     -0.05
    8    7    7     -0.26     -1.38
    0    3   11      0.72     -1.15
    3    5   10      1.55     -0.25
    1    3   11      0.67     -2.07
    5    6    9     -0.30      0.58
    4    9    6      1.08     -1.61
    7    3   10      0.38      0.39
   16    4    1     -1.00     -2.84
    8    6    8     -0.09     -1.19
    7   10    1      0.29     -0.82
   11    7    5     -0.89     -0.32
   16    3    3     -0.40      0.69
   12    2    8      2.24      0.19
   17    2    0      0.29      0.01
    4   10    4     -0.94     -0.05
   13    7    2      0.08     -0.98
   11    8    3     -0.60     -1.56
    1   11    0      0.43     -0.01
   14    3    6      1.70     -0.47
   10    6    7      0.67     -1.88
   10    9    0      1.14     -0.01
    4    2   11      0.83      0.86
    8    9    4      1.81      0.79
    2    3   11     -0.07      0.44
    8    2   10      0.20     -2.19
   17    1    2     -0.18      0.80
    0   11    1     -1.27      3.39
   15    4    4     -1.45     -2.97
   12    7    4      0.67     -0.75
   17    2    1      0.31     -1.74
    9    9    3     -0.01      0.76
    5    1   11     -0.44      0.70
    1   11    1     -1.81      0.23
    6    7    8     -0.27     -1.14
   12    8    0      2.08      0.01
    6    4   10     -1.78     -0.08
   10    9    1     -0.97      0.58
   16    2    4     -2.39     -0.57
   13    3    7     -0.13      1.81
   10    7    6      0.51     -0.22
    2   11    0     -0.37     -0.01
    0    8    8      0.58      1.58
    6   10    3     -1.84     -1.11
    8    8    6     -2.28     -0.03
    1    8    8      2.22     -0.00
   15    3    5     -1.21     -1.67
    9    4    9      0.06     -0.04
   12    8    1     -1.45      0.32
    4    5   10     -0.96     -0.59
    1   10    5      0.01     -0.11
    0    7    9     -2.70     -0.79
   16    4    2     -0.54      2.96
    2   11    1      1.05     -3.13
    7   10    2      0.40     -2.35
    6    8    7     -1.13     -0.83
   14    6    3      0.20     -1.38
    3    3   11     -0.08      1.34
    1    7    9     -1.36      3.14
    7    9    5      1.35     -1.29
   11    4    8     -0.30     -1.43
   10    3    9      0.88     -0.75
    5    9    6     -1.11     -1.92
   10    5    8      1.32     -0.02
    2    8    8     -0.33     -2.63
   11    1    9      1.52     -1.31
   14    0    7      0.23     -0.51
   15    5    3      1.36      1.29
    2   10    5      0.12      0.59
    3   11    0     -2.05      0.01
    5   10    4      0.05     -0.32
   17    2    2     -0.54     -0.17
    6    6    9      0.25     -0.37
    2    7    9      2.12      0.25
    1   11    2      0.74     -0.20
   10    9    2     -0.02      1.43
    5    2   11      0.74     -1.25
   15    1    6      0.08     -1.29
    8    5    9      0.85      0.06
   14    1    7      0.65     -0.58
    3   11    1      1.01      0.30
    9    1   10      1.09     -1.70
    6    0   11     -1.15     -0.94
   13    7    3     -0.39     -0.60
    8   10    0     -0.74      0.00
    0    9    7      1.63      1.26
   12    8    2      1.40      0.36
   12    3    8      0.12     -0.81
   17    3    0     -0.84     -0.00
    2   11    2      0.07     -0.32
    1    9    7      0.68     -2.18
    3    8    8     -0.85     -0.38
   17    1    3     -0.21     -0.91
   13    5    6      1.21      1.10
    4    3   11     -0.38      0.60
    3   10    5     -0.91      0.29
    6    1   11     -1.12      0.76
   16    0    5      0.50      1.07
    8    3   10      0.68     -1.21
    9    7    7     -0.92     -0.87
    8   10    1      0.17     -0.22
    5    5   10     -0.87      0.90
    3    7    9      1.54     -1.08
   17    3    1     -1.56      0.35
   15    6    0      0.06     -0.00
   14    5    5     -1.56     -0.57
   11    2    9     -0.08      0.17
   12    6    6      1.64      1.07
   13    6    5     -1.11     -1.64
    4   11    0      1.03     -0.00
   16    3    4     -1.28     -1.55
   10    8    5     -1.82     -0.63
    1    4   11      0.72     -1.04
    9    6    8     -0.56     -0.05
    2    9    7     -2.03     -2.13
    7    7    8     -0.90      0.75
    7    4   10     -1.46      0.37
   11    8    4     -0.06     -0.23
   16    1    5     -2.42     -2.15
    0    6   10      1.10      0.00
   16    4    3     -1.82      1.76
    7   10    3     -1.30      0.57
   15    6    1      0.20     -0.73
    1    6   10      0.76     -0.59
   15    2    6     -0.35     -0.06
   13    1    8      1.54      0.19
    3   11    2     -0.43     -0.41
   12    5    7      0.51     -0.02
    4   11    1     -0.45      2.53
   14    2    7      0.00      0.65
   14    7    0     -0.89      0.00
   14    4    6     -2.22      0.58
    9    9    4      2.03     -0.24
    6    9    6     -1.27     -0.08
    9    2   10     -0.47      0.10
    2    4   11     -0.02     -0.19
   16    5    0     -2.59      0.01
    7    8    7      0.13      1.71
    4    8    8     -1.22      1.66
    0   11    3     -0.32     -0.41
    6   10    4     -1.91     -1.08
   14    7    1      0.95     -1.85
   17    2    3     -0.73      1.11
    4   10    5     -1.18     -0.33
    2    6   10      0.45      0.18
   13    4    7      2.18     -1.10
    8   10    2     -0.71     -0.49
    3    9    7      0.09      1.42
    1   11    3      0.44      0.15
    6    2   11     -1.21     -0.36
   16    5    1      0.12     -0.63
   10    9    3      1.22      0.15
   17    3    2     -1.52      1.92
    4    7    9     -0.69      0.74
    9    8    6      0.03      1.08
    8    9    5     -1.67      0.26
   11    6    7      0.43      0.26
   11    9    0      2.56      0.01
   14    6    4      1.42      1.68
   15    4    5      1.48     -0.23
    5    3   11     -0.00      0.03
    7    6    9     -0.08     -1.67
   12    7    5     -0.62      0.35
   12    8    3     -1.37     -1.15
   16    2    5     -1.53     -1.36
    3    4   11     -0.84      0.87
    2   11    3      0.08      0.16
   15    6    2     -0.94     -0.33
   15    5    4      1.35     -0.11
   10    4    9      2.48      0.87
   11    9    1     -0.43      0.65
   11    7    6      1.16     -1.38
    5   11    0      1.38     -0.00
    4   11    2     -0.65      0.57
   13    2    8      0.95      0.13
    6    5   10      0.35      0.63
    3    6   10      1.04     -0.76
    7    1   11     -0.56     -1.97
    5   11    1      0.75     -0.85
   14    7    2     -1.37     -0.18
   13    7    4      0.58     -1.07
    9    5    9      0.81     -1.38
    0    0   12     -0.39     -2.34
   10    0   10     -0.56     -2.70
   11    3    9      1.93     -0.49
   16    5    2     -1.40      2.29
    4    9    7      1.19      1.25
   13    8    0     -1.85     -0.01
   12    0    9     -0.09     -1.12
   11    5    8      3.06      2.04
    9   10    0      1.04     -0.02
   17    1    4     -2.02     -0.33
    5    8    8      1.57      1.34
    3   11    3     -0.01      0.68
    0   10    6      0.43     -1.53
    5   10    5      0.99      0.55
   12    4    8      0.65      2.23
   17    4    0      0.05     -0.00
   15    3    6     -0.33      0.28
   18    1    1     -0.13     -1.10
   10    1   10      1.11     -0.62
   13    8    1      0.55     -1.06
    1   10    6     -1.83     -0.40
   14    3    7      1.07     -0.46
    5    7    9      1.51      1.39
    4    4   11      0.21      0.90
    1    1   12      0.53     -0.20
    9    3   10      1.24     -1.96
    8    7    8      0.56      0.57
   11    9    2      0.59      0.84
    9   10    1      1.37     -0.31
   12    1    9      1.06      0.71
    8    4   10      1.41      0.25
    2    0   12      0.84      3.14
    7    9    6      0.68      0.83
   17    4    1      0.07      1.19
    8   10    3      1.37     -0.74
    4    6   10     -0.15     -1.60
   17    3    3     -0.87     -1.50
   16    4    4     -0.73      0.41
   10    7    7     -1.06      2.08
    7   10    4      0.95      1.35
    2   10    6     -0.95      1.69
    6    3   11     -0.26     -1.22
    5   11    2     -0.36     -0.04
    2    1   12      0.06     -0.33
    8    8    7      0.89      1.44
    7    2   11     -0.58      0.26
   18    0    2      0.84     -1.53
   10    6    8     -0.93      1.03
   18    2    0     -1.24     -0.01
   15    6    3      0.16     -0.76
    6   11    0     -1.05      0.00
    4   11    3      0.20      0.90
   16    3    5      0.91     -0.35
   17    2    4      1.50     -0.93
   11    8    5     -0.25      0.97
   18    1    2      0.37     -0.80
    1   11    4      0.35      0.16
    0    5   11      0.30     -0.94
    5    9    7     -0.15     -1.60
   13    8    2      0.50     -0.59
    0    2   12      0.20      0.59
   10    9    4     -1.40     -1.64
   18    2    1     -0.75     -1.24
   13    3    8     -0.39      0.03
    8    6    9     -0.75      0.91
   10    2   10      0.11     -0.03
    6   11    1     -0.77     -0.91
    9   10    2     -0.62      1.02
    1    5   11     -0.08      0.34
    1    2   12      0.79     -0.47
    7    5   10      0.36     -0.54
    3   10    6      1.20      0.45
   14    7    3      0.39      0.87
   12    2    9     -0.09     -0.23
    9    9    5     -0.52      0.18
   17    4    2     -1.02      0.13
   16    0    6      0.90     -4.74
    3    1   12     -0.56      1.70
    8    0   11      1.09     -1.82
   16    5    3      1.75     -0.01
   12    8    4     -0.93     -1.81
   15    1    7      0.13     -2.71
    5    4   11     -0.11      0.50
    2   11    4      1.85      0.41
    6    8    8      1.12     -0.07
   14    5    6      1.53     -0.87
    6   10    5      1.07      0.32
   13    6    6     -0.13     -0.96
   10    8    6      0.63      0.84
    2    5   11     -0.09     -0.58
    2    2   12      0.31      0.08
   16    1    6      0.80      0.15
    5    6   10     -1.08      1.03
    6    7    9      0.33     -0.39
    8    1   11      1.09     -1.14
   14    0    8      0.17     -0.46
   11    9    3      0.46      0.57
   14    6    5      0.31      1.22
   13    5    7      0.68      1.64
    4    0   12     -0.64     -2.04
    1    8    9     -0.52     -0.42
   18    2    2      0.48     -0.17
   15    5    5     -1.02      1.63
   14    1    8     -0.75      0.20
    6   11    2      0.59     -0.08
    3   11    4      0.11      0.68
   12    6    7      0.75      2.62
   12    9    0     -0.76      0.01
    5   11    3     -0.02      0.88
   11    4    9     -0.75     -0.50
    4   10    6      0.76     -1.09
   18    0    3      1.67     -1.06
    4    1   12      0.09      0.00
    3    5   11      0.13     -0.18
   16    6    0     -0.38      0.00
    3    2   12     -0.72      0.56
   10    5    9     -2.14     -1.78
    7    3   11      0.14     -1.03
    2    8    9     -0.37      0.78
    8    9    6      0.71      1.13
    1    9    8      0.40     -0.42
   15    2    7      0.08      1.00
   15    7    0     -0.50      0.01
   15    4    6      0.39     -0.72
   12    9    1     -0.60      0.14
   18    3    0     -2.44      0.01
   12    7    6     -1.53      0.23
   14    4    7     -0.39      0.10
   13    7    5      2.29      0.40
   10   10    0      0.25      0.00
    6    9    7     -0.02      0.22
    9    7    8      0.44     -0.58
   18    1    3     -0.32      1.92
    8   10    4      2.19      1.39
    9    4   10      0.58     -0.68
   16    6    1      0.99      1.11
   13    8    3     -0.06      0.47
   16    2    6      1.30     -1.02
    7   11    0      0.05      0.01
   17    3    4      1.11     -1.58
    8    2   11      0.98     -1.14
    9   10    3      1.50      1.73
   17    1    5      0.62     -0.14
   15    7    1      0.91      1.04
    1    7   10      0.95      0.22
   18    3    1      0.60      0.18
   10    3   10     -1.22      0.51
    2    9    8     -0.16     -0.56
   17    4    3     -0.75     -2.24
   10   10    1      0.29     -0.27
    1    3   12     -0.12      0.38
    6    4   11      0.45     -0.30
   12    3    9     -1.34     -0.18
    7   11    1     -0.26      0.02
    9    8    7     -0.12     -1.14
   11    1   10     -1.46      0.78
   15    6    4      0.24     -2.19
    3    8    9      1.16      0.15
   12    5    8     -1.26     -2.43
   17    5    0      2.40      0.01
    4   11    4     -2.37     -1.41
   14    2    8     -0.79      0.06
    6    6   10     -0.94      2.22
    2    7   10      2.03     -0.63
    4    5   11      0.61      1.30
    7    8    8     -2.02     -0.71
    4    2   12     -0.39      0.25
   16    4    5     -1.26      0.72
    8    5   10     -1.54     -0.36
    7   10    5      0.60     -1.32
    2    3   12      0.01      1.17
   11    7    7      1.06     -0.15
   12    9    2      0.23      0.13
   17    5    1     -1.23     -0.21
   14    7    4     -1.29     -0.42
    5   10    6     -0.28     -1.82
    9    6    9     -0.25      1.32
    7    7    9     -1.44     -1.72
   13    4    8     -0.50     -0.08
    5    1   12     -0.40     -2.23
    3    9    8     -1.21     -0.56
   14    8    0     -1.38     -0.01
   16    6    2      0.09      0.08
   16    5    4      0.22      0.13
   18    2    3     -0.85     -0.48
   11    6    8      0.94     -0.86
    6   11    3     -1.23     -1.93
   15    7    2     -0.87     -0.64
   13    1    9     -1.72      0.14
    0   11    5      0.60      0.47
    0   12    0      1.17     -0.02
   18    3    2     -1.65      0.88
   17    2    5      1.70      1.34
   10   10    2      0.53     -0.47
    1   11    5     -0.15     -0.33
   14    8    1      0.66      1.19
    1   12    0     -0.48     -0.02
    3    7   10      0.69     -0.99
   10    9    5      1.08      0.91
    7   11    2     -0.42      1.28
   11    9    4     -0.93      0.39
    4    8    9      1.70      0.95
    3    3   12      0.95      0.16
   11    2   10      0.46     -1.02
    9    1   11     -0.82      1.17
   15    3    7      0.29     -1.21
    1   12    1      0.37     -0.13
   12    8    5      0.24     -0.43
    1   10    7     -0.27      0.26
    2   11    5     -0.41     -0.33
    2   12    0     -1.17      0.03
    5   11    4     -0.68     -1.26
   17    5    2     -1.62      1.39
   16    3    6      1.02     -0.13
    7    9    7      0.24      1.02
   18    0    4     -2.53      0.65
    8    3   11     -0.09      0.74
   11    8    6     -0.22     -0.40
    5    5   11     -0.13      1.04
    4    9    8      1.19      0.66
    5    2   12      0.73     -1.13
    2   12    1     -0.17      0.27
    2   10    7      0.07      0.32
    6    0   12     -1.25     -1.04
    9    9    6     -0.65      0.75
   13    2    9      0.00      0.13
    8   11    0     -0.67     -0.01
    7    4   11      0.36     -0.60
   18    1    4     -1.03     -0.66
   14    8    2     -0.91     -0.56
   13    8    4      0.41      0.87
   14    3    8      0.67      0.63
    4    7   10     -1.19      0.23
   18    4    0      0.93     -0.01
    1    6   11      0.51     -1.32
    9   10    4      0.14     -1.18
    3   11    5     -0.61      0.44
    3   12    0      0.68      0.02
   12    9    3     -1.21     -1.34
    6   10    6      0.19     -0.50
    0   12    2      0.53     -0.16
    7    6   10      0.35     -0.25
    4    3   12      0.22     -1.20
    6    1   12      0.14      0.35
    8   11    1      1.26      0.11
   17    4    4      1.10      1.50
    9    2   11     -0.30     -0.04
   16    6    3      0.78      1.47
    1   12    2      1.44      0.09
    0    4   12     -1.18     -1.49
   18    4    1     -0.60      3.46
   19    1    1     -0.35     -0.63
   10    7    8     -0.13      0.24
   10    4   10      0.02     -1.91
   11    5    9      1.24      0.38
   15    7    3      1.22      0.28
    5    8    9     -0.05      0.64
   14    6    6     -1.59      0.08
    3   12    1      0.10      0.11
   18    3    3      0.40     -0.54
    1    4   12     -0.98      1.36
    3   10    7     -0.26     -1.25
    8    8    8     -0.65      1.11
    2    6   11     -0.64     -0.09
   12    4    9     -0.32     -1.40
   16    0    7      0.30      0.41
   10   10    3     -1.02      1.01
    8   10    5      0.72     -1.35
   11   10    0      1.28      0.02
    7   11    3      0.01     -1.28
   17    3    5     -0.29      0.05
   15    5    6     -1.49      2.79
    2   12    2     -0.32     -0.29
    8    7    9     -0.98     -0.12
   14    5    7      1.61     -2.03
   13    6    7     -0.40     -0.75
   13    9    0     -0.41     -0.01
   10    8    7     -1.12     -1.90
    9    5   10     -0.38     -0.80
   16    1    7      0.14      0.78
    2    4   12      1.72      1.39
   11    3   10     -2.27      0.27
    5    9    8      0.47      0.64
   11   10    1     -0.57     -0.26
   18    2    4      2.51     -0.96
   15    6    5      0.85      0.31
   12    0   10     -1.07      2.35
    6   11    4      1.12      1.17
   19    2    0      0.07     -0.00
   13    9    1     -0.08     -0.23
   17    5    3      0.83      0.96
    4   11    5     -1.14      0.50
    4   12    0      0.20     -0.02
   13    7    6      0.45      1.43
    8   11    2     -0.05     -2.07
    6    5   11     -1.44     -0.06
    3    6   11     -1.19      1.74
    6    2   12     -0.08     -2.27
   10    6    9      1.83     -1.66
    5    7   10     -1.24      0.14
   15    1    8     -0.14      0.32
   18    4    2      0.30      0.16
   19    1    2      0.96      0.46
   12    1   10     -0.72      0.63
   17    1    6      0.93     -0.20
   19    2    1      1.45      0.08
    3   12    2     -1.07      0.06
    5    3   12     -0.72     -1.42
    4   12    1      0.45     -0.04
   14    7    5     -1.98     -1.52
    4   10    7      0.26     -1.03
   10    0   11     -0.76      2.87
   14    8    3     -0.10      0.97
   16    5    5      1.31     -0.16
    3    4   12      1.44     -0.22
   13    3    9     -1.21     -0.85
    8    9    7      0.57     -0.40
   15    4    7     -1.26      0.35
   13    5    8     -1.42     -0.41
   12    7    7      0.32     -1.28
   10    1   11     -0.71      0.92
    1   12    3     -0.57     -0.04
   11   10    2     -0.19      0.64
   16    2    7      1.43     -1.29
   16    7    0      2.47      0.00
   16    4    6      1.19     -0.34
    7   10    6     -0.37      0.66
    9    3   11     -0.59      0.35
    6    8    9      0.67     -0.80
   11    9    5     -1.48      0.18
    8    4   11     -0.86     -1.13
    7    1   12      0.46      0.00
   12    6    8      3.09      0.27
   17    6    0     -0.29     -0.01
   13    9    2     -0.07     -0.47
    4    6   11      0.43      1.97
   16    7    1     -0.31      0.51
    8    6   10      0.42     -1.86
    9   11    0      0.00     -0.02
   14    0    9     -0.08      0.65
    2   12    3     -0.11      0.26
   15    2    8     -0.08     -0.12
   19    2    2     -0.01      0.75
   12    9    4     -0.11      1.53
    5   11    5     -1.08     -0.03
   17    6    1     -1.17     -0.06
    5   12    0      0.34     -0.04
    4   12    2      0.94     -0.29
   12    2   10     -2.11      0.13
   17    2    6      0.87      0.87
   14    4    8      0.34     -0.78
   18    0    5      0.05     -1.68
    6    9    8     -0.53     -0.36
    1   11    6     -0.14      0.00
   16    6    4     -0.38      0.14
   10    9    6      0.37     -0.78
    4    4   12     -1.14     -0.34
    9   11    1     -0.09      0.13
   14    1    9     -0.43     -0.50
   15    7    4      1.15      0.64
    5   12    1     -1.13      0.60
   18    3    4      2.37      0.64
    5   10    7     -0.15      0.60
    8   11    3      1.79      1.10
   15    8    0      2.31      0.01
   10   10    4      0.65     -0.39
   18    1    5      1.79      1.99
   19    3    0     -0.33     -0.00
    0    9    9      0.62     -1.12
    6    7   10     -0.19      0.70
   12    8    6      0.77     -1.98
   13    8    5     -0.63     -0.10
    7   11    4     -0.62      0.55
    9    8    8      1.40      1.07
   18    4    3      2.12     -1.32
   19    1    3      1.15      0.71
   10    2   11     -2.17      1.68
    2   11    6     -0.49      1.02
    1    9    9     -1.91     -0.36
    9   10    5     -1.22      0.52
    0    8   10      3.72      1.47
    6    3   12      0.16      0.72
    3   12    3      0.58      1.02
    7    5   11     -0.27     -0.48
    7    2   12     -0.67      1.31
   17    4    5      1.59      0.46
   15    8    1     -0.18     -0.37
    0    1   13     -1.69      1.31
    9    7    9      0.95      0.94
    1    8   10      2.06     -2.38
   19    3    1     -0.20     -0.49
   18    5    0      2.48     -0.00
   16    7    2      0.27      1.64
    1    1   13     -0.15     -0.19
    2    0   13     -0.51      1.28
   11    7    8      1.00      0.81
   17    6    2      0.42      0.81
   17    5    4     -0.99      0.93
   11    4   10     -0.17      0.51
    2    9    9     -0.44      0.81
    5    6   11      1.67     -0.67
   18    5    1      0.23     -1.15
   11   10    3     -0.19     -0.72
   10    5   10      0.93     -0.19
    2    8   10     -1.16     -1.24
    9   11    2      0.75     -1.20
    1    5   12      0.71      0.09
    3   11    6     -0.07      0.70
   12    5    9      0.96      1.30
   13    9    3     -0.43     -0.08
   16    3    7      0.19      1.72
    2    1   13      1.62     -1.69
    5   12    2      0.20      0.76
   14    2    9     -0.87      0.26
   11    8    7     -0.38      2.15
   14    8    4      1.00      0.67
    8    0   12      1.98      0.97
    7    8    9     -0.59     -0.10
   18    2    5      1.33     -0.58
    5    4   12     -0.95     -0.07
   12   10    0      0.74     -0.01
    6   11    5      2.02     -0.13
    6   12    0     -0.49      0.03
   19    2    3      1.46     -0.42
    0   12    4      0.85      1.02
    4   12    3      0.09      0.83
    0   10    8      0.64     -0.99
    9    9    7     -0.68     -0.63
    2    5   12      0.58      0.69
   15    8    2      0.15      0.28
   13    4    9      0.17      0.89
   15    3    8      0.11     -0.57
    8   10    6     -0.40      1.38
    3    9    9      1.75      1.92
   19    3    2      0.59     -2.23
    1   12    4      1.80      0.90
    1   10    8     -1.21      0.36
    8    1   12     -0.67     -0.31
   12    3   10      1.03     -0.37
   17    3    6      0.99     -0.29
   12   10    1      0.95      0.15
   11    6    9     -0.79     -2.08
    3    8   10     -0.94      1.20
    6   12    1      0.72     -0.43
    6   10    7     -0.17      0.82
    1    2   13     -0.21     -0.25
    7    9    8     -0.39      0.38
    3    1   13     -1.53     -0.50
    9    4   11     -0.78     -0.07
   18    5    2      1.67     -1.65
    0    7   11     -0.79     -0.26
   15    6    6      0.82      0.05
    2   12    4      0.36     -0.33
    2   10    8     -0.01      0.32
   14    6    7     -0.26      0.98
   14    9    0      1.69     -0.00
    1    7   11     -0.54      1.16
    4   11    6      0.33     -1.32
   10    3   11      0.44     -0.35
    9    6   10     -0.88     -0.74
    7    7   10     -0.80      0.91
    2    2   13     -0.65      0.02
    3    5   12     -0.76      0.50
   16    7    3     -0.36     -0.53
    7    3   12     -0.45      0.44
   11    1   11      1.28      0.38
   15    5    7     -0.85     -0.27
   13    1   10     -0.09      0.37
   14    9    1      0.54     -0.67
   17    6    3      0.74      0.10
   14    7    6      0.00     -0.46
   10   11    0     -0.25      0.01
    8   11    4     -0.11     -0.27
    4    0   13     -1.21     -2.32
    6    6   11     -0.68     -1.53
    2    7   11      0.67     -0.94
   16    5    6      1.48      0.32
    4    9    9      1.28     -1.02
   12   10    2      0.09      0.59
   18    4    4     -1.02     -0.01
    8    5   11      0.68     -0.70
   19    1    4      1.30     -0.20
    9   11    3     -0.65     -0.59
    8    2   12     -0.41      2.34
    6   12    2     -1.25      0.96
    4    8   10      0.78      0.16
    3   12    4     -1.68     -1.02
   12    9    5     -0.36     -0.03
   19    4    0     -0.40      0.01
    5   12    3     -0.30     -1.27
    3   10    8      1.23     -0.68
   10   11    1     -0.17     -0.66
   13    7    7     -0.80      1.46
   16    0    8      0.55      1.71
    4    1   13     -1.19      1.64
   16    6    5     -0.60      0.60
    6    4   12     -0.10     -1.19
    3    2   13      0.79     -0.16
   14    3    9      1.65      0.22
   11    9    6      0.73     -1.26
   17    1    7      0.07      2.06
   20    1    0      2.08      0.00
   15    7    5     -1.32      0.76
   14    5    8     -0.03      0.99
   19    4    1      0.74     -1.33
   13    6    8     -0.88     -1.58
   10    8    8      0.65     -1.25
   18    3    5     -0.81     -0.34
   15    8    3      0.35     -0.01
   10   10    5     -1.42      1.35
   16    1    8      0.84      0.12
   19    3    3      0.67      0.46
    4    5   12      0.36      0.11
   11   10    4     -0.59      0.32
    3    7   11     -1.39      0.30
    7   11    5      2.29     -1.07
    7   12    0     -1.81      0.03
   10    7    9      0.92     -0.41
   20    1    1     -0.02      0.99
   14    9    2     -0.54     -0.63
   11    2   11      0.95     -0.30
    0    3   13      0.88     -1.48
    5   11    6     -0.28     -1.55
   13    9    4      0.44     -0.66
    8    8    9     -0.94     -0.16
   13    2   10      0.01      1.05
   18    0    6      0.96      2.22
    1    3   13     -0.93      0.86
   18    5    3      0.19     -0.33
    7   12    1      0.60     -0.03
   16    4    7     -0.59     -0.42
    7   10    7      0.39     -0.20
   19    2    4     -1.42     -0.74
   17    5    5     -0.79     -0.85
    4   12    4     -0.86      0.40
   10   11    2     -0.11      1.96
    4   10    8     -0.85     -0.86
   18    1    6      0.73      0.21
    5    9    9      0.05     -1.17
   13    8    6     -2.81      0.56
    4    2   13     -0.69     -1.21
    8    9    8      0.96      0.32
    2    3   13     -0.41      0.86
   20    0    2      0.03      1.44
   11    5   10     -1.21      0.49
    9   10    6      0.83      0.28
    5    8   10      0.30     -0.30
    0   11    7     -1.64      1.21
   15    4    8      0.48      0.57
   19    4    2      0.54      0.41
    9    1   12     -0.22      0.61
   12    7    8     -0.93     -1.59
   17    2    7      0.16      0.66
   17    7    0     -0.28     -0.01
   20    2    0      0.55      0.00
   12    4   10     -1.87      1.46
   17    4    6      0.90      0.85
    5    1   13      0.36     -0.79
    1   11    7     -0.62      1.81
   14    8    5      1.14      0.36
   10    9    7     -1.18      1.02
   16    2    8      0.82      0.56
    4    7   11     -0.79      2.06
   15    1    9      1.16      0.28
   12   10    3      0.57      0.05
    8    7   10      0.13     -0.99
   20    1    2     -0.67      1.13
    6   12    3      0.15     -0.19
    7    6   11     -1.78      0.26
   17    7    1     -0.69     -0.57
   20    2    1      0.60     -1.61
    8    3   12     -0.65     -0.23
    1   12    5      0.05     -0.31
   18    6    0     -0.15      0.01
    5    5   12      0.39     -0.66
   12    8    7      0.65      1.77
   16    7    4      0.53     -0.23
    7   12    2     -0.45     -1.72
    2   11    7      0.88     -0.93
   10    4   11     -0.87      2.00
   16    8    0      0.94      0.02
    3    3   13     -0.23     -0.68
   17    6    4     -0.28     -0.07
   13    5    9     -1.41     -0.80
    7    4   12      0.24     -0.00
    0    6   12     -1.13     -0.99
   18    6    1     -0.86     -1.09
   10    6   10     -0.66      0.72
   18    2    6      0.66      0.66
   13   10    0     -2.05     -0.02
    9   11    4      1.24      0.01
    2   12    5     -0.94     -0.10
    1    6   12     -0.52      0.90
    6   11    6     -0.16     -0.49
   16    8    1     -0.39     -1.22
   14    9    3      1.50      1.34
   12    6    9     -1.77      0.04
    5   12    4      0.28      0.11
    5   10    8     -0.24      0.64
    9    5   11     -0.12     -0.09
    9    2   12      0.69     -0.38
   11    3   11     -1.31      1.04
    5    2   13     -0.81      0.91
   13    3   10     -0.59      0.62
    1   13    0     -0.51     -0.01
   13   10    1      0.60     -0.32
   12    0   11      0.53     -2.31
   15    2    9     -0.53     -0.22
    3   11    7      0.80     -1.29
    6    0   13      0.59      0.66
   10   11    3     -1.14      0.51
   14    4    9     -1.63     -0.12
   17    7    2      0.07      1.29
    2    6   12      1.25      1.56
   20    2    2      1.40     -0.46
    8   11    5     -0.94     -0.35
    0   13    1     -0.75      1.20
   15    8    4     -1.84     -1.17
    8   12    0      0.69     -0.02
    6    9    9     -1.53      1.01
   11   11    0     -0.11      0.02
   19    3    4      0.37      0.43
    5    7   11      0.88      0.87
   18    4    5      1.04     -1.11
    1   13    1      0.94     -1.07
   19    1    5      0.29     -0.42
    6    8   10     -1.96     -0.32
   20    0    3     -1.59      1.16
   12    1   11      0.59     -0.74
    3   12    5     -0.59      0.82
    2   13    0      0.85      0.01
   19    4    3      0.14      2.01
    4    3   13      0.20     -0.41
    6    1   13      0.90     -0.66
    8   12    1     -0.93     -0.28
    8   10    7      0.75     -0.80
   11   11    1      0.00     -0.39
   18    6    2     -0.79      0.70
   18    5    4      0.04     -0.52
   17    3    7      0.70      1.61
   20    3    0      2.56     -0.00
    9    8    9      0.34     -0.44
   14    0   10      1.62     -0.43
   19    5    0     -1.40     -0.01
   20    1    3      1.34     -1.36
   16    8    2     -0.51      0.75
    2   13    1      1.03     -0.84
   16    3    8     -1.05      0.02
    1    4   13      0.71      0.16
    6    5   12     -0.30     -0.63
   11    8    8     -0.16     -0.74
    3    6   12      1.13     -0.67
   11   10    5      1.23      0.06
   20    3    1      0.30     -1.70
    7   12    3     -0.06     -0.05
   13   10    2     -0.61     -0.48
   15    6    7      1.93     -1.37
   15    9    0      0.02      0.01
   19    5    1     -0.33      0.90
   14    1   10      0.32     -0.65
   11    7    9     -0.10     -0.86
   12    9    6     -1.09      1.19
   13    9    5      0.84     -0.24
    4   11    7     -1.07     -0.30
    9    9    8      0.03      0.33
    3   13    0      0.43      0.02
   10    0   12     -1.44     -0.12
    2    4   13     -0.46      0.39
   16    6    6     -0.16      1.47
    8    6   11      0.02      0.77
   12   10    4     -0.93      0.48
    1   13    2      0.04     -0.68
   15    9    1      0.44      1.03
    1    9   10      1.39      0.25
   15    7    6     -0.44      0.64
    6   12    4     -0.52     -0.45
   19    2    5     -0.58      0.42
    6   10    8      0.15      1.45
   18    3    6     -0.96      1.82
    4   12    5      0.23      1.01
   14    7    7      0.42     -0.44
   12    2   11      1.96     -0.44
    3   13    1      0.11     -0.16
   10   10    6      0.01     -0.14
    8   12    2      0.53     -0.85
    9    7   10      1.27     -1.36
   11   11    2      0.40      0.80
   10    1   12      1.03      0.12
    6    2   13      0.39      1.28
   16    5    7     -0.38      0.69
    7   11    6      0.35      0.61
    9    3   12     -0.23      1.95
    8    4   12      0.10      1.68
   14    6    8     -1.77     -0.36
    2   13    2     -0.89      0.18
    5    3   13     -0.72     -0.22
   17    7    3     -0.47      0.39
   20    2    3      1.00      1.63
    2    9   10      0.48     -0.47
   15    3    9     -0.45     -0.12
    6    7   11      0.94     -1.40
    4    6   12     -0.95     -1.00
    1   10    9      0.02     -0.36
    3    4   13     -0.46     -0.70
   20    3    2     -0.27      0.62
   15    5    8     -0.53     -0.59
   19    5    2      0.22      0.25
   11    9    7     -0.74     -0.93
   14    9    4      0.69     -1.11
   12    5   10     -0.07      0.40
   17    5    6      0.44     -3.02
    7    9    9      0.27      0.69
   14    2   10      1.51      1.05
    4   13    0     -0.30     -0.01
    1    8   11      0.16     -0.52
   18    6    3     -0.30     -0.50
    7    8   10     -0.60      0.76
   16    7    5      1.51      0.29
   15    9    2     -1.45      0.11
    2   10    9      0.03      0.65
    7    1   13      0.56      1.57
   16    8    3      1.77     -0.18
    5   11    7      0.08      0.40
   17    6    5     -0.08     -0.82
   11    4   11      1.25     -0.09
   10   11    4      0.42      0.30
   13    7    8      0.13     -0.18
    3   13    2      0.26      0.76
   13    4   10      0.80     -0.47
   18    0    7      1.26      1.89
    4   13    1     -0.38      0.23
    3    9   10     -0.88     -0.68
   14    8    6     -0.72      1.90
   10    5   11      0.41      0.55
    2    8   11     -0.79      0.31
   10    2   12      0.54     -0.55
   13   10    3     -0.37     -0.41
    9   11    5     -0.24      0.76
    9   12    0      0.68     -0.02
   20    0    4      2.53      0.16
   11    6   10      0.52     -0.02
   17    1    8      0.99      1.21
    0   12    6     -0.78      0.29
   19    4    4     -0.25     -1.54
    5   12    5     -0.01     -0.34
    7    5   12     -0.85      0.15
    0   13    3     -0.63      1.54
   18    1    7      0.06     -0.41
    1   12    6     -0.03      2.05
   13    8    7     -0.61     -0.86
    1   13    3      1.67      0.13
    4    4   13     -0.71     -0.55
    9   12    1     -0.26     -0.72
    9   10    7      0.82      0.38
   20    1    4     -0.24      0.15
    3   10    9     -0.18      0.52
   17    4    7      1.39      0.87
   16    0    9     -0.37     -0.16
   20    4    0     -3.28     -0.00
   15    8    5     -0.26     -0.71
    8   12    3     -0.64     -0.33
   11   11    3      0.76      1.30
   19    3    5      1.07      0.23
    5    6   12     -0.31      0.37
   12    3   11      0.18      0.24
    7   12    4      0.50     -0.30
   16    4    8      0.14     -0.00
    7   10    8      0.89     -0.63
    2   12    6      0.30     -0.02
    3    8   11     -0.54      0.60
    6    3   13     -0.19      0.59
   14    5    9     -0.59     -0.09
    2   13    3      0.34     -0.40
   13    6    9      0.39      0.96
   10    8    9      0.83     -0.36
    7    2   13      0.78     -0.38
   20    4    1     -0.92     -3.06
    5   13    0      0.06     -0.02
    4   13    2     -0.16      0.49
   16    1    9      0.18      0.24
    4    9   10     -0.19      0.19
   18    5    5      0.46      0.65
   12   11    0      1.28     -0.00
   20    3    3      0.52      0.57
   14   10    0     -0.13      0.01
   19    5    3     -1.41     -1.69
   21    1    0      0.56      0.01
   17    2    8      0.34      0.28
    9    6   11      0.68     -0.28
    7    7   11     -0.33     -0.93
    0    0   14     -2.95      0.86
    8   11    6      0.04      0.21
    5   13    1     -0.23      0.59
    1   11    8      0.44     -0.39
    0    5   13      0.33     -0.34
   14    3   10     -0.85      0.17
   12   11    1      0.30     -0.01
   10    9    8     -0.41      1.50
   18    2    7     -0.55      2.39
   18    7    0     -1.86     -0.01
   14   10    1     -1.18      0.46
   18    4    6     -0.18      0.37
   19    1    6      0.91      1.55
   15    9    3     -0.34      1.23
    9   12    2      0.15      0.48
    6   11    7      0.60      0.01
    1    5   13      0.28      0.88
   13    1   11      0.13     -1.21
    3   12    6     -0.42     -1.64
   21    1    1      1.92     -0.31
    4   10    9      0.60      0.57
   17    7    4     -1.31      0.10
   20    2    4     -0.85      0.96
    3   13    3     -0.43      1.26
    9    4   12      0.49      0.02
    8    0   13      1.13      0.96
   12    8    8      1.20      1.18
   17    8    0     -0.82      0.00
   18    7    1     -0.47      0.36
    5    4   13     -0.46      0.49
    8    9    9      1.57     -0.23
   12   10    5      0.68     -0.38
   10    7   10     -0.52     -0.13
    1    1   14     -0.51      0.13
    2   11    8     -0.40     -0.78
    6   12    5     -0.73     -1.26
    4    8   11     -0.42      1.46
    2    0   14      1.50     -0.85
   15    4    9      0.09     -1.28
    1    7   12      0.21      0.27
   12    7    9     -1.21     -0.50
    8    8   10      0.97      0.55
   10    3   12      0.64      0.22
    2    5   13      0.25     -0.40
   20    4    2      0.10     -0.77
   18    6    4     -0.42     -0.79
   17    8    1     -0.81      1.11
   11   10    6     -0.55     -0.69
    8    1   13     -0.77      0.34
   16    2    9     -0.36     -0.31
   11    1   12      0.03      0.09
   19    6    0      1.30      0.00
   16    8    4     -0.13     -0.48
   13    9    6     -0.59      0.24
    2    1   14      0.53      0.40
   21    2    0      1.54     -0.01
    5   13    2      0.16     -0.34
    6    6   12      0.41      0.36
    2    7   12     -0.12      0.92
    5    9   10     -0.02      0.26
   12   11    2     -0.59     -1.24
   14   10    2      0.24      0.34
    8    5   12     -0.39      0.57
   13   10    4      0.60      0.32
   19    6    1      1.10      0.40
    3   11    8     -0.81      0.39
   14    9    5     -1.17     -0.52
   19    2    6      0.50      0.44
   21    1    2     -0.19      0.44
    4   12    6     -0.35      0.25
    6   13    0      0.49     -0.01
   13    2   11     -0.69      0.84
   21    2    1     -1.55      0.28
    4   13    3     -0.47      0.29
    3    5   13      0.00      0.28
    0    2   14     -0.40      0.52
   18    7    2      0.38     -1.21
   15    1   10      0.30      0.22
    7    3   13      1.59      1.60
    1   13    4      0.93      0.23
   12    9    7      0.28      0.92
    1    2   14     -0.51      1.47
   10   11    5      0.08     -0.24
    6   13    1     -0.55      0.63
    5   10    9      1.56     -1.11
   10   12    0      0.10      0.00
    3    1   14      0.03      0.33
    8   12    4      0.13     -0.32
    8   10    8     -0.75     -1.06
   11   11    4      0.11      0.41
   16    6    7     -0.25     -1.82
   16    9    0     -0.61      0.00
   17    8    2      0.31      1.22
    3    7   12      0.15      1.06
   17    3    8      0.69      0.65
    9   12    3      0.14      0.52
    8    2   13      0.85      0.80
   20    0    5      0.74      1.15
   11    5   11     -0.10      0.79
   15    7    7      1.58      0.45
    5    8   11      0.06      0.26
   11    2   12     -0.42     -0.16
    2   13    4     -0.18     -0.26
   19    4    5     -1.45     -0.58
   13    5   10      0.20      0.54
   18    3    7      0.58     -0.56
   10   12    1      1.08      0.50
   12    4   11      0.56     -0.79
   10   10    7     -1.44     -0.06
    2    2   14     -0.51     -0.39
   16    9    1     -0.55      0.41
    6    4   13      0.90      0.76
   16    7    6      0.44     -1.06
    7   11    7     -0.13     -0.29
   20    3    4     -0.86     -1.21
   15    6    8      0.28      0.83
   19    6    2     -0.10      0.01
    8    7   11     -0.85      0.10
   19    5    4      0.42     -0.90
   20    1    5     -0.98     -0.34
   12    6   10     -0.93     -0.06
   17    6    6      1.80     -0.10
    4   11    8      0.27      0.04
   20    4    3     -1.26     -0.00
    4    0   14     -0.76      1.28
   21    2    2     -0.60      0.59
    4    5   13     -0.12      0.34
    7   12    5      0.65     -0.51
    9   11    6      0.38      1.00
   15    9    4      0.36     -0.07
   15    2   10      0.05     -0.29
   17    5    7      0.97     -0.24
   16    3    9     -1.65     -0.50
   20    5    0     -1.12     -0.00
    5   12    6      0.63      0.12
   14    7    8      0.85     -0.57
    6   13    2      0.18     -0.49
   14    4   10     -0.40     -0.52
    3   13    4     -0.66      0.15
    5   13    3      0.00     -0.82
    6    9   10      0.23      0.70
   11    8    9     -1.28     -0.48
    4    1   14     -0.07     -0.03
   16    5    8      0.66     -0.06
    3    2   14      0.92      0.11
   12   11    3      0.27     -0.20
   10    6   11     -0.52      0.52
    4    7   12      0.88     -1.74
   14   10    3     -1.01      0.42
   21    3    0      0.72     -0.00
   21    1    3      0.09      1.46
    7    6   12      0.12     -0.09
   20    5    1      0.41      1.77
   10   12    2     -0.13      0.80
    9    9    9      0.61     -1.10
   15    8    6      2.52     -1.04
   19    3    6     -0.33      1.08
   14    8    7      0.86     -0.20
   16    9    2      0.18      1.20
   18    7    3      0.07     -0.92
   13    3   11      2.25     -0.56
    9    8   10      0.11     -1.48
   21    3    1      1.42     -0.57
   10    4   12     -0.46     -0.13
   11    9    8      0.80     -0.32
    7   13    0     -0.43      0.01
    6   10    9     -0.06     -0.64
    9    1   13      0.60      0.41
   17    7    5     -0.04     -0.66
   20    2    5     -1.29      2.39
    1    3   14     -0.30      0.22
    1   12    7     -0.45      0.32
   18    5    6     -1.08     -0.22
   17    8    3      0.30     -0.57
   13   11    0      1.33     -0.02
    6    8   11      0.23     -0.64
    7   13    1     -0.06      0.36
   14    6    9     -0.71      0.04
   11    7   10     -2.35      0.93
    5   11    8      0.63     -0.88
    9    5   12      0.69      0.79
   18    0    8      1.51      0.24
    8    3   13      0.21      0.48
    4   13    4     -0.15     -0.73
   11    3   12      0.77     -2.00
   18    6    5     -0.82     -0.38
    5    5   13     -0.88     -0.57
   13   11    1      0.16      0.87
    4    2   14      0.94      0.68
   14    0   11      0.16      1.17
    2    3   14     -0.05      0.35
   15    5    9     -0.67     -0.05
   12    0   12      1.17     -0.13
    2   12    7      0.47     -0.13
   19    6    3      0.05      0.06
   16    8    5     -1.89      0.41
   20    5    2     -2.21      2.48
    7    4   13      0.16      0.48
   21    2    3     -0.32     -0.27
    5    1   14      0.73     -0.90
   18    1    8     -0.98     -0.12
   15   10    0      3.84      0.04
   13    8    8     -0.75     -1.01
    5    7   12     -1.26     -1.50
   12   10    6      0.04     -0.69
   21    3    2      1.17      1.94
   13   10    5     -0.59     -0.16
    9   12    4      0.00      0.61
   14    1   11     -0.31      1.00
    1    6   13      0.07     -0.33
    9   10    8      0.57      0.76
   12    1   12     -1.11      0.56
    6   12    6      0.20     -1.24
    0   10   10     -0.61     -0.22
    6   13    3     -0.18     -0.84
   13    7    9     -0.20     -0.45
    8   11    7      0.17     -0.33
   17    4    8      0.46     -0.37
    0   13    5     -0.80      0.58
    9    2   13     -1.10      0.49
   15    3   10      1.28      0.48
    0    9   11     -0.05     -2.43
   15   10    1     -0.77     -0.10
    1   10   10      0.31      0.99
   18    4    7      0.70      0.32
    1   13    5     -0.01     -0.19
   19    1    7      0.97      1.51
    1    9   11     -2.03      0.36
    7   13    2     -0.45      0.36
   17    1    9     -0.71      0.53
    3    3   14      0.03     -0.02
    3   12    7     -0.27     -0.69
    7    9   10     -0.51     -0.33
    2    6   13     -0.44      1.23
   10   12    3      0.58     -0.25
   20    4    4      1.04     -0.69
    8   12    5      1.54     -0.25
    9    7   11     -0.21      0.72
   11   11    5     -1.73     -0.48
   11   12    0     -0.22      0.02
   16    9    3     -0.30     -0.92
   13   11    2     -0.81     -0.57
    2   10   10      1.21      0.28
   14    9    6     -0.53     -0.51
    2   13    5     -0.19     -0.39
    2    9   11     -0.48      1.40
    5   13    4     -0.66     -0.24
   11   12    1      1.60      0.04
   11   10    7     -0.68      1.19
   12   11    4     -0.26     -1.04
    5    2   14     -0.88     -0.37
   18    2    8      0.12      0.04
   20    3    5      0.47      0.16
   14   10    4     -0.19     -0.86
   16    4    9      0.97     -0.19
    8    6   12     -0.30      0.04
    7   10    9     -1.14      1.21
   19    5    5      0.47      0.87
    6   11    8      0.71      0.09
   12    5   11      0.02     -0.49
   21    1    4     -0.62      0.07
   13    9    7      1.64      1.95
    6    0   14      2.40     -1.05
   14    2   11     -0.12     -0.88
   10   11    6      0.53     -0.52
   12    2   12     -0.59     -0.74
    6    5   13     -0.60      0.62
   21    4    0      1.87     -0.00
    3    6   13      0.34     -0.41
   15   10    2      1.01      1.13
    8   13    0     -1.42     -0.01
    7    8   11      0.37     -0.67
   18    7    4      0.01      0.28
   15    9    5      0.01     -0.27
   20    0    6     -1.62      0.46
   19    2    7     -0.47     -0.74
   18    8    0     -0.70     -0.01
   19    7    0      0.15      0.00
    0   11    9     -1.60      1.05
   19    4    6     -0.98      0.31
   20    5    3     -0.74     -0.03
    4    3   14     -0.10      0.40
    3   10   10      0.03     -1.66
    4   12    7     -0.78     -0.05
   17    2    9     -0.02     -0.33
    6    1   14     -0.49      0.23
    3   13    5     -1.04      0.61
   16    0   10     -1.06      0.55
   13    4   11     -1.31      0.18
   21    4    1     -0.53      0.57
   10    0   13     -0.51      1.48
    3    9   11      1.19      1.03
    1   11    9     -0.56     -0.10
    6    7   12     -0.12      1.18
    8   13    1      0.32     -0.19
   17    8    4      0.62      0.02
   10    9    9     -1.29      0.14
    0    4   14     -0.61      0.12
    0   14    0     -0.62     -0.03
   21    3    3      0.50      1.06
   11    6   11      0.96      0.44
    0    8   12      1.80      0.54
   20    1    6     -1.39      0.09
   18    8    1     -0.60      0.71
   19    7    1     -0.40     -0.57
   14    5   10      0.33     -0.77
   13    6   10      0.49      1.56
   10    8   10     -0.17     -0.40
    1    4   14      0.35      1.23
    1   14    0     -0.89     -0.00
   16    1   10     -0.10      0.60
    1    8   12      0.76      0.11
   10    1   13      0.78      0.34
   11   12    2      0.54     -0.24
   12    8    9     -0.00      0.37
    7   12    6     -0.93     -0.16
    2   11    9      1.16     -0.86
    9    3   13     -0.59     -0.13
   19    6    4      0.35      0.64
    7   13    3     -0.61      0.49
    8    4   13     -0.05      0.70
   22    0    1      0.54     -0.43
   22    1    0     -1.31     -0.00
   11    4   12     -1.27      0.33
    1   14    1      0.49      0.49
   21    2    4     -0.11     -0.24
    2    4   14      0.89      0.66
    2   14    0     -0.25      0.02
    4    6   13      0.21     -1.26
   10    5   12      0.59     -0.67
   13   11    3     -0.49      0.26
   16    7    7      0.69     -0.64
    2    8   12     -1.21      0.61
   12    9    8     -0.06     -2.03
   22    1    1      0.03     -0.89
   17    6    7     -1.19      0.77
   17    9    0     -0.19     -0.01
   20    6    0      0.62     -0.01
    6   13    4     -0.49      0.55
    4   10   10     -0.99     -0.60
    4   13    5      0.12      0.38
   21    4    2     -1.15      0.20
    2   14    1      0.18     -0.82
   16    6    8     -0.29     -0.97
    6    2   14      0.69     -0.51
    4    9   11      0.30     -0.13
    8   13    2     -0.36     -0.19
    8    9   10     -1.36     -0.98
    9   11    7     -0.28      0.06
   15    7    8     -0.63     -0.68
    3   11    9     -0.44      0.34
   18    8    2     -0.53     -0.22
   19    7    2      0.00     -0.90
   15    4   10     -0.81     -0.19
   17    9    1      0.06     -0.57
   20    6    1     -0.38      0.66
    5    3   14      1.19      0.14
    5   12    7      0.36     -0.13
   18    3    8      0.93     -1.78
   12    7   10      0.66      0.79
   17    7    6     -0.37      0.10
   10   12    4      0.94      0.97
   20    2    6     -0.14      1.37
   10   10    8      1.40      1.14
   16    9    4     -1.36      0.62
   15   10    3      1.17      0.77
   14    3   11     -0.43     -0.46
   12    3   12     -0.54      0.37
   16    2   10     -0.68     -0.07
    3    4   14     -0.50      0.95
    7   11    8     -1.01      1.76
    3   14    0     -0.34      0.00
    0   14    2      1.38      0.15
   10    2   13     -0.54     -0.84
    9   12    5     -0.22      0.38
    3    8   12      0.10      0.76
   22    0    2      1.61      0.56
    7    5   13      1.22      0.34
    1   14    2     -0.21     -0.73
   15    8    7      0.84     -2.14
   22    2    0      1.25      0.00
    8   10    9     -0.24      0.08
   19    3    7     -0.62     -0.13
   18    6    6      1.11      0.26
   14   11    0      0.31      0.00
   17    3    9     -0.90      0.72
    3   14    1     -0.00     -0.68
   10    7   11      0.70      0.59
    7    1   14      1.32      1.58
   16    8    6      0.88     -0.39
   22    1    2     -0.12      1.09
   17    5    8      0.32     -0.48
    8    8   11      0.01     -0.94
    9    6   12     -0.24      0.07
    7    7   12      1.25      0.17
   20    4    5     -1.69      1.36
   22    2    1      1.76      1.89
    2   14    2     -0.87     -0.94
    5    6   13     -0.46      0.29
   11   12    3      0.39      0.08
   18    5    7     -0.38      0.75
   14   11    1      1.08     -0.94
   13   10    6     -0.41      1.63
   15    6    9     -0.03     -0.02
   13    1   12     -0.32     -0.10
    9   13    0     -0.47     -0.00
   17    9    2      0.35      0.38
   20    6    2      0.75     -0.41
    4   11    9     -0.46      0.11
   20    5    4     -0.64      0.34
    5   10   10     -0.52      0.91
    5   13    5      0.12      0.16
   14    8    8     -0.76     -0.39
    5    9   11     -1.01     -0.55
   12   11    5      0.79      0.23
   12   12    0      0.70     -0.00
   14   10    5     -1.03     -0.18
    1   13    6     -0.65      0.32
    4    4   14     -0.88     -1.19
    4   14    0      1.66     -0.03
   21    3    4     -0.80      0.03
    4    8   12      0.37     -0.68
    9   13    1      0.78     -1.08
   21    1    5     -1.17      1.06
    0   12    8      1.67      1.35
   14    7    9      0.21      0.32
    8   12    6      0.48      0.48
   21    4    3      0.66     -1.85
   11   11    6     -0.64     -0.52
    1   12    8      0.26     -0.51
   16    5    9      1.37     -0.83
    8   13    3      0.14      0.15
   12   12    1     -0.90     -0.58
    3   14    2     -1.07      0.59
   18    7    5      0.74     -0.52
   15    1   11     -0.49      1.37
   12   10    7      0.36      0.04
    4   14    1      0.21      1.00
    7   13    4     -0.21      0.55
    6    3   14      0.41      0.06
    6   12    7      0.82     -0.39
   18    8    3     -1.08     -0.39
   19    7    3      0.38     -0.89
    2   13    6     -0.18     -0.13
   16   10    0     -0.29     -0.00
   21    5    0      0.51      0.00
    7    2   14      0.88      0.43
   22    2    2     -1.11      2.10
    9    4   13      0.14      0.74
   17    8    5      0.59      0.33
   14   11    2     -0.04      1.54
    0    7   13      0.06      1.31
   13   11    4     -0.09     -0.83
   20    3    6      0.26     -0.50
    2   12    8     -0.79     -1.06
   19    5    6     -0.66      2.60
   11    9    9     -0.05      0.36
   22    0    3     -0.52      0.43
    1    7   13      0.69      1.04
   16    3   10      1.04     -0.09
   13    5   11      0.37     -0.38
    1   14    3     -0.47      0.76
   16   10    1      0.52      0.16
   21    5    1     -0.37     -0.51
   10    3   13     -0.50     -0.17
   13    2   12     -0.00      0.89
   11    8   10      0.10      1.24
   22    3    0      1.19     -0.01
   11    1   13     -0.62     -0.31
   15    9    6     -0.16     -0.03
   19    6    5     -0.05      0.96
    1    5   14      0.53      0.20
   14    9    7      0.71     -1.06
   12    6   11      1.50     -0.58
   22    1    3     -1.58     -0.64
    9   13    2     -0.06     -0.26
    5   11    9      0.84      0.37
    9    9   10      1.00      0.20
    3   13    6      0.99      0.33
    8   11    8      0.86      0.00
   18    0    9     -1.48      0.66
   21    2    5     -0.35     -0.42
    6    6   13     -0.21      0.41
    2    7   13     -0.14     -1.63
    2   14    3      0.82      0.73
   15   10    4     -0.35     -1.28
    8    0   14     -0.89      0.89
   12   12    2      0.19     -0.35
    5    4   14      0.29     -1.01
   18    4    8     -0.58     -0.61
    8    5   13      0.26     -0.10
    5   14    0      1.69     -0.00
   19    1    8     -1.06     -0.45
   22    3    1     -0.51      1.07
    4   14    2      0.58      1.59
   11    5   12     -0.33     -1.33
   15    2   11      0.64     -0.73
    5    8   12      0.69     -1.56
    3   12    8     -0.79      0.07
    6   10   10      0.51      0.84
   17    9    3      0.38     -1.23
   20    6    3      0.81      0.11
   10   11    7      0.60      1.31
    6   13    5      0.68     -0.69
   14    4   11      2.30     -0.12
    2    5   14     -0.77      0.72
   12    4   12      0.85     -1.40
    6    9   11     -0.10      0.53
   18    1    9     -0.28     -0.01
   13    8    9      0.29      0.52
    8    1   14      0.37     -0.55
    5   14    1     -0.45      0.26
   20    0    7     -1.48      1.03
    8    7   12      0.01     -0.08
    9   10    9      0.82     -0.15
   14    6   10      0.73      0.92
   19    4    7     -0.93     -0.28
   16   10    2     -0.82     -0.72
   21    5    2      1.13     -1.19
   10   12    5     -0.35     -0.34
   17    4    9      0.02     -0.25
    0    1   15      1.53     -0.28
   11   12    4     -0.10     -0.40
   16    9    5      0.42      0.19
   11   10    8     -0.66      0.83
    3    7   13     -0.98     -0.10
    3   14    3      0.27     -0.15
    9    8   11     -0.65      0.87
    1    1   15      0.16      0.13
   15    5   10      0.76     -0.34
   20    1    7     -0.20      1.07
    2    0   15      0.23     -0.14
   11    2   13      1.31     -0.10
   13    9    8      0.90      0.73
   22    2    3      0.21      0.04
    4   13    6     -0.38     -0.99
    3    5   14     -0.58     -0.15
   14   11    3      1.23      0.65
   10    6   12      0.26     -0.61
    7    3   14     -0.38     -0.38
    7   12    7      0.23     -0.25
   22    3    2     -0.55      0.57
   19    2    8     -1.11     -0.89
   11    7   11     -0.19      0.28
    2    1   15     -1.07      0.63
    4   12    8     -0.31      0.39
   13    7   10      0.76     -0.06
   21    4    4     -0.64     -0.35
   10   13    0      0.32      0.02
    8   13    4      0.98     -0.73
   18    2    9     -0.39      1.09
   13    3   12      0.53     -0.56
    5   14    2      0.52      0.20
    9   12    6      1.38     -0.65
    8    2   14     -0.21      0.75
    6   11    9      1.49     -0.73
   17    1   10     -0.73      0.44
   18    8    4     -1.16     -0.91
   19    7    4      1.04     -0.37
    9   13    3      0.13     -0.64
   20    5    5     -0.08     -0.21
   19    8    0     -0.59     -0.01
   10   13    1      0.14     -0.72
    6    4   14      0.85      0.64
    6   14    0     -1.41      0.03
   12   12    3     -1.38      0.67
    4    7   13      0.79     -0.14
    0   14    4      1.51      0.84
    4   14    3     -0.25     -0.02
   21    3    5     -2.13      1.20
    6    8   12     -0.95     -0.11
   22    0    4     -3.19     -0.60
    1    2   15      0.34      0.01
    7    6   13      0.30      1.48
    1   14    4      0.41     -0.29
   17    7    7     -1.13     -0.86
   20    2    7      0.00     -0.87
   20    7    0      0.33      0.01
   20    4    6     -0.40      1.24
    3    1   15      0.65     -0.06
   19    8    1      0.19     -0.48
   15    3   11      0.15     -0.20
    4    5   14      0.61      0.51
    6   14    1     -0.71     -0.30
    1   10   11     -0.07     -0.30
   16    7    8     -0.02     -0.17
   16    4   10      1.99      2.26
    7   10   10      0.84      1.04
   14    0   12     -0.68      1.56
   10    4   13      0.04     -1.90
    7   13    5      0.48     -0.93
   22    1    4      0.04      0.73
   17    6    8      0.21     -0.64
    7    9   11      0.23     -0.39
   16   10    3      1.48      0.48
   21    5    3      0.21      0.94
   20    7    1      1.07     -0.24
    5   13    6     -0.41     -1.27
   15   11    0     -1.16      0.02
    2    2   15      0.90      0.28
   22    4    0      2.75      0.00
    2   14    4     -0.35     -0.47
   18    6    7     -0.51      0.40
   18    9    0      0.39      0.00
   12   11    6     -0.77      0.83
   13   11    5      0.71      0.30
   13   12    0     -0.08     -0.00
   14   10    6      0.33     -0.49
    9   11    8      0.71     -1.53
   14    1   12      1.41     -0.26
    2   10   11     -0.11     -0.45
   16    8    7     -0.87     -0.15
   21    1    6     -1.31     -0.58
   17    9    4     -1.32     -0.56
   20    6    4     -0.01      0.08
    5   12    8      1.00     -0.96
   17    2   10     -0.17     -0.25
    9    5   13     -0.92     -0.15
    4    0   15      0.14     -0.95
   15   11    1     -0.31     -0.43
   22    4    1      1.34      1.98
   10   13    2      0.05     -0.56
    1   11   10      0.27      0.10
   11    3   13     -0.49     -2.16
   18    9    1     -0.43      0.30
   10    9   10      0.77      1.01
   18    7    6     -0.02      0.53
   13   12    1     -0.74     -1.03
   22    3    3     -0.85     -1.25
   13   10    7      0.80      0.01
   12    0   13      0.42     -2.23
    1    9   12      0.27     -0.06
   12    9    9     -0.69     -0.61
    9    1   14     -1.30     -1.03
    0   13    7     -0.95      0.81
   15    8    8     -0.19     -0.40
   19    8    2     -0.10     -0.88
    9    7   12     -0.92      0.94
    4    1   15      0.50     -0.79
   19    3    8     -1.35     -0.91
   16    6    9      0.93     -0.05
   15   10    5     -0.95      0.47
   12    8   10     -1.49      0.22
   17    8    6     -0.51     -0.21
    3    2   15     -0.16      0.09
    6   14    2     -0.44     -0.38
    5    7   13      0.38     -0.46
    3   14    4     -1.03     -1.00
    1   13    7      1.17     -0.97
    5   14    3     -0.55     -0.20
    2   11   10     -0.59     -0.72
   12    1   13     -0.71     -1.25
   15    7    9     -1.26      0.42
   18    3    9      0.63      0.31
    3   10   11     -0.59      0.53
   21    6    0      0.19     -0.00
    2    9   12      0.11      0.35
   20    7    2      0.33      0.91
   16    0   11     -0.27      0.88
   10   10    9      1.74     -0.52
    8    3   14     -0.12     -0.28
   22    2    4     -1.81     -1.60
    8   12    7     -0.02      0.90
   11   11    7     -0.11     -0.27
    5    5   14      0.28     -0.52
   18    5    8     -0.16     -0.60
   14   11    4      0.45      1.23
    7   11    9     -0.13     -0.58
   19    6    6     -1.59     -0.11
   23    1    0      1.04     -0.01
   14    5   11     -0.86      0.44
    0    3   15      1.22      0.43
   12    5   12     -1.21      1.71
    2   13    7      0.13     -0.75
   13    6   11     -0.29     -0.10
   10    8   11     -0.81      1.97
   14    2   12      1.75      0.71
   21    6    1     -0.46     -0.59
    7    4   14      0.68      0.93
   21    2    6     -0.57      0.28
    7   14    0     -0.96     -0.01
   15   11    2     -0.36      0.33
   16    1   11     -0.27     -0.72
   22    4    2      0.15     -0.11
    0    6   14      0.99      0.86
    1    3   15      0.01      0.44
   11   12    5      0.66     -0.07
   18    9    2      0.44     -0.00
    7    8   12     -0.23      0.55
   20    3    7      0.41      0.18
   13   12    2     -1.24      0.47
   19    5    7     -1.45     -0.34
    1    6   14     -0.09      0.43
   23    1    1     -0.39      0.79
    3   11   10     -0.12      0.21
    9   13    4      0.18     -0.69
   17    5    9      0.25      0.33
    6   13    6      0.12      0.31
   13    4   12      0.59      0.57
    7   14    1      0.30      0.19
    9    2   14     -1.11     -0.58
    3    9   12     -0.32      0.67
   12   12    4      0.45     -0.48
    4    2   15     -1.01     -0.83
    8    6   13      0.36     -0.09
   12   10    8      0.17     -0.32
   17   10    0     -1.11     -0.03
    4   14    4     -0.44      0.41
   15    9    7     -0.56     -0.81
    2    3   15     -0.83      0.74
   11    6   12      0.08     -0.02
    6   12    8      0.40      0.06
   12    2   13      0.26     -0.19
    4   10   11     -0.14      1.48
    2    6   14     -0.18     -0.46
   10   12    6     -1.08      1.21
    3   13    7     -0.68      0.66
    5    1   15     -0.66     -1.05
   21    4    5      1.18      0.14
    8   10   10     -0.06     -1.46
   10   13    3      0.90      0.21
   14    8    9     -0.92     -1.22
   16    9    6      0.62      0.19
    8   13    5     -0.42     -0.30
   17    3   10     -0.04      1.12
    8    9   11      0.15     -0.66
   11   13    0      1.48     -0.00
   17   10    1     -0.04      0.63
   18    8    5      1.73     -0.29
   19    7    5     -0.43      1.05
   15    4   11      1.10      0.02
   21    6    2     -0.16      1.13
   23    2    0      0.41      0.01
   16   10    4      0.34      0.38
   12    7   11      0.43      0.39
   21    5    4     -0.57     -0.17
   19    8    3     -0.52      0.23
    6    7   13     -0.79      1.32
    1   12    9     -0.48     -0.10
    6   14    3     -0.54      0.10
   16    2   11      0.27      1.64
   11   13    1     -0.39     -0.17
   15    6   10     -0.59     -1.35
   23    1    2     -0.76      0.51
   22    0    5     -1.06     -0.37
   14    9    8     -1.50     -0.20
    3    3   15     -0.52     -0.31
    4   11   10      0.79      0.18
    1   14    5     -0.76      0.23
   23    2    1     -1.04      0.21
   20    7    3     -0.75      1.21
    7   14    2     -0.31     -0.14
    6    5   14      0.38      0.19
    1    8   13     -0.11     -0.20
    3    6   14      0.44      0.08
    4    9   12      0.54     -0.31
   22    3    4      0.17     -0.28
    2   12    9     -0.65      1.20
   22    1    5      1.81     -0.22
   20    5    6      1.12      0.63
   11    4   13     -0.07     -0.43
   14    7   10      0.20      0.47
   10   11    8      0.10      1.05
    4   13    7     -0.31      0.47
   15   11    3      0.26     -0.48
   22    4    3      1.55      0.89
   10    0   14     -0.90     -0.01
    2   14    5     -1.06      0.30
   16    5   10     -0.13      0.48
   18    9    3     -0.59      0.04
   14    3   12      0.44      0.48
   10    5   13     -0.29      1.15
    5    2   15     -1.11      0.01
   13   12    3     -0.23      0.23
    2    8   13      0.07      0.97
    5   14    4     -0.24      0.72
   17   10    2     -0.96      0.38
   21    3    6      0.45      0.21
   20    0    8     -1.98     -0.35
   17    9    5     -0.85     -0.30
   19    4    8     -0.06     -1.01
   20    6    5     -0.44      0.55
    6    0   15     -0.33      0.82
   22    5    0      2.08      0.01
    5   10   11      0.76     -0.41
    8   11    9     -0.65      1.46
   10    1   14      0.03      0.31
   11   13    2      0.40     -0.51
   18    4    9     -1.78      0.87
   19    1    9     -1.63     -0.51
   10    7   12      0.39     -0.53
    9    3   14     -1.40      0.21
    9   12    7      0.39     -0.12
   11    9   10     -1.61     -0.19
    7   13    6     -0.69     -0.28
    8    4   14     -0.45     -0.30
    8   14    0     -0.12     -0.03
   20    1    8      1.15     -0.25
    3   12    9      0.95      0.15
    4    3   15      0.34     -2.08
   22    5    1     -1.96     -1.29
   23    2    2      0.49      1.02
    8    8   12      0.85      0.39
    6    1   15     -0.59      0.08
    4    6   14     -0.30     -0.35
   12    3   13      0.81     -0.12
   13   11    6      0.67     -0.20
    3   14    5      0.71      0.12
    7   12    8      0.01      0.57
    3    8   13      0.59     -1.13
    8   14    1      0.49      0.17
    5   11   10     -0.76     -0.92
    1    4   15     -0.05      0.83
   21    6    3     -1.07     -0.53
   20    4    7     -0.18      0.72
   18    0   10     -1.40      0.53
   22    2    5      0.64     -0.84
    5    9   12     -0.55     -0.50
   14   11    5     -1.68     -0.02
   11   10    9     -1.58      0.47
   14   12    0     -0.45      0.01
   23    3    0      0.17      0.00
   23    1    3     -1.72     -0.69
   13    9    9     -0.41      0.09
   16    3   11      0.05      1.09
    9    6   13     -1.19     -0.97
    7    7   13      0.24     -0.44
    5   13    7     -0.28     -0.73
    7   14    3      0.55     -0.55
   11    8   11      2.30     -0.40
   18    1   10      0.30     -0.53
    2    4   15     -0.49      0.45
   10   13    4     -0.19     -0.17
   15   10    6      0.71     -1.00
   13    8   10     -0.31      0.18
   12   11    7      0.66      0.10
   14   12    1      0.86      0.94
   23    3    1      0.26      0.50
   15    1   12      2.47      1.10
   14   10    7     -0.09      0.22
   10    2   14     -1.53     -1.31
    9   10   10     -1.06     -1.32
   13    1   13      1.12     -0.62
   19    2    9      1.02      0.53
   16   11    0      0.84      0.00
    9   13    5      0.60     -0.61
   21    1    7     -0.94     -0.25
    7    5   14     -0.42      0.58
    4   12    9      0.57     -0.80
   22    5    2      1.25     -1.31
   17    7    8      0.15      0.26
   20    2    8     -1.15      0.36
    9    9   11     -0.28      0.71
   17    4   10      0.89      0.18
   19    8    4     -0.40      1.34
    6    2   15      0.49      0.67
    6   14    4     -0.45     -0.20
   12   12    5     -1.50      0.89
   18    7    7      0.01     -0.15
    1   15    0      0.64      0.01
   17   10    3     -0.21     -0.18
    4   14    5     -0.06      0.51
    8   14    2      0.12     -0.91
    4    8   13     -1.10     -0.40
    6   10   11      0.14     -2.22
   16   11    1     -1.53      0.33
    5    3   15      0.34      0.17
   13    5   12      1.19      0.17
   20    7    4     -0.68     -0.25
    0   15    1      1.03     -0.17
    5    6   14      0.22      1.32
   11   12    6     -0.82      0.81
   18    6    8     -0.19      0.49
   17    8    7     -0.11      1.17
   20    8    0      0.38     -0.00
    3    4   15      0.26     -0.77
    1   15    1      0.11      0.35
   11   13    3     -0.36      0.23
   16    8    8      0.86     -0.17
   14    6   11     -0.41     -0.03
   12    6   12      0.01      0.08
    2   15    0      1.04      0.01
   23    2    3     -0.21     -1.10
   16   10    5      1.03      0.19
   21    5    5     -0.64      0.08
   15   11    4      0.07      0.32
   22    4    4      0.02      0.44
   18    9    4      0.57     -0.63
   20    8    1      0.77     -0.78
   14   12    2     -0.41     -0.37
   23    3    2     -1.05      0.30
   16    7    9      0.56      0.27
   18    2   10      0.41      0.25
   13   12    4      0.34     -0.01
   13   10    8     -0.38     -0.73
   15    5   11      1.26     -0.56
   19    6    7      1.93     -0.10
   19    9    0     -0.44      0.00
   12   13    0     -0.09     -0.01
    6   11   10     -0.40      0.24
   15    2   12      0.19     -0.39
    7    1   15     -0.20      1.58
    2   15    1     -0.12      0.29
   17    6    9      0.67      0.19
   14    4   12      0.74      0.05
   13    2   13     -0.46     -0.52
   21    2    7      0.56      0.69
   21    7    0      0.57      0.00
    6    9   12      0.46     -0.64
   21    4    6      1.29      0.54
    8   13    6      0.91      0.70
    1   13    8      0.13     -0.39
   22    3    5      0.28      0.81
    9   11    9     -0.07     -0.49
   19    9    1     -1.04     -0.53
   12   13    1      0.07     -0.28
   18    8    6     -0.52      0.50
   19    7    6      0.48      0.37
   16   11    2      0.30      0.01
    5   12    9     -0.78     -1.07
    6   13    7      1.01     -0.71
   13    7   11      0.80     -0.41
    3   15    0     -0.40     -0.01
    8   12    8     -0.48      0.11
   21    7    1      1.03      0.18
    9    4   14     -0.52     -0.82
   11   11    8      0.02      0.61
    9   14    0     -0.33     -0.00
    0   14    6      0.16      1.81
    9    8   12      0.49      0.18
    1   15    2      0.09      0.15
    5   14    5     -0.67     -1.09
    4    4   15     -0.34     -0.35
   11    5   13      0.53     -0.78
   17    1   11      0.59      0.45
   22    0    6      1.47      0.54
    5    8   13     -0.36      0.79
    1    7   14      0.40      0.35
    2   13    8      0.25     -0.47
    1   14    6      0.87     -0.55
   21    6    4     -0.66     -0.63
   22    5    3     -0.18     -1.09
   10    3   14     -0.19     -0.27
   10   12    7      0.03     -0.41
    3   15    1     -0.09      0.59
   12    4   13     -0.78     -0.26
   15    8    9      0.75     -0.53
   19    3    9      0.04      0.71
    9   14    1     -0.43      0.28
   16    9    7     -1.10     -0.83
   20    8    2      0.73      0.09
   20    3    8     -1.29      1.37
   11    1   14     -0.85     -0.12
    8    7   13     -0.10      0.34
   19    5    8      0.85      0.78
   23    1    4     -0.80     -0.18
    6    3   15     -0.47      1.46
    8   14    3      0.05     -0.82
   11    7   12      1.40     -1.00
    2   15    2     -0.57      0.47
   22    1    6      0.23     -0.13
    7    2   15      1.61     -0.44
   23    4    0     -0.48     -0.01
    7   14    4      1.08     -1.10
    6    6   14     -0.48     -0.28
    2    7   14      0.15     -0.14
    2   14    6     -0.23     -1.13
   18    5    9     -1.13      0.16
   16    4   11     -1.35      0.19
    8    5   14      0.36     -0.54
    7   10   11     -0.81      0.85
   15    9    8     -0.77     -0.84
   19    9    2      0.18      0.15
   12   13    2     -0.21      0.74
   12    9   10     -0.17     -0.31
   17    9    6      0.98      0.11
   20    6    6     -0.72     -1.17
   18   10    0     -0.18     -0.00
   23    4    1     -1.16     -0.10
    3   13    8     -0.06      1.09
   21    7    2     -0.12      0.46
    4   15    0     -0.35     -0.02
    0    5   15      0.03      2.97
   16    6   10      0.27     -0.30
   10    6   13      0.12     -0.43
   14   12    3      1.91      0.54
   23    3    3     -0.38     -0.67
   17   10    4     -1.42      0.90
    1    5   15     -0.63      0.13
   15    7   10      0.39      1.23
    0   11   11     -0.20      0.34
   20    5    7      1.82     -0.34
   18    3   10      0.67      0.14
    0   10   12      0.12     -0.79
   22    6    0     -0.65     -0.00
   18   10    1     -0.38     -0.44
   17    2   11     -0.70      0.86
    3   15    2     -0.08      0.08
   10   10   10      0.07      1.01
    4   15    1     -0.17     -0.22
   15    3   12     -0.17      1.30
   10   13    5     -0.02      1.25
    9   14    2     -0.84     -0.77
    1   11   11      0.65     -0.55
    8    0   15     -0.28      0.23
    3    7   14     -0.46     -0.59
    1   10   12      0.33      1.23
   10    9   11      0.27      0.44
    7   11   10      0.80      1.05
    3   14    6     -1.35     -0.42
   13    3   13      1.19      0.84
    5    4   15     -0.12     -0.84
   11   13    4      1.82      0.39
   12   10    9     -1.28      0.86
   21    3    7      0.40     -0.86
    6   12    9     -0.19     -0.12
   11    2   14      0.42     -0.54
   16   11    3     -0.41     -0.98
    7    9   12     -0.12     -0.18
   22    6    1      0.05     -0.47
   23    2    4      0.92      0.65
    2    5   15      0.58     -1.57
    0   15    3     -0.13      0.69
   22    2    6      0.20     -1.88
   19    8    5     -0.44     -0.98
   12    8   11      0.60     -0.39
   14   11    6      0.63      0.78
   24    0    0      0.14      0.01
    6   14    5      0.34     -0.29
    8    1   15      0.38      0.70
    1   15    3      0.43     -0.75
    2   11   11      0.05     -0.30
    6    8   13      1.00     -0.99
    2   10   12      0.21      0.55
    7   13    7      0.47      1.00
   17    5   10     -0.04      1.57
   20    7    5     -1.01     -0.22
   23    4    2      0.26      0.67
    4   13    8      0.40     -0.20
   20    8    3      0.32     -0.48
   24    0    1      1.93      0.86
   13   11    7      1.12      0.24
   24    1    0      1.51     -0.00
   14    0   13      0.49      0.71
   14    9    9      0.14      0.80
    2   15    3     -0.41      0.57
    9   13    6      0.79      0.86
   18   10    2     -0.93      0.97
    0    0   16      1.68      1.06
    5   15    0      0.36     -0.01
    4   15    2     -0.18      0.07
   15   11    5     -0.36      0.36
   22    4    5      0.36     -0.37
   15   12    0      2.02     -0.00
    3    5   15     -0.61      0.58
   14    8   10      0.21      0.98
   18    9    5      0.87      0.74
   12   12    6      0.88     -1.02
   24    1    1     -1.20      1.41
    4    7   14      0.74      1.15
    7    3   15     -0.50      0.29
   13   12    5     -1.01     -0.12
    4   14    6      0.50      0.97
    9   12    8      1.49      0.67
   19    9    3      0.33      0.33
   12   13    3     -0.47      0.33
   14    1   13      0.58      0.96
    3   11   11      0.16      0.64
    0   12   10      0.47      0.72
    7    6   14      0.03     -0.51
    3   10   12     -0.14     -0.52
   22    6    2     -0.37      0.56
   10   11    9     -0.23      0.20
   22    5    4      0.37     -1.16
   16    0   12      1.95     -0.98
    5   15    1     -0.18     -0.64
   21    7    3      0.29      0.34
   15   12    1     -0.23      0.68
    0    9   13      0.13      0.54
   15   10    7     -1.49     -0.79
    1   12   10     -0.38      0.12
    1    1   16     -0.14     -0.28
   10    4   14     -1.64     -0.26
   10   14    0     -0.34      0.03
    8    2   15     -1.03      0.28
   20    0    9     -0.16     -0.60
    1    9   13      0.59      0.50
    8   14    4      0.08     -0.12
    2    0   16     -2.18     -1.66
   14    5   12      0.91     -1.42
   19    4    9      0.13      1.92
   13    6   12     -1.15      0.13
   10    8   12      0.44      0.14
   16   10    6     -0.18      0.96
   21    5    6      0.87     -1.82
    3   15    3     -0.49      0.78
   20    4    8     -0.55     -0.13
   16    1   12     -1.28     -0.29
    9    7   13      0.59      0.54
    8   10   11     -0.28      1.85
    9   14    3     -0.42      0.66
    6    4   15      0.12      0.86
   24    0    2     -3.07     -0.36
   17    3   11      0.53      0.06
    2   12   10     -0.88     -0.55
   10   14    1     -0.02     -0.05
   13   13    0     -0.73     -0.00
   24    2    0      0.02     -0.01
   20    1    9     -0.36     -0.55
    2    1   16     -0.21      0.74
   21    6    5      0.77     -1.36
    2    9   13      0.85     -1.06
    9    5   14     -0.24     -0.85
    5   13    8     -0.26     -0.73
   11    3   14      0.27     -0.86
   11   12    7     -0.31      1.53
    4    5   15     -0.61      0.12
   12   11    8     -0.61     -0.18
   14   12    4     -0.08     -1.42
   17   11    0      0.46     -0.01
   23    3    4     -1.13     -0.65
   24    1    2      1.04     -2.49
   14   10    8     -0.32      0.31
    7   12    9      1.84      1.29
   22    3    6      0.84      0.82
   15    6   11     -1.36     -0.66
   12    0   14     -0.21     -1.47
   13   13    1      0.40      1.29
   23    1    5      1.01     -0.45
   24    2    1     -1.33     -1.34
   12    5   13      1.07     -1.19
   21    1    8     -0.74     -0.16
    4   11   11     -0.63      0.14
   14    2   13      0.82     -0.74
    4   10   12     -0.69     -0.23
   23    4    3     -0.24     -0.43
    8   11   10      0.49      0.66
    5   15    2      0.23      0.08
    7   14    5      1.38     -0.58
   15   12    2      0.71      0.81
    7    8   13     -0.07      0.62
    0    2   16      0.02      0.52
   17   11    1      0.53      0.21
    5    7   14     -0.40     -0.58
   18    7    8      0.46      0.90
    8    9   12     -0.26      0.54
   18    4   10     -0.32     -1.64
    5   14    6      1.02     -0.77
   19    1   10      0.63      0.28
   12    1   14     -0.99     -0.88
   15    4   12      1.21     -0.50
    3   12   10      0.31     -0.65
    1    2   16     -0.88     -0.40
   23    5    0     -1.65      0.00
   16   11    4     -1.38     -2.25
   14    7   11     -0.42     -0.82
    6   15    0     -0.31      0.02
   12    7   12     -1.64      0.42
   18   10    3     -1.12     -0.75
   13    4   13      1.17     -1.40
    3    1   16     -0.68      0.30
    4   15    3      0.22     -0.56
   21    4    7      2.28     -0.22
    3    9   13     -0.58      0.25
   16    5   11      1.07     -0.88
    8   13    7     -0.30     -0.01
   17    8    8      1.09      0.06
   16    2   12     -0.26      0.17
    1   15    4      0.43     -0.18
   17   10    5      1.65      0.27
   10   14    2      0.09     -0.16
   11    6   13      1.00      1.24
   18    8    7      1.20      1.46
   19    7    7     -0.05      0.10
   23    5    1      1.46      0.26
    9    1   15     -0.63     -0.69
   22    6    3     -0.17     -0.56
    6   15    1      0.21      0.42
   17    7    9     -0.43      0.17
   20    2    9     -0.44     -0.66
    2    2   16     -0.40     -0.09
   20    8    4      1.77      1.02
   11   10   10     -0.39      1.14
   11   13    5     -0.73      0.16
   19    6    8      0.74      0.84
   11    9   11     -0.38      1.15
   13   13    2     -0.56      0.79
   24    2    2      0.28      0.07
   22    0    7      0.71     -1.16
    2   15    4     -0.50      0.13
   13    9   10     -0.12      1.27
    1   14    7     -1.14      0.07
   23    2    5      1.01     -0.38
    8    3   15      0.64     -0.67
    4    0   16      1.03      2.07
   21    2    8      0.68      0.50
   18    6    9     -1.05      0.34
    5    5   15     -0.15     -0.07
   24    0    3      1.74      0.60
   17   11    2      0.38      0.14
    8    6   14      0.61      0.45
   19    9    4      0.98     -0.36
   12   13    4      0.15      1.23
   16    8    9     -0.53      1.35
   19    2   10      0.41      0.20
   22    1    7      0.33     -0.95
    5   11   11     -0.38     -0.37
    4   12   10      0.62      0.26
    6   13    8     -0.70     -0.39
   12    2   14      0.62      0.21
    5   10   12      0.74     -0.28
   18    0   11      1.52     -0.25
    7    4   15      0.12      0.62
   21    7    4     -0.79     -0.57
   24    3    0     -1.25      0.00
    4    1   16     -0.02     -0.39
   10   13    6     -0.18     -0.87
    2   14    7     -0.32     -0.75
    4    9   13     -1.48     -0.23
    3    2   16      0.21      0.13
   21    8    0      1.91      0.00
   24    1    3      0.25      0.71
   13   10    9      0.31     -0.75
    1    6   15      0.09      0.52
   23    5    2     -0.59      0.59
   17    9    7      0.10      0.44
   20    6    7      0.74     -0.44
   20    9    0      0.47     -0.01
    6   15    2     -0.47     -0.24
   10   12    8      0.92     -0.55
    3   15    4     -0.18      0.59
    0   13    9     -1.04     -0.39
    5   15    3      0.06      0.06
   19    8    6     -0.45     -0.02
    9    2   15     -1.50      0.34
   24    3    1     -0.41      0.04
   18    1   11      0.77      0.58
   15   12    3      1.41     -0.09
    9   14    4      0.59      0.33
   16    9    8      1.47      0.53
    6    7   14      0.01      0.50
   13    8   11     -2.37      0.81
    6   14    6     -0.73     -1.71
   14    3   13      0.20     -1.60
   21    8    1     -0.20      0.42
    1   13    9     -0.82      0.44
    9   10   11      0.38     -0.82
    0    8   14     -1.07      0.11
   20    9    1      0.28      0.42
   22    5    5      0.56     -0.90
    2    6   15     -0.80      0.61
   20    7    6      1.08      0.05
   17    4   11      0.60      0.41
    8   12    9     -0.73     -0.01
    1    8   14     -0.16      1.03
   11   11    9      0.76      1.14
    1    3   16     -0.04      0.59
   16    7   10     -0.21     -0.80
    3   14    7      0.94     -0.32
   10    7   13     -0.72     -0.04
   10   14    3     -0.42      0.34
    7   15    0     -0.88      0.01
    8   14    5      0.65     -0.75
    2   13    9      0.43      0.27
   17    6   10      1.60     -0.33
   16    3   12      1.00     -1.04
   11    4   14     -0.47     -1.25
   11   14    0     -0.01      0.01
    8    8   13      1.00      0.47
   23    4    4      1.74      0.43
   22    2    7     -0.78      1.17
   22    7    0      0.69     -0.00
   15   11    6     -0.03      0.29
   11    8   12     -1.51     -0.03
   22    4    6      0.60     -1.90
   18    9    6     -0.22     -1.88
   14   11    7     -1.50      0.39
   10    5   14     -0.98     -0.66
   20    3    9      0.26      0.48
    4    2   16      0.18     -0.26
   13   12    6      0.50     -0.31
    2    8   14      1.39      0.70
    9   11   10     -0.02     -1.17
    2    3   16     -0.15     -0.18
   19    5    9     -0.40      0.29
    7   15    1     -0.49      1.01
   13   13    3      0.52      1.45
   24    2    3     -1.18     -0.95
   20    5    8      1.17      0.46
    5   12   10      0.05      0.39
   11   14    1      0.09     -1.13
   18   10    4     -0.39     -1.37
    9    9   12      1.39      0.98
   22    7    1     -1.42      0.61
    4   15    4     -0.62     -0.55
    6    5   15      0.47     -1.16
    5    1   16      0.53      0.13
   24    3    2      0.83     -0.71
    3    6   15      0.99     -0.31
    5    9   13     -0.18     -0.29
   19   10    0     -0.65      0.01
   14   12    5      1.13     -0.91
   17   11    3      0.25      0.90
   23    3    5      1.63     -0.51
   18    2   11      0.49     -0.46
   21    8    2     -0.32      0.39
   21    3    8     -0.01      1.12
   15    9    9     -0.86     -0.57
    6   11   11      0.83     -0.12
    6   10   12     -0.14      0.07
    9   13    7      0.32     -0.48
   20    9    2     -0.23      0.55
   22    6    4      0.06     -0.45
    3   13    9      0.08     -0.11
   15    8   10      0.04     -0.67
   10    0   15     -1.18      0.13
   19    3   10      0.30     -1.69
   19   10    1     -0.51      0.10
   12    3   14     -0.72     -1.89
   12   12    7     -0.02     -0.55
   15    1   13     -0.94     -0.41
    4   14    7      0.46      0.51
    3    8   14     -0.21     -0.25
    7   13    8      0.70      0.62
   14    6   12      0.89     -0.26
    3    3   16     -0.33     -0.32
   23    5    3      1.43     -0.56
   16   11    5      1.83     -0.04
   16   12    0     -0.16     -0.01
    6   15    3     -0.77     -0.09
   21    6    6      0.89      0.73
    0   15    5      0.99      0.31
   10    1   15     -0.41     -0.95
   18    5   10      1.35      0.15
   24    0    4      1.19     -0.23
   13   11    8     -0.05      0.38
    1   15    5      1.52     -1.69
    9    3   15     -0.40      0.15
   15    5   12     -0.88     -0.26
   14   13    0      1.89      0.01
    7   15    2     -1.13     -0.18
   23    1    6      0.47      0.63
    8    4   15      0.00     -0.07
   13    5   13      0.01     -0.27
   16   12    1     -0.95     -0.38
   11   14    2      0.57      0.49
   16   10    7      1.18      0.44
   21    5    7      0.71     -0.15
    9    6   14      0.11     -0.39
    7    7   14      1.02     -0.04
   22    7    2     -1.08     -0.29
    7   14    6     -0.28      1.31
    4    6   15     -0.30      0.27
   20    8    5     -1.27      0.18
    5    2   16      0.42     -0.02
   24    1    4      0.80     -1.34
   14   13    1      0.54     -0.10
   13    1   14      0.17     -0.56
   24    4    0     -1.31     -0.01
   12    6   13     -0.17     -0.46
    2   15    5     -1.67     -0.06
    6    0   16      0.06     -1.01
   13    7   12     -0.52     -0.55
    5   15    4     -0.54     -0.47
    4   13    9      0.01     -0.59
   15   12    4     -0.91     -0.61
   15   10    8     -0.65     -0.45
   19   10    2      1.16      0.80
   12   10   10     -1.29      0.55
   17   10    6     -0.60      0.63
   22    3    7     -0.35     -0.85
   19    9    5      1.60      1.00
   12   13    5      0.27     -0.57
   17    1   12     -1.41     -1.18
   15    2   13     -0.24     -1.38
    6   12   10     -0.76      0.17
   24    4    1      0.24     -0.95
    4    8   14     -1.76     -1.82
   23    6    0     -0.16      0.01
   12    9   11     -0.18      0.68
    4    3   16      0.26     -0.08
   14    4   13      1.45      1.33
    6    1   16      0.61     -0.37
   21    7    5      0.13      0.26
    6    9   13      1.05      0.47
   24    3    3      1.36     -0.77
   16    6   11      0.89      0.45
    8   15    0      0.47     -0.02
   21    8    3     -0.84     -0.62
    0    4   16     -1.19      2.48
   11   13    6     -0.46      0.97
    5   14    7      0.27      0.17
   10    2   15      0.11     -0.57
    9   12    9     -0.86      0.12
   10   14    4      0.78      0.63
   15    7   11      0.96      0.17
   23    6    1     -0.63      1.36
   20    9    3      0.06     -0.96
   16   12    2     -0.79      0.87
   18    3   11      0.91     -0.64
    7    5   15      1.10      0.59
    1    4   16      0.15     -0.47
   23    2    6      0.87     -0.03
    3   15    5     -1.20      1.99
   10   10   11     -0.11     -0.57
    9   14    5     -1.20      1.78
   11   12    8     -0.90      0.53
    8   15    1     -0.39     -0.48
    7   11   11      0.56     -0.89
   16    4   12     -0.53      0.24
    9    8   13     -0.51      0.36
    7   10   12      0.12      0.14
   14   13    2     -0.37      0.04
   13   13    4     -0.69     -0.45
   24    2    4      0.54      1.62
   14    9   10     -0.73      0.30
   18   11    0      0.95     -0.01
   13    2   14     -0.50     -0.28
   20    4    9      1.20      0.91
    2    4   16      1.06     -0.62
    5    6   15     -1.05     -1.04
   17   11    4     -0.45     -1.26
    7   15    3     -0.02     -1.04
   24    4    2     -1.07      0.38
   11    7   13     -0.93     -1.41
   18   11    1     -0.59      1.32
   17    5   11      0.30      0.93
   11   14    3      0.91     -0.66
   10   11   10     -1.65     -0.66
   17    2   12      1.05     -0.52
   23    4    5     -0.30      0.23
   22    7    3      0.09     -1.22
    5   13    9     -0.02     -0.43
   21    4    8     -1.42      0.64
    1   11   12      0.21     -0.54
    6    2   16     -0.46      0.55
    8   13    8      1.20      0.57
   12   11    9     -0.70     -0.06
   10    9   12      0.69     -0.22
   14   10    9      0.16     -0.57
   20    0   10      2.02     -0.61
   11    5   14      0.18      0.85
    5    8   14      1.53      1.22
   18    8    8     -1.99      0.07
   19    7    8     -1.12     -0.54
   23    6    2     -1.05     -1.54
   23    5    4     -0.16     -0.08
   21    1    9      0.09      0.74
   19    4   10      0.95      1.16
    5    3   16      0.49     -0.08
    6   15    4      0.68     -0.49
   22    5    6     -0.74      0.07
   18   10    5     -1.73     -0.76
   12    4   14      2.28      0.26
   12   14    0      0.72     -0.02
   25    1    0      1.08      0.00
    4   15    5      1.15      0.04
   10   13    7      0.04      0.19
   14    8   11      0.76     -0.67
   12    8   12     -0.41     -1.00
    8   15    2     -0.31     -0.28
   19   10    3     -0.81     -2.26
    3    4   16     -1.48     -0.71
   18    7    9     -0.21     -0.04
    0   14    8      0.76      1.30
    2   11   12     -0.70      0.21
    8    7   14     -0.38     -0.28
    8   14    6      0.16      0.38
   20    1   10     -0.27      0.95
   22    0    8     -1.43     -0.42
    1   14    8     -0.20     -0.52
   22    6    5      0.01      0.61
   12   14    1      0.91     -1.00
   25    1    1      1.41     -0.83
   19    8    7      2.01      0.08
   15    3   13     -0.57      0.99
    9    4   15     -1.16      0.02
    1   12   11     -0.28     -0.47
   17    8    9     -0.75      0.42
    6   14    7     -1.54      0.38
    1   10   13     -0.13     -0.03
    0    7   15      0.14     -0.69
    7   12   10      0.57      0.13
    7    1   16      0.03      0.55
    0   16    0     -0.22     -0.03
   22    1    8     -1.18     -0.15
    1    7   15     -0.68      0.63
   18   11    2      0.51      1.73
    7    9   13      1.06     -0.52
   16   12    3     -1.03      0.04
   10    3   15     -1.72      0.06
   20    7    7      1.17      1.64
    2   14    8     -0.59     -0.76
    1   16    0      2.83      0.00
   24    0    5      0.35     -0.63
   10    6   14     -0.42     -0.25
   14   12    6      0.96      1.58
   23    3    6      0.05     -1.45
   11    1   15     -0.08     -0.02
    2   12   11     -0.55     -0.31
   14   13    3      0.97     -0.86
   19    6    9     -0.01     -0.25
    2   10   13      0.35      0.67
    3   11   12     -0.42      0.27
   17    9    8      0.92      1.05
   20    6    8     -0.12     -0.23
   21    2    9     -1.20      0.37
    6    6   15      1.09      0.20
   15   11    7     -1.89     -0.15
    2    7   15      0.73      1.04
   24    3    4      0.31     -0.19
   22    4    7      0.47     -2.32
    1   16    1      0.98     -0.69
   18    9    7      0.79      0.65
   25    2    0      0.67     -0.02
   21    8    4      0.74     -1.88
   24    1    5     -1.80     -0.38
   13    3   14      1.68      0.96
   13   12    7      0.79     -0.22
    8    5   15     -0.99      1.32
    4    4   16     -0.83     -0.40
    2   16    0      1.26      0.03
   24    4    3     -1.67     -0.08
    9   15    0      0.29      0.00
   16   11    6      0.30     -1.40
   20    9    4     -1.20      1.20
    6   13    9      0.57      0.22
   17    7   10     -0.27     -0.49
   20    2   10     -0.19      0.21
   12   14    2      0.14      0.98
    8   11   11     -0.93      0.99
   25    1    2     -0.39      0.60
    5   15    5      0.24     -1.03
    8   10   12      0.10      0.50
   15   12    5      0.75     -0.07
   25    2    1      0.48      0.41
   17    3   12      0.19      0.18
    3   14    8      0.21     -0.21
    1   15    6      0.13      0.38
   18    4   11      0.83     -0.63
   19    1   11      0.34     -0.52
    2   16    1     -1.09     -0.62
   24    5    0     -1.11     -0.01
    6    8   14      1.44     -0.08
    6    3   16      0.73      0.07
   23    6    3      0.01     -0.79
    3   12   11     -0.01      1.11
    9   15    1     -0.04     -0.56
    3   10   13      0.79     -0.71
   10   12    9      0.92     -0.37
    7    2   16      0.73      0.09
   16    0   13     -1.51     -0.83
   22    2    8     -0.20     -0.39
   16    9    9     -0.26     -2.08
   18    6   10      0.40      0.88
    8   15    3      0.62     -0.41
   14   11    8     -0.78      0.62
   20    8    6      0.14      0.67
    3    7   15     -0.83     -1.07
   14    0   14     -0.36      0.46
   15    6   12      0.53      0.60
   24    5    1      1.04      1.60
   10   14    5     -0.25     -0.45
    7   15    4     -0.07     -0.77
   16    8   10      0.31     -0.42
    3   16    0     -0.22     -0.00
   14    5   13      0.12     -1.26
   11    2   15      0.05     -0.52
    0   16    2     -0.54      1.50
    2   15    6     -1.02      0.28
   13    6   13      0.40     -1.37
    4   11   12      0.66     -0.24
   10    8   13     -1.17     -0.37
   11   14    4     -1.12     -0.32
   21    6    7     -0.58      0.88
   21    9    0      1.33     -0.01
   22    7    4      0.30     -0.87
   16    1   13     -0.37     -0.97
    1   16    2     -0.07      0.11
   11   10   11      0.22      1.75
   15   13    0      1.39      0.00
   22    8    0      0.66      0.01
   13   10   10     -0.59     -0.86
   19    9    6      0.18      0.80
   12   13    6     -0.07      0.01
   14    1   14      1.05      0.62
   13   13    5     -1.04     -0.06
   23    1    7      0.30      0.38
    1    5   16      0.07      1.36
   24    2    5      0.92     -0.19
    3   16    1     -0.99      1.25
    9   13    8     -0.43     -1.23
   18   11    3     -0.28     -0.47
   13    9   11      0.84     -1.87
   14    7   12     -0.43     -0.17
   21    9    1      0.53      0.28
   21    7    6     -0.19     -0.32
    7   14    7      1.15      0.73
    8    0   16      0.08      0.61
   16    5   12      0.82      1.06
   19   10    4      1.17      0.42
   25    2    2     -0.77     -1.57
   17   11    5      0.39     -0.17
   15   13    1     -0.32     -1.10
   12   12    8     -0.85      0.67
   22    8    1     -0.83      0.83
   17   12    0      0.59     -0.01
    5    4   16      2.63      0.29
    1   13   10     -0.32      0.74
    4   14    8      0.30      0.86
    2   16    2      0.50     -0.35
    1    9   14      0.34      0.13
   19    2   11      1.29     -0.33
    9   15    2      1.67     -0.55
   20    5    9      1.02      1.54
    4   12   11      1.05     -0.12
    4   10   13     -0.11     -0.12
    2    5   16     -0.90     -1.17
    3   15    6      0.03     -0.39
    8   12   10      0.87     -0.62
    9    7   14     -0.87      0.83
   11   11   10      0.46      1.37
    9   14    6      0.66      0.66
    8    1   16     -0.25      0.49
   17   12    1     -0.16     -0.59
    4    7   15     -0.11     -1.36
    8    9   13     -0.56      0.45
   17   10    7      0.71      0.60
   20   10    0      1.30      0.00
   21    3    9      0.56     -0.82
   24    5    2     -0.52      0.33
   11    9   12     -1.21     -1.08
   25    3    0      0.74      0.01
   15    4   13     -1.07     -0.14
   23    5    5      0.14      0.19
    2   13   10     -0.18     -0.28
    7    6   15      0.01      0.69
    4   16    0     -0.83     -0.03
   16   12    4     -1.59      0.30
    6   15    5      0.27     -1.69
   16   10    8      0.21     -0.28
   12    7   13      0.90      0.13
   21    5    8     -1.89     -1.59
    2    9   14     -0.12      0.45
   12   14    3      0.59      1.17
   25    1    3      0.48      0.34
   16    2   13     -1.09      1.97
   20    3   10     -0.82      0.65
   11   13    7      0.43      0.20
   20   10    1      0.20     -0.56
   10    4   15      0.71     -1.22
   14   13    4     -0.83     -2.20
   19    5   10      0.71     -0.44
    7   13    9     -0.48      0.03
    3   16    2     -0.11      1.42
   25    3    1     -0.86     -0.55
   12    5   14      0.13     -1.22
    5   11   12     -0.32      0.23
    4   16    1      0.74      1.54
   14    2   14      0.49      0.62
   21    9    2     -0.50     -0.14
   23    2    7      0.92     -0.64
   23    7    0     -0.18     -0.01
   23    4    6     -0.19      0.94
   18    0   12     -1.75     -0.16
    3    5   16      0.26     -0.77
    7    8   14     -1.06      0.24
   15   13    2     -0.42      0.03
   13   11    9     -0.96     -0.52
   16    7   11     -0.62     -1.63
   22    8    2      0.23      0.18
    7    3   16     -0.24     -0.30
   22    3    8      1.16     -0.27
   15    9   10     -0.59     -1.02
   24    4    4     -1.25     -1.56
   17    6   11      1.40     -0.45
   23    7    1     -1.44      0.87
   18   10    6      0.32     -0.28
    9    5   15     -0.21     -0.65
    3   13   10     -0.13     -1.08
   13    4   14     -0.66     -0.39
   13   14    0      0.55     -0.01
    4   15    6      0.52     -2.70
   18    1   12      1.20     -0.28
    3    9   14     -0.43      0.11
    1   16    3      0.25      0.17
   11    3   15      1.10     -1.16
   13    8   12      0.74     -0.69
   17   12    2      0.12      0.45
    5   14    8      0.44     -0.80
    9   11   11     -0.94      0.89
   12    0   15      0.66     -1.31
    8    2   16      0.96     -0.58
   11    6   14     -0.17     -1.50
    9   10   12      0.21     -0.36
   23    6    4      0.98     -0.39
    5   12   11      0.36     -1.24
   22    6    6      0.65      0.28
    5   10   13     -0.93     -0.22
   17    4   12     -0.49      0.20
   13   14    1      1.03      0.17
   24    3    5      0.86     -0.36
   10   15    0      0.01      0.01
   15   10    9     -1.37     -0.23
    8   15    4      1.00     -0.33
   25    2    3      0.17      0.26
    6    4   16      1.54     -0.36
    5    7   15      0.86      1.56
   21    8    5      0.46     -0.27
   20   10    2      0.88     -0.25
    2   16    3      0.63     -0.46
   12    1   15      0.69      0.35
   25    3    2     -0.48     -0.40
    9   15    3      0.51     -0.05
    5   16    0     -0.95      0.00
   20    9    5     -0.46     -2.11
    4   16    2     -0.31     -0.27
   22    5    7     -0.52      0.77
   15    8   11      0.97     -2.03
    0    1   17      1.14     -0.40
   10   15    1      0.02      0.28
   19    3   11     -1.63      0.47
    4    5   16      0.08     -0.18
   24    0    6     -0.75     -0.30
    1    1   17     -0.12     -1.00
   24    5    3     -0.02     -0.35
    8   14    7      1.94     -0.38
    2    0   17      1.15     -0.35
    5   16    1     -0.29      0.11
   18   11    4      0.32      2.69
   23    7    2      0.27      0.26
    4   13   10     -0.29     -0.47
   19   11    0     -0.26     -0.00
   11   12    9     -0.43      0.48
    4    9   14      0.59      0.99
   18    5   11     -0.18      1.92
   18    2   12     -1.18      0.14
   24    1    6      0.79      1.66
    7   15    5      0.14      0.21
    6   11   12      0.30     -0.17
    3   16    3     -0.70      0.63
   16    3   13     -0.77      0.50
    2    1   17     -0.99      0.54
   11   14    5      0.50     -0.19
   21    9    3      0.08     -1.31
    5   15    6      0.00      0.44
   13   14    2     -0.32      0.19
   22    7    5      0.68     -0.14
   11    8   13     -0.71     -0.13
   15   12    6      0.35      0.30
   19   11    1     -0.63     -0.62
   10   13    8     -0.44      0.46
   14    3   14     -0.21      1.78
   14   12    7     -0.14      0.50
   23    3    7     -1.48      1.00
   15   13    3      0.25     -0.68
   22    8    3     -0.12      0.78
    8    6   15     -0.29     -0.32
    9   12   10     -1.31      0.62
    9    1   16      0.19     -0.89
   12    2   15      0.67     -0.24
    9    9   13      0.09     -0.61
   12   14    4      0.95     -0.22
   25    1    4      0.45     -0.53
   19    8    8      0.32      0.26
   21    4    9      0.77     -0.30
   10   15    2      0.71      0.48
   19   10    5     -0.46     -0.91
    8   13    9      0.29      0.78
    6   14    8      0.02     -0.41
   25    4    0      0.84     -0.00
   17   12    3     -1.00     -0.96
   12   10   11     -0.40      0.73
   10    7   14      0.19     -1.33
   24    6    0      1.43     -0.00
   10   14    6     -0.30      1.42
    6   12   11     -0.51     -0.22
   18    8    9     -1.02     -0.50
   19    7    9      0.83      0.06
    6   10   13      0.23     -0.27
    1    2   17      0.69      0.23
   16   11    7      0.24      0.34
    5   16    2     -0.82     -1.75
    8    8   14     -0.38      0.68
   20    7    8      0.18     -0.75
    0   15    7      0.06     -0.79
   20    4   10      1.00      1.01
    8    3   16     -0.71      0.28
    3    1   17      1.02      0.71
    6    7   15     -0.36      1.12
    5    5   16      0.45     -0.60
   25    4    1      0.22      0.52
    1   15    7     -0.38     -0.77
   20   10    3      1.31     -0.70
   24    6    1      0.33      0.54
   13   13    6      0.89     -0.38
    6   16    0      0.51      0.02
   24    2    6     -0.50      1.91
   22    0    9      0.18      1.16
   14    6   13     -0.50      0.38
   25    3    3      0.68     -0.13
    0   16    4      0.71     -0.73
    4   16    3     -1.14      0.58
   16   12    5     -1.26      2.32
    1   14    9      0.12      0.12
    7    4   16     -1.51      1.16
    5   13   10     -0.56      0.15
   15   11    8      0.27      0.39
    2    2   17     -0.04     -0.33
   22    4    8     -0.41      0.15
    1    8   15      0.85      0.50
   19   11    2     -1.21      0.79
    0    6   16      1.65      1.68
    1   16    4     -0.08     -0.99
    5    9   14     -0.26     -1.50
   18    9    8      0.09     -1.52
   20    8    7     -1.90     -1.81
   12   11   10     -0.03      0.50
   17   11    6     -0.25     -0.46
   13   12    8     -0.71     -0.04
   14   10   10      0.24     -0.87
   15    5   13     -0.63      1.36
   14   13    5      0.07     -0.08
    1    6   16     -1.26      0.83
    6   16    1     -1.05     -0.39
   14    9   11      0.38     -1.23
   12    9   12     -1.69     -0.41
    2   15    7     -1.19      0.68
   22    1    9      0.88      1.39
   21    1   10     -0.54     -0.03
   11    4   15     -0.15     -0.10
   23    7    3     -0.25      0.43
    4    0   17      0.62      0.85
    9    2   16     -1.75     -0.11
    2   14    9     -0.23      0.52
   16    6   12     -0.96     -0.53
   25    2    4      0.72     -0.85
   10    5   15     -0.24     -0.66
   18    7   10      0.88     -0.08
   15    1   14      0.38      0.88
    2    8   15     -1.05     -0.16
    2   16    4     -0.75      0.48
   19    9    7      0.44      0.61
   12   13    7      0.46      0.88
   15    7   12     -0.02      0.19
   24    4    5      0.28      0.77
    9   15    4      0.70      1.87
   23    5    6      0.58      0.93
   17    9    9     -0.32      0.32
   20    6    9      0.52      0.45
   18    3   12     -1.00      0.57
    6   15    6     -0.52      2.51
   10   11   11     -0.08     -0.64
    2    6   16     -1.31      0.07
   13    7   13      0.54      1.06
   10   10   12      0.92     -0.52
   13   14    3      0.28      0.29
   16   13    0     -0.87     -0.01
   21    7    7     -0.43     -1.01
    4    1   17      1.70     -1.02
   17    8   10      1.53      0.88
    3    2   17     -0.19     -0.66
   25    4    2      0.08     -1.15
    7   11   12      0.73     -0.04
   24    6    2     -0.52     -0.76
   24    5    4      1.67      1.29
   20    0   11     -2.03      0.07
   17    1   13     -0.57      1.42
   23    6    5      0.67      0.41
   19    4   11     -1.74      0.30
   13    5   14      0.28     -0.07
   21    6    8     -0.70     -0.74
    3   15    7      0.31      1.53
   16   13    1     -1.09     -0.07
   10   15    3      0.58      0.80
    9   14    7     -1.57     -2.04
    8   15    5     -0.02      0.39
   12    3   15      1.05      0.09
    3   14    9     -0.32     -0.52
   11   15    0     -1.35      0.00
   26    0    0      1.29     -0.01
   19    6   10     -0.52      1.11
   23    1    8     -0.16      0.30
    3    8   15      0.05     -0.53
    6   16    2     -0.76      0.34
   20    1   11     -0.03     -0.53
    3   16    4     -0.34      0.38
   12    6   14      0.04      0.67
    0    3   17     -1.00      0.24
    5   16    3     -1.16     -0.67
   17    5   12      0.02     -0.18
   21    9    4     -0.65      0.48
   22    2    9      0.09      0.56
   21    2   10      0.75      0.66
    7   14    8     -0.56      1.03
    6    5   16      1.26      1.89
    3    6   16     -0.04     -1.53
    1    3   17     -0.38      0.95
   14   11    9     -0.76     -1.37
   15   13    4     -0.95     -1.28
   22    8    4     -1.11     -0.56
    7   12   11     -0.36      0.90
   11   15    1      0.99     -0.72
   16    4   13     -1.58      0.34
   26    0    1     -2.40     -2.56
    7   10   13      1.05      0.39
   26    1    0     -2.35      0.00
   15    2   14      0.34      1.01
   18   11    5      0.21      1.68
   18   12    0      0.49      0.01
    6   13   10      0.95      0.92
   14    4   14     -0.49      0.95
    9    6   15     -0.39     -0.21
   14   14    0      0.94      0.01
    7    7   15      0.52     -0.30
   23    4    7     -1.87      0.03
    6    9   14      0.21     -0.33
   24    3    6      0.09      0.16
   10    0   16     -0.31     -1.06
   19   11    3      0.60     -1.85
   14    8   12      0.65     -0.52
   21    8    6      0.87      1.05
    4    2   17      0.64      0.06
    7   16    0     -0.10     -0.00
   17   12    4      0.17      0.52
   17   10    8      0.46     -0.74
    2    3   17      1.27     -0.67
   26    1    1      0.51      0.25
   13    1   15      0.30     -0.78
    0   11   13     -0.37      1.06
    9   13    9     -0.12     -0.15
    0   12   12      0.44      0.29
   20    9    6     -0.14      2.88
   18   12    1      0.14     -0.83
   18   10    7     -0.74      0.07
   17    2   13     -0.35      1.30
   10   12   10      0.14      0.57
   14   14    1     -0.66      0.80
   16   13    2      1.28      0.89
    4   15    7      1.05     -0.38
    5    1   17      0.89     -0.67
    1   11   13      0.68     -0.10
   10    1   16     -0.57     -0.43
   16    9   10      0.95     -0.77
    1   12   12     -1.08      0.40
   10    9   13     -0.81      0.44
   12   12    9     -0.48      1.25
    7   16    1      0.97     -0.57
    9    8   14      0.42     -0.92
   11   13    8     -0.42      0.91
    4   14    9     -0.61     -0.73
   20   10    4     -0.28      0.62
    9    3   16      0.06     -0.51
    8    4   16     -2.22     -0.61
    4    8   15     -0.22     -0.67
   25    3    4      0.63      0.42
    4   16    4      0.88     -0.26
   22    6    7     -0.92     -0.04
   22    9    0     -0.52      0.00
   23    2    8     -1.20     -0.59
   17    7   11     -0.92     -0.89
   20    2   11     -1.05     -0.03
   12   14    5     -1.01      0.39
   25    1    5      0.51     -0.74
    4    6   16      1.95     -0.89
   12    8   13      0.54     -0.53
   25    4    3     -0.20      0.43
   11   15    2     -0.50     -0.25
   26    0    2      0.20      1.84
   24    6    3      0.54      0.46
    2   11   13      0.18     -0.71
    2   12   12     -0.42     -1.16
    7   15    6     -0.24     -1.08
    3    3   17     -0.79     -2.27
   11    7   14     -0.09     -0.26
   26    2    0      1.64      0.00
   11   14    6      0.02     -1.56
   22    9    1     -1.52      0.37
   16   10    9     -1.25     -0.87
   23    7    4     -0.10     -0.23
   21    5    9      0.30      0.80
   22    7    6      0.31      1.32
   25    5    0      2.28     -0.00
   18    6   11     -0.60     -1.40
   23    8    0     -1.70     -0.00
   24    0    7     -0.77      0.86
   26    1    2     -1.64      2.27
   21   10    0      1.60      0.00
    6   16    3      0.53     -0.57
   16    8   11      0.11     -0.15
   26    2    1      0.81      0.61
   20    5   10     -0.61      0.41
   18   12    2      0.22      0.37
   13    2   15      1.25      0.58
   14   14    2     -1.03     -0.81
    8   11   12      0.25      0.44
   13   14    4      0.05     -0.26
   25    5    1     -1.62     -0.69
    1   16    5     -0.15      0.18
   23    8    1     -0.45      0.99
   19   10    6     -0.98     -0.83
    5    2   17     -0.51     -0.32
   24    1    7      0.02      0.17
    7   16    2     -0.11      0.32
   18    4   12     -1.72      1.46
   19    1   12     -1.53      0.96
   22    3    9      0.52      0.41
   10    2   16     -0.60      0.10
   21    3   10      0.04      1.35
   13   10   11      0.27     -1.92
   21   10    1     -1.23      1.24
    3   11   13      0.22      0.75
    3   12   12      0.11     -0.69
    7    5   16     -0.82     -1.29
    6    0   17      0.40     -1.89
    0   10   14      0.84      0.21
   22    5    8     -2.75     -0.39
    0   13   11      0.80      1.21
    5   15    7     -1.50     -1.55
   15    3   14     -1.71      0.76
   15   12    7     -0.63      0.39
   10   15    4     -0.51      0.13
   25    2    5     -1.02      1.19
    1   10   14     -0.14      0.10
    1   13   11     -0.31     -0.23
    5   14    9     -0.15      0.38
    2   16    5      0.43      0.51
   11    5   15      0.12     -0.43
    7   13   10      0.74      0.70
    8   14    8      0.16     -0.67
    5    8   15     -0.70     -0.09
    9   15    5      0.76     -0.14
    5   16    4     -0.19     -0.33
    7    9   14      0.92      0.31
   16   12    6     -1.00     -1.57
    4    3   17      0.15     -0.19
   22    9    2      0.71     -0.92
    6    1   17     -2.23      0.86
   12    4   15      0.08      0.95
    8   12   11      0.45     -0.38
   16   13    3     -0.32      0.14
    8   10   13     -0.32     -0.87
   11   11   11      0.46      0.28
    5    6   16      0.16      1.62
   11   10   12     -0.08     -0.07
   13   11   10     -1.72     -1.14
   17    3   13     -0.95      0.68
   24    5    5     -0.06      0.56
   14   13    6     -0.51      0.31
   10   14    7     -0.63      0.69
    8    7   15     -0.73     -1.43
    2   10   14     -0.64     -0.54
    2   13   11     -0.94     -0.77
   13    9   12      1.18     -0.44
   26    2    2     -0.87     -0.11
    1    4   17     -0.19     -0.56
    8   16    0     -1.29     -0.01
   19   11    4     -1.19      0.91
   25    5    2     -0.60      0.56
   23    8    2      0.14     -0.12
   14   12    8     -0.64     -0.41
   23    3    8     -0.45     -1.31
   20    3   11     -0.24      1.22
   11   15    3     -1.01      1.26
   26    0    3     -2.44     -0.61
   15    6   13      0.43     -0.22
   21   10    2     -0.38     -1.71
   19    5   11     -1.23     -1.90
   13   13    7     -0.73     -0.18
   24    2    7      0.48     -0.79
   24    7    0     -0.33      0.00
   24    4    6      1.04      1.40
   19    2   12     -0.71     -0.10
    3   16    5     -0.32      0.05
    4   11   13      0.26     -0.57
    4   12   12      0.26      1.10
   21    9    5     -1.43      0.07
    8   16    1     -0.38     -0.35
    2    4   17     -1.19     -1.62
   15   10   10      0.41      0.75
   26    3    0      1.10     -0.00
   10    6   15      0.66      0.16
   17   11    7      1.19      0.20
   20   11    0     -1.65      0.00
   15   13    5      0.31      1.66
   22    8    5      0.16      0.84
   15    9   11     -0.17      0.89
   26    1    3      0.24     -0.75
   12   15    0     -0.97     -0.01
   24    7    1     -0.59     -0.17
   23    6    6      0.69      0.67
   16   11    8      0.25     -1.46
    3   10   14     -0.50      0.44
   18   12    3      2.07     -1.82
   14    7   13      0.91     -0.71
   14   14    3      0.21     -0.02
    3   13   11      0.24     -0.22
   16    0   14      0.67      1.08
    9    4   16      0.26     -0.34
   10   13    9     -0.27     -0.07
    6    2   17      0.22     -0.34
   16    5   13     -1.31      1.08
   26    3    1     -1.44      0.80
    8   15    6      1.87      0.67
   20   11    1     -0.02     -0.14
   25    4    4     -0.15     -0.78
    7   16    3      1.67     -0.21
   13    3   15      0.43      0.82
   17   12    5      0.48      1.03
    1   15    8      0.36      0.42
   24    6    4     -0.69     -0.20
   12   15    1      0.44     -0.92
   14    5   14     -0.90      1.69
   23    5    7      0.33     -0.45
    1    7   16     -0.43      0.98
   13    6   14     -0.38      0.64
    5    3   17      1.04      2.06
   10    8   14     -0.40      0.61
    6   15    7      1.80      0.49
   10    3   16     -0.52      0.13
   19    8    9      0.35      0.71
   16    1   14     -0.48      0.53
   11   12   10     -0.35     -0.78
   20    8    8      0.90     -1.44
    6   14    9      0.40     -0.09
   16    7   12      1.63      0.04
    3    4   17      1.06     -0.00
   11    1   16     -0.52     -0.30
   20   10    5      2.88      1.78
    6    8   15      1.95      1.33
   11    9   13     -0.32      0.96
    6   16    4     -0.42     -0.36
   25    3    5      0.69      0.85
    2   15    8      1.09      0.37
   17    6   12      1.46     -0.78
   18   11    6     -1.44      1.52
    4   16    5     -0.57     -0.54
   22    9    3     -1.26      0.18
   20    7    9      1.08      1.39
    8   16    2      0.55     -0.60
    6    6   16     -1.45     -0.18
    2    7   16     -1.29     -0.23
    8    5   16     -0.33     -0.70
    9   11   12     -0.74      0.15
   14    0   15      0.75     -0.00
   19    9    8     -2.69     -1.58
   12   13    8      0.65      0.86
   17   13    0     -1.75     -0.01
   24    7    2      0.44     -0.22
    7    1   17     -0.78     -0.34
    5   11   13     -0.43     -0.82
   26    2    3      0.31      1.01
    5   12   12      0.06      0.65
   23    7    5     -0.76     -0.29
    4   10   14      0.47      0.59
   18    0   13     -0.08      2.13
   21    7    8      0.67     -0.25
    4   13   11      0.69     -0.00
   15   11    9      0.35     -0.52
   22    4    9     -0.44     -0.98
   21    4   10     -0.92     -1.01
   25    5    3      0.01      0.69
   18    9    9      1.12      2.37
   23    8    3     -0.04     -0.32
   26    3    2     -0.36      1.06
    8   13   10     -0.02     -0.33
   20   11    2     -0.34     -1.91
   13   12    9     -0.65     -0.66
    8    9   14     -0.42      0.22
   12   15    2     -1.32     -0.54
   21   10    3     -0.33      1.68
   14    1   15     -0.39      0.18
   17   13    1     -0.75      0.49
   18    8   10      0.88      0.74
   19    7   10      1.12     -0.20
   15    4   14      0.19      2.97
   15   14    0      0.54      0.01
   12    7   14      0.99      0.22
    3   15    8     -0.57      0.24
   12   14    6      0.57     -0.65
   15    8   12     -1.27     -0.11
   25    1    6     -0.34      0.22
   13   14    5     -0.06     -0.10
   16   13    4      0.74      2.37
   24    3    7     -0.52      0.88
   18    1   13     -0.17      0.24
   19    3   12     -1.87     -0.17
    0    9   15      0.50      2.46
    9   14    8     -0.07     -0.07
   13    8   13      1.48     -0.18
    3    7   16      1.41     -1.08
   16    2   14     -0.52      0.69
   21    8    7     -0.86      0.34
    0   14   10      1.12      1.26
    4    4   17     -0.18      0.24
    9   12   11     -1.07      0.44
    1    9   15      0.57     -0.79
    9   10   13     -1.26      0.55
   22    0   10     -1.98      1.08
   11    2   16      0.98     -0.34
   15   14    1     -2.09     -0.60
   20    9    7      1.50     -0.10
    1   14   10     -1.52      0.68
   17    4   13     -0.85      0.82
    9    7   15      0.18     -0.03
   10   15    5     -0.80      2.46
   18    5   12     -1.01     -0.33
   11   15    4      0.48     -0.78
   26    0    4      0.84     -1.04
    9   16    0      0.79      0.01
    6    3   17     -0.96      1.31
    0   16    6     -0.13     -1.60
   22    1   10      0.76     -0.91
    5   16    5      0.65     -1.12
   21    6    9     -0.22      1.79
    2    9   15      0.91     -1.40
    7    2   17      0.14      1.31
   23    4    8      0.67      0.79
   20    4   11     -1.55      0.19
    1   17    0      0.32      0.00
   25    6    0     -0.83      0.00
    2   14   10     -1.64     -0.95
    1   16    6     -1.18     -0.76
    9   16    1     -0.81     -0.88
   26    1    4      0.09      0.32
   17   13    2     -0.36      0.43
    7   15    7      1.61      1.50
   23    1    9     -0.17     -0.54
    0   17    1      1.17      0.62
   12    5   15     -0.23      1.02
   17    9   10      1.49      0.85
   20    6   10      0.53     -0.82
   11   14    7     -0.15      1.78
   18   12    4      1.24      0.49
   14    2   15      0.27      0.31
   26    4    0      1.70      0.02
    5   10   14      1.23     -0.05
   18   10    8      0.15     -0.08
   14   14    4     -1.31     -1.85
    8   16    3      0.74     -0.74
   22    7    7     -0.18     -2.05
    5   13   11      0.47     -0.17
    7   14    9      0.72     -0.16
    4   15    8     -0.35     -1.69
    1   17    1     -1.47     -1.30
   19   11    5     -0.12      0.96
   25    6    1     -0.23     -1.06
   19   12    0     -1.81     -0.00
    0    5   17     -0.44      0.96
   25    2    6     -1.00      1.80
    7    8   15     -0.31     -0.20
   12   11   11      0.94      0.39
   18    2   13     -1.61     -0.33
    7   16    4      0.96     -1.01
    4    7   16      0.02      0.12
   14   10   11      0.67     -1.21
   12   10   12     -0.48     -0.28
    2   17    0     -0.09     -0.00
    2   16    6      0.82      1.41
    6   11   13      0.40     -0.20
    1    5   17     -3.15     -1.13
   24    7    3      0.33     -0.72
    6   12   12     -0.58     -0.85
    9   15    6     -0.29      0.98
   15   14    2      0.53      0.52
   21    1   11     -1.23      0.25
    7    6   16      0.86     -0.27
   26    4    1     -0.40     -0.52
   22    6    8      0.89     -0.94
   13    4   15      1.17      0.67
    3    9   15     -0.98     -0.18
   19   12    1     -0.34      1.88
    8    0   17     -0.79      1.24
   26    3    3     -1.07      0.57
   19   10    7      0.65     -0.13
   20   11    3      0.00     -0.24
    3   14   10      1.22     -0.71
   18    7   11      0.97      1.86
    5    4   17     -0.07      0.72
    2   17    1     -0.43     -0.86
   17   10    9      1.02     -1.00
   24    5    6      1.05      2.27
   10    4   16      1.72      0.66
   12   15    3      0.55     -0.34
   11    6   15     -0.50      0.16
   22    9    4      1.89     -0.88
    2    5   17     -0.17     -1.29
   22    2   10     -0.18     -0.46
   17    8   11      0.58     -0.07
   14   11   10     -0.68     -0.75
   24    0    8      0.34      0.57
    8    1   17      1.23     -0.37
   25    4    5      0.17      0.20
   11   13    9      0.32      0.24
   24    6    5      1.42      0.04
    9   16    2      0.30     -0.06
    3   17    0      0.61     -0.01
   14    9   12      0.12     -0.81
    3   16    6      0.91     -0.58
   16    3   14      0.48      0.80
   26    2    4      0.71     -0.61
   16   12    7     -0.48     -0.41
   21    9    6     -0.67      0.34
   23    2    9      1.00     -0.09
    9    5   16      0.09      1.64
   11    8   14      0.34     -0.20
    1   17    2     -0.58     -0.01
   25    6    2      1.96      0.28
   25    5    4     -0.57     -0.49
   11    3   16      0.24      0.62
   23    8    4      0.06      1.01
   15   13    6      0.27     -0.54
   22    8    6     -0.06     -1.28
   24    1    8     -0.27      0.12
   12    0   16     -0.08      0.45
   14   13    7     -0.73      0.02
   19    6   11     -0.10      2.05
   21   10    4     -0.45      0.46
   13   15    0      2.25      0.00
    6   16    5      0.14      0.88
    3   17    1      1.11      1.60
    9   13   10     -0.01     -0.70
   26    4    2      0.67      1.57
   10   11   12      0.58     -0.96
    9    9   14     -0.52      1.06
    5   15    8      0.49     -0.22
   21    2   11     -0.72      0.53
   15   12    8      0.20      0.17
    3    5   17      0.62     -0.44
   19   12    2      0.58     -0.21
    4    9   15     -0.98      0.17
   12   12   10     -0.44     -0.46
    5    7   16     -0.27      0.35
   17   12    6     -1.12      0.91
    7    3   17     -0.27     -1.88
    2   17    2      0.40      0.65
    4   14   10      0.43      0.62
   20    0   12     -0.59      0.73
   13   15    1      0.19      0.96
   17   13    3      0.66     -1.00
   12    1   16      0.97      0.27
   24    4    7     -1.64      1.52
   12    9   13      0.36     -0.43
    6   10   14     -0.53     -1.12
   19    4   12     -0.50     -0.10
    6   13   11     -0.42      0.12
   16    6   13     -0.36      0.53
   14    3   15      1.18      0.77
   20   10    6      0.54     -0.07
   10   14    8     -0.50      0.61
    8    2   17      0.07     -0.40
   20    1   12     -0.47      0.52
   15    7   13     -0.82      0.06
   14    6   14      0.01      0.05
   25    3    6      0.07      1.72
   23    6    7      0.54     -0.88
   23    9    0      0.25      0.00
    4   17    0      1.02     -0.00
   15   14    3      0.83     -0.48
    4   16    6     -0.74     -0.20
   18    3   13     -0.96      0.43
   22    5    9     -0.37      0.49
   16   10   10      0.07      0.49
   21    5   10      0.38     -1.07
   10   12   11     -0.26      0.46
   10   10   13      1.17      0.64
   16   13    5      0.77      0.74
   16    9   11      0.93     -0.93
    8   15    7     -1.58     -0.54
    6    4   17     -0.11      0.16
    7   11   13      0.59      0.57
    7   12   12      1.26     -0.06
   10    7   15      0.17      0.80
   15    5   14     -0.13      0.68
   22   10    0     -0.88     -0.00
   13   13    8      0.28     -0.35
   24    2    8     -0.87     -0.35
    3   17    2      0.71      0.80
    8   14    9     -1.03     -0.15
   23    9    1     -0.51      0.85
    4   17    1     -0.55      1.97
   23    7    6      0.85     -0.81
   10   16    0      0.22      0.02
    8    8   15     -0.79      0.22
   27    1    0      1.32      0.00
    8   16    4      0.14     -0.04
    4    5   17      2.02      0.51
   17   11    8      0.10     -1.05
   11   15    5     -1.19     -0.19
    8    6   16      0.47     -0.79
   26    0    5      0.58      0.92
   22    3   10      0.17     -0.39
    9   16    3      0.28      0.43
   22   10    1     -0.49      1.09
   13   15    2     -1.16      0.38
   24    7    4      1.49      0.34
    0   17    3      1.08      0.33
   18   11    7      0.16     -0.41
   17    5   13     -0.02     -0.22
   12    2   16      0.32     -1.08
   10   16    1      1.15      0.23
   27    1    1     -1.11      0.08
   13    7   14      0.13      0.69
   24    8    0     -0.64     -0.01
   13   14    6     -0.43      0.37
    1   17    3      0.16      0.01
   25    6    3      0.57     -0.19
    5    9   15      0.61      0.09
   26    3    4      0.95      0.48
   14   12    9      0.49     -0.99
   23    3    9     -0.27      1.15
   20   11    4      0.34     -0.54
    5   14   10     -0.75      0.28
   26    1    5      0.48      0.98
   12   15    4     -0.20      0.01
   17    1   14      0.30      0.50
   23    5    8      0.09      1.36
   20    5   11     -0.20     -1.13
   18   12    5      1.55     -1.57
   26    4    3      2.78     -1.54
    6   15    8      0.09      1.38
   17    7   12     -0.86     -0.25
   20    2   12     -0.94      0.41
   14   14    5     -0.81      0.92
   24    8    1     -0.12      0.12
   10   15    6     -0.92     -0.04
   19   12    3      0.28      0.00
   14    8   13     -0.78      0.86
    6    7   16      1.17      0.68
    7   16    5     -0.10     -0.96
   15    1   15      1.52      0.67
    2   17    3     -1.18     -0.16
   21    3   11      0.06     -0.22
    1    1   18      0.89     -0.47
    0    8   16     -2.42      0.38
   26    5    0     -0.04     -0.00
    5   17    0      0.10      0.01
   23    9    2      0.90      0.31
    4   17    2     -0.72     -0.51
   16   11    9     -0.62     -0.09
    5   16    6     -1.93     -0.02
    9    1   17     -0.21      0.08
    0   15    9      0.70     -0.37
   12   14    7      0.33     -1.28
   25    1    7     -1.73     -0.98
    1    8   16      0.01     -0.81
   27    2    0     -1.75      0.02
    1   12   13     -0.17      0.22
   18    6   12     -0.55      0.71
   16    4   14     -0.65     -0.41
    1   15    9     -1.06      1.40
   16   14    0     -0.85     -0.01
   21   11    0      0.79      0.00
    7   10   14     -0.69      0.61
   22   10    2      0.74      0.58
    7   13   11      0.27     -0.90
   26    5    1     -0.86     -1.23
   16    8   12     -0.56      1.03
    5   17    1     -1.82     -0.84
   13    5   15     -0.28      1.34
   11    4   16     -0.29     -0.40
    2    1   18     -1.32     -0.13
   22    9    5     -0.12      0.73
   10   16    2      1.22     -0.82
   27    1    2     -0.61      1.52
    8    3   17     -0.62     -0.19
   18   13    0     -0.13     -0.00
   19   11    6      1.32      0.35
   27    2    1     -0.81      0.33
    5    5   17     -1.90     -0.33
   20    8    9      1.11     -0.17
   10    5   16     -1.45      0.25
   13   11   11     -0.06     -0.63
    2    8   16      1.44     -0.10
   16   14    1     -0.70      0.37
   21   11    1     -0.98      0.28
   13   10   12     -0.79     -0.82
    2   12   13      0.36     -0.02
   17   13    4      0.35      0.39
    3   17    3     -0.40     -0.62
   12    6   15     -1.09      0.51
    2   15    9     -1.00     -0.08
   26    2    5     -1.21      0.08
   17    2   14     -0.36      0.38
   24    8    2     -1.49     -0.15
    7    4   17     -0.63      0.16
   18   13    1     -0.12      0.83
   24    3    8     -1.98      0.32
   25    5    5      0.70      1.26
   10   13   10     -1.34      0.24
    1   11   14      0.33      0.18
    1   16    7     -0.81     -0.27
   23    8    5      0.45      1.07
    0    2   18     -0.50     -1.24
   10    9   14      0.23      0.26
   21    8    8     -2.40      0.26
    1   13   12     -0.66     -0.37
   19    9    9     -0.17     -0.09
   21   10    5     -0.33      0.03
   12   13    9     -0.72     -0.07
    1    6   17     -0.80      0.03
   13   15    3      0.83      0.31
   15    2   15      0.01      0.88
   15   14    4      0.08      0.88
    1    2   18     -0.88      1.46
   20    9    8     -0.66      1.30
   14    4   15     -0.91      0.18
    8   11   13     -0.58      0.51
    3    1   18      0.46     -0.73
    8   12   12      0.72      0.82
   21    7    9     -0.41     -0.27
   19    8   10     -0.19     -0.93
    6    9   15     -0.12     -0.18
    9    2   17     -0.70     -0.12
   11   11   12      0.90     -0.46
   15   10   11      0.40      0.25
   12    8   14      0.20     -0.30
   25    2    7     -1.67     -0.08
   25    7    0     -0.66      0.01
    6   14   10     -0.20     -0.03
   12    3   16      1.43     -0.44
   25    4    6      0.51     -0.46
   18    4   13      0.44      0.23
   19    1   13     -0.43      0.47
   24    6    6     -0.31     -0.71
    2   11   14     -0.14     -0.21
    2   16    7      1.05      0.65
    3    8   16     -1.80      1.02
   26    5    2     -0.08     -1.00
    5   17    2     -0.56     -0.08
    3   12   13      0.42     -0.37
    9   15    7     -0.59     -0.89
    2   13   12     -0.45      0.36
    2    6   17     -1.00     -1.06
   20    7   10      0.69     -0.24
    3   15    9      0.41     -1.46
    2    2   18      0.95      0.49
    9   14    9      0.11      0.59
   27    2    2     -0.02      0.30
   25    7    1      0.41     -0.61
   20    3   12      0.10     -0.78
    9    8   15      0.51      0.27
   16   14    2      0.16      1.34
   21   11    2      2.76     -0.74
    9   16    4      0.71      0.38
   24    5    7      0.06     -2.39
    6   17    0     -2.08      0.01
   19    5   12     -1.40      1.61
    7   15    8     -0.70     -0.79
    6   16    6     -0.04     -0.50
   23    9    3     -0.20      1.50
    4   17    3     -0.35      0.15
   11   14    8      1.04      0.20
    9    6   16     -0.73      0.63
    7    7   16     -0.18     -0.94
    4    0   18      1.34      2.07
   22    7    8     -2.75      1.34
   18   13    2      0.30     -0.44
   15   11   10      0.63      0.46
   22    4   10     -1.25     -1.50
    1   17    4      0.19     -0.30
   25    6    4      1.30      0.22
   11   12   11      1.53     -0.66
   18    9   10      0.82      1.65
   11   10   13     -0.33     -0.46
   13   12   10     -0.50      0.14
   15    9   12     -0.17      0.47
   14   15    0      1.96      0.01
   22   10    3     -1.12     -0.05
    6   17    1      0.21     -1.41
   27    3    0      0.51     -0.00
   13    1   16      1.05     -0.40
    3   11   14     -0.10     -0.85
    3   16    7      0.26      0.69
   11    7   15     -0.72      0.57
   13    9   13     -0.28     -0.79
   26    4    4     -0.12      2.15
   21    9    7     -1.63     -1.05
   10   16    3     -0.51      0.51
   27    1    3      0.04      0.08
   23    4    9     -0.82      0.14
    3   13   12      1.26     -0.76
    8   16    5      0.64     -0.44
    6    5   17     -1.18      0.59
    4    1   18      0.61      0.66
    3    6   17      1.49     -0.33
   11   16    0     -0.78     -0.01
   19   12    4      0.77      1.38
   19   10    8     -0.12     -0.90
    3    2   18      0.09     -0.39
   15   13    7     -0.51     -0.54
   22    8    7      0.74     -0.38
    2   17    4     -0.27      0.31
   14   15    1     -1.10      0.43
   27    3    1      0.42      0.43
   24    7    5      0.15      0.83
   19    2   13      0.19      0.16
    4    8   16      0.58     -0.03
    4   12   13      0.66      0.90
   18   10    9      0.45      1.69
   24    8    3      0.97     -0.88
   16   13    6      1.62      0.45
    4   15    9      0.78      0.25
   21    4   11      1.01      0.42
   10    0   17     -0.56     -1.36
    8   10   14      0.73      0.36
   11   16    1      0.75      1.13
   26    3    5     -1.07      0.79
    8   13   11     -0.19      0.43
   25    7    2     -1.20     -0.44
   20   11    5     -1.29     -2.49
   17    3   14      0.48     -0.59
   17   12    7     -0.89      0.83
   20   12    0     -0.23      0.00
   12   15    5      0.19     -0.98
   18    8   11      0.03     -0.69
   19    7   11      0.40     -0.20
   16   12    8      1.45      0.50
   22    6    9     -0.91     -0.40
   21    6   10      0.49      0.10
   15    3   15     -1.47      0.19
    1    3   18     -0.43     -0.23
   10    1   17     -0.74      0.88
    1   10   15      0.43      0.69
   20   12    1     -0.56      1.14
   11   15    6     -0.03      0.19
   26    0    6      0.54      0.81
   20   10    7     -0.26     -0.24
   15    6   14     -0.91      0.45
    9    3   17      0.30      1.56
   14   13    8     -0.80     -0.83
    6   17    2     -0.48     -0.86
   23    1   10     -0.56     -0.63
    8    4   17      1.11      0.92
    3   17    4     -0.57      0.31
   22    0   11      0.08     -0.36
   26    5    3      1.11      0.97
    5   17    3     -0.17      0.35
   25    3    7      1.22     -0.70
    4   11   14     -0.13      0.10
    7    9   15      1.01      0.85
    4   16    7     -2.38      0.23
    1   14   11     -0.09     -0.21
   13    2   16      1.19      1.17
    7   14   10      0.63     -0.04
    4   13   12      0.73     -0.14
   27    2    3      0.93     -0.08
    4    6   17     -1.93     -0.02
   24    0    9     -1.14     -1.99
   16    7   13     -0.39      0.15
    4    2   18      0.16     -1.26
   16   14    3     -0.00     -0.86
   21   11    3     -0.45      0.24
    2    3   18     -0.34      0.80
   14   15    2      0.63      0.80
   26    1    6      0.28     -1.20
   13   15    4     -0.64     -0.35
    2   10   15     -0.42     -0.13
   27    3    2      0.62      1.40
   24    4    8      0.51      1.17
   22    1   11      0.11      1.05
   17    6   13     -1.04     -0.36
   18   12    6      0.58     -0.06
   14    7   14     -2.13     -0.82
   23    7    7      0.56      0.38
   14   14    6      0.85      0.55
   18   13    3      0.36     -0.44
    5    1   18     -1.19     -0.05
    2   14   11      0.23     -0.62
   11   16    2     -0.40      0.52
   16    5   14      0.20      0.16
    7   17    0     -0.63     -0.02
   24    1    9     -0.38     -0.81
    7   16    6      2.48      1.06
   17   10   10      1.70     -0.64
    9   11   13     -0.09     -1.29
    9   12   12     -0.87     -1.05
   17   13    5      1.42     -0.12
   11    5   16     -0.33     -0.04
    5    8   16      1.34     -0.38
   23    6    8     -1.42      1.31
   17    9   11      1.29     -0.97
   20    6   11     -0.14      0.05
    5   12   13     -0.09     -0.66
   12    4   16     -0.97      0.28
    5   15    9     -1.01      0.48
   13   14    7      1.35     -0.32
   15   12    9     -1.29     -0.97
    8   15    8     -1.52     -0.52
    7   17    1      0.51      1.10
   20   12    2      1.38     -1.08
   11   13   10      0.72     -0.47
   10    2   17     -1.08      0.37
    8    7   16     -0.57     -0.08
   11    9   14      0.43     -0.18
   26    6    0     -2.21      0.01
    3    3   18      0.57      0.02
   23    9    4      0.80     -0.23
    4   17    4      0.68     -0.38
   15   14    5      0.64      0.13
    7    5   17      2.15      1.80
    3   10   15      0.24     -1.05
   22    9    6      0.62     -0.94
   23    2   10     -0.66      0.16
   16    0   15      0.77      1.25
   20    4   12      0.86     -0.87
   15    8   13      0.70      0.36
   10   15    7     -0.58      0.07
   19    3   13      0.14     -0.83
   25    7    3      1.30     -1.82
    3   14   11     -0.46      0.17
   10   14    9      0.61      0.47
   22   10    4      0.21      0.84
   26    6    1     -0.60     -0.37
   14    5   15      2.16     -0.06
    5   11   14     -0.45      0.71
    5   16    7      1.56     -0.38
   13    6   15      0.42      0.71
   18   11    8     -0.69     -1.41
   26    2    6     -0.43     -0.60
   10    8   15     -0.24     -0.13
   10   16    4      0.11      1.56
   27    1    4      0.17      0.17
   18    0   14      1.14     -0.61
   22    2   11     -0.99     -0.01
    5   13   12     -1.33      0.94
   16    1   15      0.68      0.72
   25    5    6     -0.12     -0.93
    5    6   17      0.77     -0.03
   23    8    6      0.71      0.87
   18    5   13      0.48     -0.39
   27    4    0     -0.18      0.00
   14   11   11      0.41     -0.33
   12   11   12     -0.84     -0.23
   10    6   16     -1.24      1.73
    5    2   18     -1.36      1.35
   14   10   12      0.30      0.18
    9   16    5      0.24      2.51
    6   17    3      0.66      0.07
   21   10    6      0.81      1.38
   13   13    9     -0.11     -0.03
   24    2    9     -0.43     -0.25
    0   17    5     -0.80     -0.52
   21    1   12     -0.20     -0.23
    6    0   18     -4.57     -1.13
   24    8    4     -0.49     -1.19
   18    1   14      0.19     -0.55
    1   17    5     -0.85     -1.01
   19   11    7     -0.37      0.20
   25    6    5     -1.02      1.16
   27    4    1     -0.65      0.43
   13    8   14     -0.14     -0.82
    7   17    2     -0.60     -1.29
   17   11    9     -0.26     -0.03
   18    7   12      0.51      1.20
   13    3   16     -0.53     -0.14
   14   15    3     -0.10     -1.32
    9   10   14      0.13      0.27
   27    3    3     -0.87     -0.24
    9   13   11     -0.81      0.34
    4    3   18     -0.61      0.95
   26    4    5      1.85      1.06
   22    5   10     -0.03     -0.28
    4   10   15      0.19     -0.54
    6    1   18     -0.31      0.21
   12   14    8     -0.30     -0.60
   17    4   14      0.70     -1.43
   17   14    0     -0.11     -0.01
   25    1    8     -1.14     -0.42
   11   16    3     -0.54     -0.16
   19   12    5      0.67     -0.24
   17    8   12      1.24      1.34
   12   12   11     -0.19     -0.25
    0    4   18     -1.23      0.97
    8    9   15      0.46      0.47
   12   10   13     -0.45     -0.02
    2   17    5      1.02      0.27
    4   14   11      0.70     -0.05
    6    8   16      0.50     -0.08
   26    6    2      0.43      1.30
    8   14   10      0.65     -0.48
   26    5    4     -0.12     -1.98
    6   12   13     -0.55     -1.20
    5   17    4      1.22     -0.54
   15    4   15      1.49      0.28
   23    5    9      0.72      0.21
    1    4   18      0.79     -2.06
    6   15    9     -0.24      0.22
   12    7   15     -0.16      0.40
   17   14    1      0.73      1.34
    9    4   17     -1.34      0.41
   27    2    4      0.13     -0.32
    0    7   17     -1.72     -0.97
   12   16    0     -0.94     -0.02
   25    4    7      0.81     -0.40
   16    2   15     -0.20     -0.29
   20   12    3     -1.80      0.37
   23   10    0     -2.44     -0.00
   16   14    4     -0.52      0.86
   21   11    4      1.06      0.10
   24    6    7      1.05     -0.48
   24    9    0     -1.58      0.00
   14    0   16      2.03     -1.61
   19    6   12     -0.86      1.42
    0   16    8      0.75      1.63
    1    7   17      1.71     -1.05
   16   10   11      0.41      0.30
   21    5   11     -1.02      1.35
   10    3   17      1.07     -0.22
    8   16    6     -0.25      0.66
   21    2   12     -0.72      0.40
   18   13    4     -1.11     -1.00
    2    4   18     -0.89     -0.20
    1   16    8      0.83      0.70
   27    4    2     -0.47      0.57
   14   12   10      0.34     -0.20
   12   16    1     -0.09     -0.30
   23    3   10     -0.75     -1.25
   18    2   14      0.43     -0.80
   19   13    0      0.60      0.01
   23   10    1      0.70     -0.45
   11    1   17     -0.41     -0.18
   24    9    1      0.13      0.95
   14    1   16     -0.34      0.58
    6   11   14      0.60     -0.05
    6   16    7      2.27      0.17
   24    7    6     -0.46     -0.49
    3   17    5      0.57      0.57
   14    9   13      0.92      0.39
    6   13   12     -0.37     -0.59
    8   17    1      0.62     -0.29
    6    6   17      1.63      0.84
    2    7   17      1.10      1.40
    6    2   18     -0.96      1.12
   26    3    6      0.31      1.59
   25    2    8      0.47      1.44
   15   15    0     -1.30     -0.01
   20   11    6     -0.91      0.01
   19   13    1      0.03     -0.05
    8    5   17     -0.89      0.81
   22    3   11     -0.80     -0.53
    2   16    8     -0.50     -0.35
   12   15    6     -0.34     -2.12
   13   15    5     -0.68      0.08
    1    9   16     -1.08      0.03
    9   15    8      0.19      0.58
   16   11   10      1.30      0.86
    5    3   18      0.38     -0.55
   10   11   13     -0.72      0.05
    5   10   15     -0.67      0.65
   10   12   12     -0.20      0.01
   17   14    2      0.90     -0.34
    9    7   16     -1.18      1.18
   24    3    9     -0.44      0.34
   16    9   12      0.63      0.72
   25    7    4     -0.56      0.08
    7   17    3      0.97     -0.75
   15   15    1     -0.93     -1.06
    3    4   18     -0.34      2.84
   21    8    9     -0.26      0.48
    1   15   10     -0.98     -0.34
   22   11    0      1.03      0.01
    5   14   11      0.66      0.32
   24    5    8      0.78      1.67
   20    0   13     -0.10     -0.87
   25    8    0     -0.92      0.00
   19    4   13      0.08     -0.79
   20    9    9     -1.83     -0.11
    2    9   16     -1.74      0.44
   16   13    7      0.02      0.64
   28    0    0      4.29      0.00
   20    8   10      0.19     -1.82
    3    7   17     -2.24      0.12
   12   16    2     -1.20      1.05
   22   11    1     -0.26      0.59
   23   10    2      0.35      0.52
   24    9    2     -0.64     -1.02
    6   17    4     -0.59     -0.46
   25    8    1     -0.35     -0.62
   26    6    3     -0.02     -1.54
   20    1   13     -0.08      0.92
    7    1   18     -1.03      1.75
    3   16    8      0.50     -1.34
   11    2   17      1.32     -0.54
   23    9    5      0.83     -0.05
    4   17    5     -1.16     -0.09
    2   15   10     -0.42     -0.75
   12    5   16      1.90     -0.95
   14    2   16      0.27      1.44
   21    9    8      1.44      0.51
    8   17    2      0.15      0.33
   28    0    1      1.09      3.74
   28    1    0      2.09     -0.00
    7    8   16      0.46      0.35
   15   13    8     -0.67      0.26
   22    8    8     -1.08      1.02
   19   13    2      0.94     -0.96
    7   12   13      0.19     -0.08
   11   15    7      0.08     -0.41
   14   15    4     -0.99     -0.42
   19    9   10      0.08     -0.72
   22   10    5     -1.56     -0.36
   12   13   10     -0.16     -0.11
   17   13    6     -0.61      0.82
    7   15    9      0.10     -0.09
   27    3    4      0.32      0.43
   12    9   14      0.89     -1.36
   16    3   15      0.27      0.42
   20    5   12      0.30     -0.21
   11   14    9     -0.27     -0.04
   10   16    5     -0.68      0.96
   27    1    5     -1.03      1.04
   13    4   16      1.59     -0.69
   22    7    9     -1.22     -0.56
   21    7   10      0.04     -0.47
   11    8   15     -0.76     -0.60
    3    9   16      1.77     -0.52
   11   16    4     -0.74      0.23
   16    6   14      0.28      0.67
   28    1    1     -1.12     -1.55
   27    4    3      1.15     -0.90
   15   15    2      1.39      0.92
   17   12    8     -0.75     -2.21
    4    4   18      2.14     -0.86
   21    3   12      0.29      0.48
   11    6   16     -0.46     -0.51
   15    7   14      0.53      0.17
   15   14    6      0.72      0.32
   18    3   14      0.52      0.27
   18   12    7     -0.17      0.45
    9    9   15     -0.47      0.15
   14   14    7     -0.86      0.65
    3   15   10      0.28      1.03
   24    8    5      0.10      0.24
   10   10   14      0.41      0.66
   27    5    0     -0.92      0.01
   10   13   11      0.19     -0.31
    9   14   10     -0.25      0.33
   19   10    9     -0.16      2.12
    7   11   14     -0.21     -0.70
    7   16    7      0.07      0.53
    4    7   17      0.28     -2.01
   20   12    4     -1.38     -0.11
   22   11    2      0.83      0.21
   20   10    8     -1.55      0.10
   25    8    2      0.42     -1.73
    7   13   12      0.96     -0.17
    6    3   18      0.42     -0.01
   25    3    8     -0.47      2.02
    6   10   15      0.73      0.93
    7    6   17     -1.62      1.28
    4   16    8      0.34      0.07
   17    7   13      0.15     -0.07
   20    2   13      1.83     -0.28
    7    2   18      2.02     -0.59
   17   14    3     -1.01     -1.29
   19    8   11     -1.01      0.56
   27    5    1      0.11      0.26
   28    0    2     -0.69      0.65
    6   14   11     -0.54     -0.93
   13   11   12     -0.18      0.40
    9   17    0     -1.75      0.01
   28    2    0      0.32      0.00
    9   16    6     -0.04      1.28
   10    4   17     -0.52     -0.62
   26    5    5     -0.62      1.38
   14    6   15      1.51     -0.70
    5   17    5      0.37      0.20
   17    5   14      0.66      0.30
   16   12    9     -0.21     -0.74
   22    9    7     -1.43     -0.33
   23    7    8      0.10     -0.50
   20    7   11     -1.12      0.28
   23    4   10     -0.22      0.77
    1   17    6      0.15     -0.00
   25    6    6     -0.26      0.43
   27    2    5      1.08      1.07
   28    1    2      1.13     -2.05
   18    6   13      1.20      0.60
    4    9   16     -0.03      0.05
   12   16    3     -0.13      1.34
   23   10    3     -0.60     -0.93
   16   14    5      2.49     -0.46
    9   17    1     -0.63     -0.95
   21   11    5      0.72     -0.80
   28    2    1     -1.03      0.23
   21   12    0      1.37     -0.00
   24    9    3      0.90      0.12
   15    5   15      0.72     -0.79
   14   13    9     -0.92      0.03
    1    5   18     -2.01      0.79
   16    8   13      0.41      0.05
   26    7    0     -0.53      0.01
   26    4    6     -1.66     -1.64
   18   10   10      0.97     -0.10
    8   17    3      0.68     -0.67
    9    5   17     -0.37     -0.72
   13   14    8     -0.86      0.19
    4   15   10      0.31      0.18
   18   13    5     -0.05     -0.03
   15   11   11      0.67      0.17
   22    4   11     -0.12      0.59
   25    5    7     -1.54     -0.22
   19   12    6     -0.38     -0.76
   11    3   17     -0.78     -0.66
   14    8   14     -0.14      0.74
   15   10   12      0.44     -0.29
    8    0   18      2.95      2.19
   18    9   11     -0.78      0.06
   23    8    7     -1.05     -2.17
   14    3   16      0.38      0.09
    7   17    4     -0.65     -0.43
   13   12   11     -0.72      0.21
   19   13    3     -0.35     -0.65
    5    4   18     -0.20     -0.56
    2   17    6     -0.13      0.44
   13   10   13      0.37      0.79
   21   12    1     -0.34     -0.77
   12    0   17      0.54      1.42
   21   10    7      0.11     -1.69
   24    4    9      1.34      1.03
    0   12   14      0.90     -0.18
    0   18    0      0.67     -0.01
   26    7    1      1.06      0.50
   22    6   10      0.39      0.17
   13    7   15      0.53     -0.68
    2    5   18      0.52      0.75
    0   13   13      0.33     -0.64
   27    5    2      0.33      0.10
   10   15    8      1.74      0.85
    1   12   14     -0.45      0.43
    1   18    0     -1.12      0.03
    8    1   18      0.90     -0.58
   15   15    3      0.23     -1.11
    5    7   17      0.32      0.02
   13   16    0      1.97      0.01
    1   13   13      1.43      1.35
   10    7   16     -0.65      0.31
   12    1   17      1.86     -1.05
   26    6    4     -0.33      0.70
   17    1   15     -1.22     -0.28
   23    6    9      0.87     -0.10
    5   16    8     -0.43      0.22
    8    8   16     -1.81      0.17
    8   12   13      0.53      0.54
   11   11   13      0.73      1.45
   11   12   12      0.92      0.84
    1   18    1     -0.53      0.63
    8   15    9     -0.06     -0.19
   25    7    5      2.22      1.15
   24    0   10      0.74     -2.59
   13   16    1     -0.94     -0.81
   22   11    3     -1.60      0.40
    9   17    2      1.86      0.42
   28    2    2     -0.28      1.35
    2   12   14     -0.07     -0.20
    2   18    0     -0.06      0.01
   25    8    3      0.23     -0.05
    3   17    6      0.34      0.08
    2   13   13     -0.28      0.73
   21    6   11     -1.11     -0.58
   19   11    8     -0.66      0.30
   28    0    3      1.95     -0.18
    3    5   18      1.37     -0.56
    5    9   16      0.43      0.79
   27    4    4      1.00      0.32
   24    1   10     -0.78      0.95
   20    3   13      0.42      0.06
    7    3   18     -0.61      0.78
   16    4   15      0.97     -0.44
   21   12    2      0.25      0.15
    7   10   15      0.14     -0.55
    2   18    1     -0.49     -0.21
    6   17    5      0.82     -1.01
   19    5   13      0.22      1.02
   13   15    6      0.88     -0.54
   23    1   11     -0.40     -0.49
   18   11    9      0.95      0.13
   26    7    2      0.36     -1.29
   28    3    0     -0.78      0.00
    8   11   14     -0.37      1.95
    8   16    7     -2.09     -1.27
    5   15   10      0.29     -0.81
    7   14   11      0.38     -0.48
   21    4   12      0.06     -0.54
   15   12   10      0.39     -0.37
   28    1    3      1.53      0.18
    8   13   12      0.16      0.57
   15    1   16      0.09      1.38
    8    6   17     -0.15      0.35
   18    4   14      0.49      0.30
   19    1   14     -0.51     -1.24
   18   14    0     -0.58      0.00
   15    9   13      0.76      0.48
   14   15    5      0.71     -0.31
    8    2   18     -1.22      0.61
   27    3    5     -1.33     -0.49
   24    7    7     -1.92      1.26
   18    8   12     -0.40     -0.96
   19    7   12      0.63      0.56
    0   11   15      0.38      0.11
    3   12   14      0.11     -1.02
    3   18    0      0.92     -0.03
    0   18    2      1.66      0.98
   12    2   17      0.65      0.36
   17    2   15     -0.27     -0.95
   28    3    1     -0.25     -0.05
    3   13   13      0.02     -0.57
   17   14    4     -0.50      0.28
    1   11   15      0.00     -0.45
   11   16    5     -1.32      0.21
    1   18    2      1.33      1.48
   26    3    7      0.44     -0.87
    6    4   18      0.11      0.79
   10    9   15     -0.16     -0.78
   20   11    7      0.08     -1.16
   25    4    8     -0.77     -0.01
   13   16    2      0.10      0.29
    0   14   12      0.29     -2.24
   18   14    1      0.68     -0.69
   17   10   11      1.20     -1.59
   24    6    8     -2.10      1.15
   10   14   10      0.18     -0.49
   12   15    7      0.09      0.10
   22    0   12     -1.08      0.02
   23    9    6     -0.48     -2.05
    4   17    6     -0.77     -0.95
    3   18    1      0.24     -0.06
   13    5   16      1.11      0.02
    1   14   12      0.69      1.12
   12   14    9      0.55     -0.85
   25    1    9      0.19     -1.08
   16   15    0     -0.59     -0.01
   27    5    3      0.18     -2.61
    6    7   17      0.43      1.76
   12    8   15      0.42     -0.21
    4    5   18      0.05     -0.28
   11   10   14      0.57     -0.34
   12   16    4      0.32     -1.05
   20   12    5     -0.47      1.75
   11   13   11      0.98      0.62
   23   10    4      1.17     -1.19
    2   11   15     -0.16      0.26
   24    9    4     -0.28      0.07
    2   18    2     -1.98     -0.01
   22   10    6     -1.27      0.24
   13   13   10     -0.77      0.71
    6   16    8     -0.58     -0.81
   24    2   10     -0.41     -0.26
   12    6   16      1.79     -0.21
   22    1   12     -0.55     -0.09
   13    9   14     -1.18      0.21
   10   17    0      2.05      0.02
   23    2   11     -0.18     -0.35
   10   16    6      0.53     -0.05
    8   17    4      1.35     -0.53
   16   15    1      0.33     -0.29
    1    8   17     -0.75      0.91
    2   14   12     -0.40      0.57
   17   11   10      0.71      0.09
   19   13    4     -0.46      1.09
    9   17    3      0.27      0.13
   28    2    3     -0.11     -0.73
   15    2   16     -1.15     -0.68
   19    2   14      1.03      0.40
   17    9   12     -0.01     -0.46
   20    6   12     -0.40     -0.01
   11    4   17      1.69     -1.48
   10   17    1     -0.39     -0.32
    4   12   14     -0.60      0.06
    4   18    0      0.97     -0.02
   14    4   16      0.42      0.50
   28    3    2     -0.22     -1.73
   24    8    6      0.70      0.08
    6    9   16      1.16     -0.13
    4   13   13      0.37     -1.15
    1   16    9     -0.16     -0.23
   15   15    4     -0.38     -1.01
   10    5   17     -0.47     -1.75
    2    8   17      0.41     -1.03
   18   14    2      0.32     -0.92
   21   12    3     -1.65      0.20
   17   13    7      0.21      0.42
   20   13    0      1.06      0.00
    3   11   15      0.07      0.43
   23    5   10     -0.60     -0.02
    3   18    2     -0.98     -2.09
   26    7    3     -0.21      0.79
    9    1   18      0.11     -0.19
    4   18    1     -0.20      0.45
    6   15   10     -0.48      0.08
   16   13    8     -1.40     -0.24
   27    6    0      0.97     -0.01
   25    2    9     -0.32      0.77
    7   17    5     -1.00      0.29
    3   14   12     -0.03     -1.43
    9    8   16     -1.15      0.16
   22   11    4      0.50      0.70
    2   16    9     -0.97     -1.01
    9   12   13     -0.14      0.86
   20   13    1      0.53     -0.07
   25    8    4      0.19     -0.73
   26    5    6      0.37     -1.76
    5   17    6     -0.38      0.55
    9   15    9      0.10     -0.17
   15   14    7     -1.37      0.67
   22    5   11     -1.61      1.70
    8    3   18     -0.13     -0.31
   16   15    2      1.67      0.77
   22    2   12      0.51     -1.04
   27    6    1     -0.02      1.35
    0    1   19      1.21     -0.21
    8   10   15      0.06     -0.41
   28    0    4     -0.66      0.23
   27    2    6      1.41     -1.25
    5    5   18      1.53     -0.07
    1   18    3     -0.43     -0.73
   14   11   12      0.08     -0.55
   12    3   17      0.06     -0.73
   16    7   14      0.44      2.39
   13   16    3      1.24      0.43
   17    3   15      0.54     -0.79
   11   15    8      0.47     -0.14
   16   14    6     -0.98     -0.94
   26    0    8     -0.24     -0.98
   21   11    6     -1.66     -0.58
    1    1   19     -0.74      0.55
   24    5    9      1.28     -0.45
    3    8   17      0.99     -1.25
   26    6    5     -0.28      0.70
    8   14   11      0.37      0.54
   11    7   16      1.62     -0.24
   17    6   14      0.49      0.90
   10   17    2      0.72      0.31
   20    4   13     -0.30     -0.37
    7    4   18     -0.99      0.99
   18   13    6     -2.59     -0.06
    0    6   18     -1.04      0.36
   24   10    0      0.25      0.00
   28    1    4     -0.50     -0.01
    9   11   14      2.07      0.66
    9   16    7     -0.97     -0.86
   15    6   15      0.87      0.47
   26    1    8      0.43      0.74
   28    4    0     -0.84     -0.01
    2   18    3     -0.39     -0.38
    1    6   18      1.54      0.48
    0   17    7     -0.68      0.22
    3   16    9      0.29      0.50
    9   13   12      0.25      0.46
    4   11   15      0.24     -0.76
    2    1   19     -1.52      1.37
    5   12   14     -0.13      1.01
   18   12    8     -0.41     -0.61
    5   18    0     -2.51      0.03
    4   18    2      1.17     -0.28
   21    9    9      0.73      0.53
    9    6   17     -1.14     -0.71
   14   14    8      0.58      0.87
    7    7   17     -0.33      1.27
    5   13   13      0.33      0.68
    9    2   18     -0.78     -0.67
   24    3   10      0.03      0.61
    1   17    7      0.05     -0.50
   25    6    7     -2.28     -0.56
   25    9    0     -2.11      0.01
   24   10    1     -0.45      0.48
   27    4    5      0.02      1.67
   12   11   13      0.43      0.53
   14   12   11      0.35      0.41
   23    3   11     -0.19     -0.28
   15   13    9      0.74     -0.71
   12   12   12      0.75     -0.64
   22    8    9      1.05      0.39
   21    8   10      0.03     -0.34
    7   16    8     -0.74      0.31
   14   10   13     -0.07      0.03
    4   14   12     -0.16     -0.21
   28    4    1     -1.05      0.56
   20   13    2     -0.12      0.30
   13    1   17      1.04      0.72
   21    1   13      0.74     -1.77
   20    9   10      0.96     -2.34
    5   18    1      0.27     -0.24
    0   10   16      0.34      0.48
   14    7   15     -0.36      0.84
   26    4    7     -0.33     -0.62
   28    3    3      2.11     -0.87
    2    6   18     -1.12      1.22
   15    8   14     -0.45      1.61
   27    6    2     -1.47     -0.75
   27    5    4     -0.03      1.59
   15    3   16      0.63      0.52
   25    9    1     -0.35      0.16
   19    3   14      0.30     -1.08
   19   12    7      0.51     -1.83
   16    5   15     -1.35     -0.48
   25    7    6     -0.33     -0.13
   14   16    0      1.95      0.03
    1   10   16     -0.80     -0.25
   23   11    0     -0.64     -0.00
   18    7   13     -0.46     -0.62
   17   12    9      1.20     -0.35
    2   17    7     -0.28     -0.25
   18   14    3      0.31     -0.76
    4    8   17     -0.50      0.75
    1    2   19     -0.08      1.06
   16   11   11      0.87     -1.47
    3   18    3     -0.35      1.13
    7    9   16     -0.87     -0.05
   22    9    8     -2.00     -1.10
   16   10   12      0.67      0.10
   21    5   12      1.49     -0.69
    0   15   11     -0.61     -0.64
   17   14    5      0.23      0.60
    3    1   19     -0.38      1.11
   18    5   14      0.88      0.15
   17    8   13     -0.68     -0.05
   14   16    1     -0.34     -0.22
   23   11    1      1.28      1.26
    1   15   11      3.30      1.13
    9   17    4      0.28      1.18
   20   10    9      0.11     -1.77
   28    2    4     -0.22     -1.24
    6   17    6      0.87      0.30
   11    9   15     -0.77     -0.15
    7   15   10     -0.14      0.50
    2   10   16     -0.79     -1.05
   25    3    9      0.24     -1.52
   26    2    8      0.32      0.76
    4   16    9     -0.41      0.42
   11   14   10     -0.40      0.16
   16   15    3      0.33      0.49
   22    7   10     -1.11      1.25
    6    5   18     -1.31      2.40
    2    2   19     -0.76     -0.00
    3    6   18     -0.90     -0.71
   25    5    8      0.27      0.09
   24   10    2     -0.30     -1.13
   23    8    8      0.84      0.13
   20    8   11     -0.44      0.52
   12   16    5     -0.53     -1.69
   23   10    5     -1.13      0.15
   22    3   12      0.08      0.35
   21   12    4     -1.60      0.09
   24    9    5     -0.80      1.18
   14   15    6      0.25      1.52
   28    4    2      1.01     -1.03
   19    6   13     -0.71      0.86
   21   10    8     -0.36      1.72
   27    3    6     -1.23     -1.35
    3   17    7     -0.51      1.02
    2   15   11     -0.48      0.43
    5   11   15      0.23     -0.25
   26    7    4     -0.21      1.07
    5   18    2     -0.47      0.61
   10   17    3     -0.40      1.15
   23    7    9      1.03      1.36
   13    2   17     -0.32     -0.04
    8   17    5     -0.40      0.35
   18    0   15     -1.66     -0.71
    4    0   19     -0.48      3.91
   21    2   13     -0.56      0.19
   11   17    0      1.57     -0.01
   10    0   18     -1.68     -0.54
   25    9    2     -1.54     -0.64
   26    8    0     -0.66      0.01
   11   16    6     -1.24     -1.46
   19   10   10      0.22      0.92
   19   13    5     -1.14     -0.76
   12   10   14     -1.14      0.36
    5   14   12     -0.03      1.38
   19    9   11     -0.93      0.71
   12   13   11     -0.24     -0.07
   13   15    7     -0.22      0.72
    6   12   14      0.15     -0.10
    6   18    0     -1.02      0.02
    0   18    4      0.73      0.35
    3   10   16     -1.05      0.42
    4   18    3      0.13     -0.34
    6   13   13     -0.53      0.40
   16    0   16     -1.40      3.57
   13   14    9     -1.08      0.01
   21    7   11     -0.30     -0.02
   18    1   15     -1.12     -0.83
   11   17    1      1.20      0.16
    4    1   19      1.32     -1.74
   26    8    1     -0.43     -0.61
   10    1   18     -0.85      0.08
    1   18    4     -0.20     -0.37
   13    8   15     -0.22      2.01
   14   16    2      0.19     -0.43
    3    2   19     -0.29     -0.05
   23   11    2     -1.91      0.26
   15   15    5      1.04      0.48
   13   16    4     -1.44     -0.72
   20   12    6     -0.55      0.39
    9    3   18     -0.31      0.58
   11    5   17      0.61      0.17
   20   13    3     -1.59      0.38
    9   10   15      0.69      1.02
    8    4   18     -0.82     -0.22
    6   18    1     -0.49      0.00
    5    8   17      1.07     -0.14
   14    5   16     -0.20      0.42
   13    6   16      1.28     -0.56
   10    8   16      0.59      0.40
   16   12   10     -0.25      0.72
   10   12   13     -0.61     -0.40
    3   15   11     -2.00     -1.83
   12    4   17      0.27      0.29
   17    4   15     -2.14     -0.97
   27    6    3      0.13      1.37
   16    1   16     -0.03     -0.52
   10   15    9      0.52     -0.26
    9   14   11     -0.79      0.10
   16    9   13     -0.06      0.96
    4    6   18      1.58     -1.45
   22   11    5     -0.34      0.66
   22   12    0     -0.02     -0.01
   14   13   10     -0.10     -0.86
    2   18    4     -0.83     -0.39
    8    7   17     -1.62     -0.16
   25    8    5     -1.05     -0.13
   14    9   14     -0.44      1.24
   23    9    7      0.64     -0.56
    4   17    7      0.60      0.90
    0    3   19      0.68      1.30
    5   16    9     -1.07     -0.89
    8   16    8     -0.32      0.14
    1    3   19      1.67     -1.01
   22   12    1      0.62     -0.74
   22   10    7     -1.69     -0.01
   24    7    8      2.14     -0.36
   24    4   10      0.07      0.56
   10   11   14      0.11     -1.71
   10   16    7      1.57      0.36
    4   10   16      1.76      1.07
   28    3    4     -0.13     -0.31
   23    4   11     -0.32     -0.32
   11   17    2     -1.14     -0.20
   19   11    9     -0.45      0.97
   26    8    2      0.77     -0.06
   10   13   12      0.52     -0.46
   24   10    3     -0.33      0.26
   26    3    8      0.61      0.22
   10    6   17      0.84      0.12
    7   17    6     -0.23      0.66
   20   11    8      0.44      0.57
   18    2   15     -1.43     -0.15
    4    2   19     -0.13      1.74
   29    1    0      0.22     -0.00
    8    9   16      0.57      0.30
   18   14    4      0.76      0.20
   10    2   18      2.06      0.58
    2    3   19     -0.51      0.50
   28    4    3     -2.20      0.28
   12   15    8     -0.62     -1.16
   20    0   14     -2.72     -0.71
   17   15    0      0.08      0.00
    6   11   15      0.07      1.16
    6   18    2     -0.64     -0.20
   15    4   16     -1.49      1.06
   23    6   10     -1.34     -0.95
    3   18    4      1.27      0.74
   19    4   14     -0.47     -0.06
   20    5   13     -1.08     -0.45
   19   14    0     -0.53      0.00
    7    5   18      0.01     -0.38
    5   18    3      0.43     -0.90
   12    7   16      0.91     -0.16
   18   10   11      1.17      0.68
   24    8    7     -0.02      0.32
    4   15   11      1.29      0.03
   19    8   12      0.04      0.73
    5    1   19     -0.79      2.40
   25    9    3     -0.39     -1.38
    8   15   10      1.36      0.47
    6   14   12      0.68      0.61
   16    2   16     -0.88      0.09
   28    5    0      0.17     -0.00
   13    3   17      0.98      0.81
   29    1    1     -1.62      1.27
   21    3   13      0.13     -0.40
   17   15    1      0.39      0.94
   26    6    6      0.80      0.77
   20    1   14     -0.04      0.94
   19   14    1      0.53     -0.18
   22    6   11     -0.66      0.54
   20    7   12     -1.36     -0.42
   16   15    4      0.64      1.40
   27    5    5      0.51     -0.39
    5    6   18      0.74      2.32
   14   16    3      0.59     -0.95
   23   11    3     -0.67      0.06
   25    4    9      1.30      0.63
   28    5    1     -0.26      1.23
    7   12   14      0.78     -0.16
    7   18    0      1.88     -0.02
   22   12    2     -0.49      1.32
   24    6    9      2.91      1.81
    6    8   17     -0.76      0.38
    7   13   13      0.21     -1.35
   26    5    7     -1.88      2.14
    5   17    7      0.36      0.03
    3    3   19     -1.21     -0.20
   18   11   10      2.03     -0.78
   10   17    4     -0.51      1.25
   15   11   12      1.05      0.16
   22    4   12     -0.46      0.04
   27    7    0      0.82     -0.00
   18    9   12     -0.87      1.93
   27    4    6     -0.42      1.74
   24    0   11     -0.10     -0.74
   13   11   13     -0.41     -0.48
   13   12   12     -0.49     -1.17
    7   18    1     -0.66     -0.36
   16   14    7      0.14      0.24
    9   17    5      0.53      0.52
   21   11    7     -0.55      0.01
   28    2    5      0.38      0.49
   14    0   17      1.05     -0.46
   17   13    8      1.33     -0.58
    6   16    9     -0.03     -0.07
   29    2    0     -0.30     -0.01
    4   18    4      0.80     -0.31
    5   10   16      1.01      0.06
   18   13    7     -0.20     -0.78
   27    7    1     -1.14     -0.66
    5    2   19      0.62     -1.21
   24    1   11     -1.57     -1.01
   29    1    2     -0.26     -0.75
   21   12    5     -2.34     -1.03
   14    1   17     -2.37      0.73
   17   15    2     -0.89     -1.22
   20   13    4      1.02      2.58
   29    2    1     -0.69      0.01
   12    9   15     -1.01      0.95
   15   14    8     -0.58     -0.17
   19   14    2      0.31      0.53
   26    7    5      0.33      0.10
    6    0   19      0.26     -0.05
   17    7   14     -0.61     -0.24
   20    2   14     -0.95     -2.20
   12   14   10      0.02      0.43
   17   14    6     -1.28     -0.21
   25    1   10     -0.25     -0.69
    5   15   11      1.68      0.71
   27    6    4     -0.91      0.35
   11   17    3     -0.59      0.54
   15   12   11      1.92     -0.50
   26    8    3     -0.02     -0.70
    9    4   18      1.31     -2.36
    0    9   17     -0.87      2.93
   16    6   15     -1.06      0.82
   15   10   13      1.35      0.74
   28    5    2     -0.20      0.61
    1    9   17     -0.04     -0.62
   15    7   15     -0.16      0.87
    6   18    3      0.31      0.19
    1    7   18     -1.12      0.71
   18    3   15     -1.84     -2.33
    4    3   19      0.08     -0.17
   21    6   12     -0.61     -1.23
   10    3   18      0.10     -1.12
    6    1   19     -0.30      1.00
   10   10   15     -0.39      0.98
   16   13    9      0.84     -1.79
    9    7   17      1.41     -1.01
   15   16    0     -2.48     -0.00
   18    6   14      0.48     -0.97
    1   18    5      0.56     -0.75
   12   17    0     -1.39     -0.01
   25    7    7      0.21     -0.19
   12   16    6     -0.40     -0.80
    7   11   15      0.66      0.02
   13   16    5      1.05     -0.53
    7   18    2      0.70     -0.78
   23   10    6      0.56      0.09
   11    1   18      1.41      0.43
   24    9    6      0.42      0.01
    9   16    8     -0.02      1.10
   10   14   11      0.07     -0.76
   23    1   12      0.94     -1.03
   16    8   14     -0.08     -0.23
   21   13    0      0.38      0.00
    0   16   10      0.58      0.46
   16    3   16     -2.18      0.37
    1    4   19      0.31      0.61
    2    9   17      0.02     -1.67
    8   17    6      0.04      1.81
    7   14   12     -0.27     -2.00
    6    6   18      1.00      0.07
   11    8   16      0.53      0.37
    2    7   18      0.54     -1.57
   15   16    1      0.01     -0.07
    1   17    8      0.09      0.82
   25    6    8      0.70      0.55
    1   16   10      1.68     -0.58
   24   10    4     -0.18     -0.18
   11   12   13     -0.57     -0.13
   27    7    2      1.55      0.77
   12   17    1      0.55      0.79
   19   13    6      0.04     -1.65
   11   15    9      0.51     -0.43
   26    0    9      0.71     -0.67
    8    5   18      0.25     -1.96
   13   10   14      0.51     -0.21
   22   12    3      0.59      0.47
   28    4    4     -0.01      0.30
    2   18    5      0.66      0.67
    6   17    7      1.50     -0.94
   13   13   11      0.03     -0.71
   24    2   11      0.84     -0.68
   29    2    2      0.76     -0.56
   21   13    1      0.99     -0.97
   12    5   17      1.32      0.85
   17    5   15     -0.78     -0.53
    5   18    4     -0.39     -1.17
   14    2   17      0.65      0.47
   26    4    8     -0.32     -0.71
    9    9   16     -0.66     -0.08
   25    9    4     -1.08      0.38
    2    4   19      0.16     -1.67
   19   12    8      0.21      0.48
   25    2   10     -0.93     -0.76
    7    8   17     -1.65      1.16
   15   15    6     -0.11      0.09
   17   11   11     -0.28      0.61
    1   13   14      0.53     -0.19
    2   17    8      0.19     -0.63
   17   10   12     -1.36      1.64
    2   16   10     -1.58      0.18
   14   15    7      0.98     -0.34
   26    1    9      0.41      0.67
   27    3    7     -2.94      0.26
    9   15   10      0.32     -1.59
    6   10   16     -1.08     -0.43
   18   12    9     -0.28      1.23
   28    3    5     -0.72      1.77
   14   14    9     -0.90      0.24
   13    4   17     -0.18      1.18
    8   12   14      0.46      0.67
    8   18    0     -0.07     -0.01
   29    3    0      1.00     -0.00
   21    4   13      0.67      0.82
    3    9   17      1.09     -0.21
   11   11   14     -1.77      0.04
   11   16    7     -1.51      0.17
   14    8   15     -0.59      0.89
    6    2   19      0.43      0.93
    8   13   13      1.03     -0.05
   14   16    4     -1.30     -0.07
    3    7   18      0.68      0.03
   23   11    4     -0.29      1.11
    7   16    9      1.52      1.68
   29    1    3      0.67     -1.12
   11   13   12     -0.31     -0.97
   22   11    6      1.56     -0.26
   18   14    5     -1.74      1.08
   24    5   10     -1.45      0.13
   11    6   17      1.90     -0.06
   17   15    3     -0.47      0.96
   25    8    6     -0.76     -2.61
   14    6   16     -1.59     -1.48
   18    8   13     -0.32      0.09
   19    7   13      0.43      0.33
   11    2   18     -0.09     -0.22
   23    5   11      0.61     -0.58
    2   13   14     -1.00      0.12
    3   18    5     -0.45      1.20
    5    3   19      0.64      2.05
   19   14    3     -0.59      2.30
    6   15   11     -0.19     -0.39
   23    2   12     -0.04     -0.28
    8   18    1     -0.42      0.77
   15   16    2      0.32     -0.25
   29    3    1     -1.02      0.40
    1   12   15      0.04      0.18
   12   17    2     -0.99      0.67
   28    5    3      0.01     -0.83
    3    4   19      0.02      0.73
   20    3   14      0.02     -1.72
   20   12    7      0.64     -0.56
   15    5   16     -1.59     -1.24
   19    5   14     -0.77     -1.54
    3   17    8      0.65     -0.51
   22    0   13      0.50     -1.77
    3   16   10     -1.89      0.50
   21   13    2      0.83      0.90
    1   14   13      0.53      0.16
   22    9    9      2.69      0.21
   21    9   10      0.29      0.29
   16   15    5      0.45      0.95
   15   13   10      0.97     -0.18
   22    8   10      0.23      1.62
    7   18    3      0.77      0.71
   15    9   14      0.54      0.58
    2   12   15     -0.60      0.12
   13   15    8     -0.93      0.07
    7    1   19      1.56     -0.78
   22    1   13     -0.05     -0.42
   26    2    9      0.70     -1.90
   10   17    5      0.55      1.70
   13    7   16     -1.68      0.09
    3   13   14     -0.09     -0.37
   11   17    4     -0.57      0.59
   26    8    4      0.12      1.57
   25    5    9      0.74     -0.84
    2   14   13      0.53      0.70
   27    7    3     -0.45     -0.15
   23    8    9      2.30     -0.47
    4    9   17      1.08      0.51
   17   12   10      1.54      0.50
    4    7   18     -0.04      2.06
   21   10    9      0.51     -0.25
   29    2    3     -0.39     -1.30
   17    1   16     -0.83      0.17
    6   18    4      1.11     -0.20
   17    9   13     -1.92      0.72
   20    6   13     -0.86     -0.59
    7    6   18     -1.67     -0.63
   25   10    0      0.05      0.01
    4   18    5     -0.66     -1.64
   22    5   12     -0.18     -0.32
    8   11   15      0.00     -0.61
    8   18    2      0.38     -0.06
   27    5    6     -1.12     -0.53
   24    3   11      0.17     -0.11
   29    3    2     -0.20     -0.23
   14    3   17     -0.85      1.16
    7   17    7     -0.83     -0.84
   28    6    0      1.62     -0.01
   21    8   11     -0.25      1.09
   18    4   15     -0.92     -1.00
   19    1   15     -1.50      0.35
    4    4   19      0.88      0.24
   20   10   10     -0.54      0.51
   10    4   18      0.08      0.16
   20   13    5     -0.67     -0.52
    8   14   12     -0.15     -0.30
   25    3   10     -0.08     -0.02
   23    9    8      0.44     -0.46
    4   17    8      0.72      0.13
    3   12   15     -0.24     -0.30
   20    9   11     -1.16      0.35
    4   16   10      1.18     -0.58
   25   10    1     -0.45      1.00
   27    6    5     -0.19     -0.24
   24   11    0     -1.94     -0.00
   28    6    1     -1.16     -0.31
    3   14   13     -0.62     -0.61
   16    4   16     -0.47     -2.23
    9   17    6      0.52     -1.75
   10    7   17     -0.04      0.02
   22   12    4      0.44      1.41
    7   10   16      0.85     -0.16
   22   10    8      1.46     -0.57
   26    6    7     -1.50     -0.12
   26    9    0      0.13     -0.00
    6    3   19      0.02     -1.63
   23    7   10      0.62      0.88
   10   16    8      0.56      0.39
    8    8   17      0.53      0.38
   27    1    8      1.30     -1.00
    9    5   18     -1.31      0.15
    7    2   19     -0.12     -0.36
   22    2   13     -0.18     -1.58
   24   11    1     -0.52      0.41
    4   13   14      0.55     -0.01
   15   16    3     -0.31     -2.23
   11    3   18      0.70     -0.32
   12   17    3      0.80     -0.47
   14   11   13      0.09      0.16
   11   10   15     -0.73     -1.54
   14   12   12     -0.32      1.01
   23    3   12      0.43     -0.78
   21   12    6     -1.07      0.87
   12    0   18      2.42     -0.03
    7   15   11     -1.29     -1.16
   26    9    1      0.92     -1.16
   21   13    3      0.71      1.49
   13    9   15      0.36      0.73
   26    7    6     -0.26     -0.61
   11   14   11     -0.82     -0.02
   17    2   16     -0.92     -0.46
   24    8    8      2.51     -0.40
    8   16    9      0.54      0.13
   13   14   10     -0.16     -1.03
   22    7   11      0.00      0.06
   18   15    0     -1.10      0.01
    1   11   16     -0.31     -0.08
    0    5   19      0.82     -0.11
   24   10    5      0.58     -0.83
    5    9   17     -1.13      0.90
   27    4    7     -1.92     -0.20
   10    9   16     -2.00      0.51
    5    7   18      0.74     -0.63
   29    1    4      0.24     -2.01
    9   12   14     -0.98      1.04
   28    4    5     -1.79     -1.14
    9   18    0     -1.23      0.01
   17   15    4     -0.32      1.32
    1    5   19     -0.55     -1.80
   12    1   18      0.43     -0.30
   24    7    9      2.24      0.49
   19    2   15     -0.34     -0.28
   29    4    0     -1.74     -0.01
   16   11   12     -0.30      0.79
    9   13   13     -1.12      1.62
    0   18    6     -0.12      1.00
   19   14    4      0.68      1.31
   25   10    2     -0.25     -1.36
    5   18    5     -0.50     -1.01
    4   12   15      0.38      0.13
   18   15    1     -0.21      1.12
   25    9    5     -0.20      0.28
   10   15   10     -1.35     -0.26
    8    0   19      1.48     -1.41
   12    8   16      0.05     -0.44
    1   18    6     -1.51      0.54
   26    3    9      0.50     -0.35
   19   10   11     -1.76      1.17
   13   17    0     -0.54      0.01
   28    6    2      1.01     -0.97
   20   11    9      0.84      1.37
   28    5    4      0.03      1.74
   12   12   13      1.33      0.97
   13   16    6      0.36     -0.90
   15    1   17     -0.09      0.49
    5    4   19     -1.06     -0.94
    1   15   12      0.05     -1.16
    4   14   13      1.10     -0.32
    2   11   16     -0.60      0.02
    9   18    1      1.65     -0.34
   12   15    9     -1.04      0.75
   26    5    8      0.38     -0.15
   29    4    1     -0.68     -0.34
    5   17    8     -2.00     -0.25
    5   16   10      1.19     -0.91
    2    5   19      0.18      1.06
   20    4   14     -0.07     -1.66
   17   14    7      0.60     -0.43
   20   14    0      0.58     -0.00
    8   18    3      0.89     -0.40
   24   11    2     -0.98     -0.20
   29    3    3      0.28      0.15
   27    2    8     -0.58     -0.94
   20    8   12      0.38      1.20
   14   16    5     -0.18      1.88
   13   17    1     -0.20     -0.60
   23   11    5      0.14      0.51
    8    1   19     -0.12     -1.59
   23   12    0     -0.74      0.01
    7   18    4     -0.14      0.46
   16   14    8      0.06     -1.50
   21   11    8     -0.07      0.52
    2   18    6     -0.02     -1.00
   26    9    2     -0.28     -0.22
    2   15   12      0.62      0.25
   13    5   17     -1.80     -1.03
   16   12   11      1.04      0.28
   16   10   13     -0.96      0.18
   21    5   13      0.14     -1.74
   20   14    1     -0.14     -0.51
    5   13   14     -0.78      0.66
   18   13    8      1.70     -1.26
   19   11   10      0.04      0.52
   27    7    4      0.22      1.39
   12   11   14      0.71      0.70
   12   16    7     -1.30      0.30
   23   12    1     -0.49      1.29
   16    7   15      1.74     -0.93
   14   10   14     -0.43     -0.22
    8    6   18     -0.15     -0.30
   23   10    7     -0.61      0.28
   24    9    7     -0.32     -2.10
   27    8    0     -0.19      0.00
   14   13   11      0.65     -0.09
   19    9   12     -1.18      1.17
   12   13   12     -0.11      0.31
   29    2    4     -1.03      1.27
    3   11   16      0.38     -0.39
   12    6   17     -1.29     -1.53
   21    1   14     -0.56     -1.28
   17    6   15      0.23     -2.13
   16   16    0     -1.62     -0.02
   12    2   18     -0.64     -1.04
   28    3    6     -1.17     -1.55
    8   17    7     -1.15      0.19
   21    7   12      0.03      0.26
   18   15    2     -0.12     -1.85
    3    5   19      1.21     -1.88
   18    7   14     -0.15     -1.52
    7    3   19     -0.12     -0.28
   19   13    7      0.10     -0.21
   18   14    6      0.32      0.04
   22    3   13      0.37      0.23
    9   11   15     -0.73      0.26
   27    8    1      0.56     -0.06
    9   18    2      0.17      0.92
   17   13    9     -0.61      0.70
   15    2   17     -1.21      0.43
   24    4   11     -0.22     -0.55
   29    4    2      0.76     -0.82
    3   18    6      0.39      0.33
   16   16    1      0.54      0.06
    5   12   15      0.63      0.27
   14    4   17     -0.79     -0.72
    3   15   12     -0.11      0.70
    6    9   17      0.28     -1.58
   11   17    5     -0.25     -0.17
    8   10   16      0.23      0.65
   26    8    5      1.51     -0.41
    9   14   12      0.27      2.40
    6    7   18     -0.55      0.26
   17    8   14     -1.52     -0.76
   25    7    8     -0.15      1.81
   13   17    2      0.61      0.20
   15   15    7     -0.51     -0.59
   25    4   10     -1.16     -0.00
   17    3   16     -0.98     -1.09
    5   14   13     -0.47      0.22
   24    6   10     -0.65     -1.54
    1   19    0      1.09      0.00
    8    2   19      0.36     -0.80
    0    8   18     -1.10      2.25
    6   18    5      0.43      2.17
   23    6   11     -0.99      0.70
   15   14    9      0.69     -0.89
   25   10    3      0.67      0.74
   15    8   15      0.52     -1.24
   16   15    6      0.43     -0.90
   20   14    2      0.26     -0.27
    0   19    1      1.39      0.42
   15   16    4      0.61      1.29
    1    8   18     -0.56     -1.78
   19    3   15     -0.11     -0.65
    8   15   11     -0.34      0.36
   12   17    4     -0.74     -1.18
    6    4   19     -0.97      1.17
   28    6    3      0.73     -0.37
   23   12    2     -0.67     -1.18
    9    8   17      0.08     -0.01
   22   11    7      0.87     -0.41
   15    6   16     -0.74     -0.09
    1   19    1      1.06     -0.25
   19    6   14      0.97     -1.28
    6   17    8     -1.29     -0.78
   25    8    7     -0.32      1.27
    6   16   10     -0.55      0.61
   21   13    4      0.06      0.03
    4   11   16      0.32      0.19
   11    4   18     -0.76      1.22
   10   17    6      1.16     -0.81
    2   19    0     -2.10      0.00
   23    4   12     -0.27     -0.58
   21    2   14     -0.48     -1.57
   24   11    3      0.68      0.12
   18    5   15      0.61     -0.76
    4    5   19     -0.96      0.10
   10    5   18      0.66     -0.48
    2    8   18      0.76     -1.75
   22   12    5      0.83     -1.65
    9   16    9     -1.05     -1.79
   14   15    8     -0.28      1.11
   27    8    2     -0.29      0.45
   27    3    8      1.43     -1.95
   26    9    3     -0.33      0.01
    0   17    9      2.08     -2.27
   11    7   17     -0.98      0.51
   16   16    2      0.44      0.23
   18   11   11     -0.53      0.46
    2   19    1     -2.05      1.01
    4   18    6      0.79      1.59
   14    7   16     -0.14     -1.16
    6   13   14      0.30     -0.04
   18   10   12     -1.15     -0.29
    4   15   12      0.19     -0.87
    1   17    9     -0.38     -0.01
   25    6    9      0.48     -0.99
   11   16    8      0.34     -1.92
   16    5   16     -1.40      0.02
   20   13    6      0.03      0.11
   26    4    9     -0.12     -1.73
   22    6   12      1.65      0.97
   10   12   14      0.10     -0.19
   10   18    0     -1.10      0.01
   16   13   10      1.37      0.20
   18   15    3     -1.06     -0.24
   27    6    6     -0.19     -0.95
    8   18    4     -1.78      0.61
    3   19    0     -1.56     -0.01
   29    3    4     -1.02      0.38
   10   13   13     -0.47      0.72
   19   12    9      0.65      1.39
   16    9   14     -1.42     -0.39
   12    3   18     -0.01      0.73
   30    0    0     -4.01      0.00
   20   12    8     -0.24      0.30
   12   10   15     -0.84     -0.07
    2   17    9     -1.37      1.57
    1   19    2     -0.50      0.65
    9   18    3     -0.44     -0.31
   17   15    5      0.11      0.35
   11    9   16      0.54      0.74
    3    8   18      1.16      0.16
    6   12   15      0.69      0.10
   22   13    0     -0.81     -0.01
   29    4    3      0.55      0.51
   19   14    5      0.03     -1.03
    9    1   19      0.52     -1.55
   10   18    1      0.96     -1.70
   12   14   11      0.69      1.61
   25    1   11      0.53     -0.92
   19    8   13     -0.80     -0.82
    3   19    1     -1.65      0.47
   27    5    7      0.65      0.82
   15    3   17     -0.66     -1.27
   24    0   12      1.82     -2.80
    6   14   13     -0.67      0.31
    1   10   17     -0.34      0.94
   13   17    3      0.39      0.09
   30    0    1     -2.40     -1.66
   28    5    5      0.34      0.65
   11   15   10      0.19      1.13
   30    1    0     -2.25     -0.00
   26    0   10     -0.62      1.84
   29    5    0      0.19     -0.00
   22   13    1     -0.68      1.04
    5   11   16      0.92      0.22
    7    9   17     -0.15      0.34
    2   19    2     -0.51     -0.34
    9    6   18      0.90     -0.49
   20    7   13     -0.80      0.97
    7    7   18      0.20     -0.34
   18    0   16     -1.13     -1.96
    8    3   19      0.06      0.45
   20   14    3      0.46      0.89
   24   10    6     -0.01     -1.12
    5    5   19     -0.33      1.25
   23   12    3      0.25      0.56
   24    1   12      0.04     -0.45
    7   18    5      0.68      0.18
   30    1    1      1.01      1.22
    9   17    7      0.68     -0.29
   28    7    0     -1.23     -0.01
   29    5    1     -0.30      0.36
   26    1   10     -0.06     -0.87
   28    4    6     -0.38      0.58
    2   10   17      1.30     -0.91
    3   17    9     -0.19      0.11
   13    1   18      0.02     -0.71
   14    9   15      0.50      0.09
   20    5   14      0.14     -1.07
   18   12   10      0.41      0.40
    5   18    6     -0.73     -0.99
   14   14   10      0.49      0.44
    7    4   19      1.04     -0.59
    5   15   12     -0.79      0.03
   15   11   13     -0.93      0.31
   22    4   13      0.31     -0.92
   18    1   16     -0.41     -0.89
   15   12   12     -0.12      0.21
   25    9    6      0.57      0.90
    4   19    0      0.26      0.00
    1   16   11     -0.84     -0.16
   27    7    5     -0.62     -0.47
   18    9   13      0.06     -1.16
   13    8   16     -0.19     -0.94
    7   17    8      1.29     -0.47
    7   16   10     -0.03      1.03
   13   12   13      0.25     -0.09
   21    3   14     -0.45     -0.35
   28    7    1     -0.43     -0.48
   21   12    7      0.73     -0.08
   27    8    3      0.80      0.52
    1    6   19      0.63      0.13
   13   15    9     -0.19      0.13
    9   10   16     -1.19     -0.01
   29    2    5     -1.66      0.10
    4    8   18     -0.99      2.01
   16   16    3     -0.24      0.11
   26    7    7      1.15     -1.29
   25   10    4     -0.81      0.65
   10   11   15     -0.02     -0.22
   10   18    2      0.48     -0.40
   17    4   16     -0.43      0.05
    3   19    2      0.47     -0.62
    9    2   19     -0.46      0.85
    4   19    1      0.97     -0.80
   14   17    0      0.72      0.01
   25    2   11     -0.03      0.36
   14   16    6      0.20      0.19
   23   11    6      0.14     -0.16
   28    6    4      0.39      0.91
   30    0    2      0.13     -0.08
    1    1   20     -0.10      1.22
    2   16   11      1.45     -0.16
   10   14   12      0.65      0.41
   20    0   15     -0.45     -0.00
    7   13   14      0.06     -0.11
   26    6    8      2.18      0.86
   30    2    0      0.12     -0.00
   22   13    2     -0.40     -0.47
    9   15   11      1.14      0.42
   19    4   15      0.82     -0.58
    3   10   17      0.06     -1.39
   22    9   10     -0.62      0.81
    2    6   19      1.19     -2.67
   16    0   17     -1.39      1.56
   24   11    4     -0.36     -1.68
    0   19    3      0.20     -2.01
   14   17    1     -1.39     -0.64
    1   18    7     -0.32      0.70
   13   11   14      0.06      0.89
   13   16    7      1.80      0.26
   30    1    2     -0.14      0.91
   24    5   11      1.36     -1.41
   29    5    2      1.79     -0.38
    1   19    3     -0.34     -1.99
   13   13   12      0.46      1.38
   24    2   12      0.15      0.11
   26    9    4     -0.04     -0.23
   20    1   15      1.75     -0.62
   30    2    1     -0.57      0.60
   14    5   17      0.13     -0.45
   23    9    9      0.47     -1.50
    4   17    9     -0.32     -0.67
   13    6   17     -0.74     -1.19
   26    2   10     -0.10     -0.54
   10    8   17      0.53     -0.71
    2    1   20     -0.24     -0.58
   21    6   13      0.86     -0.71
   13    2   18     -0.75      0.91
   16    1   17      0.78     -1.17
   15   16    5      0.28     -0.35
   25    5   10      0.17     -0.02
   23    8   10      0.09     -0.01
   12   17    5     -1.62     -0.19
   27    4    8      0.56      1.06
   17   11   12     -1.61     -0.17
   18    2   16      1.34     -0.51
    7   12   15      0.01      0.27
   28    7    2     -0.23      0.33
    2   18    7      0.37      0.41
   22   10    9      0.59      1.13
   21   10   10      0.56     -1.50
   23    1   13     -0.28     -1.32
    6   11   16      0.31     -0.38
    3   16   11      0.96      0.25
   21   13    5      0.54      1.74
    2   19    3     -0.84      1.14
   21    9   11     -0.43     -0.62
   10   16    9      0.27     -0.66
   27    1    9      0.12     -0.78
    7   14   13      0.72      0.36
   18   15    4     -0.01      0.65
    6    5   19      0.43     -1.17
   11   17    6     -0.97      1.06
    5   19    0      1.34      0.01
   26    8    6     -0.89     -0.94
    3    6   19     -0.61      0.83
    4   19    2      0.10     -1.37
   15   10   14     -1.54      0.08
    0    2   20     -0.05      0.17
   15   13   11     -0.09      1.39
   22    8   11     -0.10      0.15
   19   15    0      0.31     -0.00
    9   18    4      0.37     -0.17
   11    5   18      0.08      0.21
    6   18    6     -0.79     -0.56
    5    8   18     -1.26      1.14
   29    4    4     -1.27      0.62
    1    2   20      0.18      0.15
   23    5   12     -1.40     -0.32
    6   15   12     -0.39      0.45
    4   10   17     -0.41      1.27
   28    3    7     -1.71     -0.72
   12    4   18     -0.54     -0.09
   24    8    9     -0.90      0.52
   17   14    8      0.70     -0.62
    3    1   20      1.22      0.93
   10    0   19     -0.44     -1.03
    5   19    1      0.65     -0.05
   14   17    2      0.59     -0.65
   13   17    4      0.48     -1.15
   17   12   11     -0.22     -0.18
   19   15    1      0.41     -0.83
    8    9   17     -1.78      2.73
   18   14    7     -0.33     -1.04
   17   10   13     -1.13     -0.06
    8    7   18     -0.51     -0.21
   30    2    2     -0.06     -0.73
   15    4   17     -0.48     -0.38
    3   18    7      0.14     -0.80
   12    7   17      1.00     -1.48
   17    7   15      0.29     -1.71
   20    2   15      1.69      0.36
   10   18    3     -0.57      0.45
   20   14    4     -0.43      0.45
    8   18    5     -0.95      0.49
    3   19    3     -0.41      0.71
    2    2   20      0.50      1.34
   29    3    5      0.38      0.08
   10    1   19     -0.18      1.98
   11   12   14      0.82     -1.00
   11   18    0      1.15     -0.01
   12   16    8     -0.05      0.17
   30    0    3     -0.43     -1.08
   16    2   17     -0.47     -0.91
   17   16    0      2.29     -0.00
   23   12    4      2.09     -0.89
   11   13   13      1.43     -0.96
   23   10    8     -1.06     -1.30
   20   10   11     -2.47     -0.75
   22   12    6      0.14     -0.98
   24    9    8      2.24      1.95
    9    3   19      0.65     -0.70
    8    4   19      0.49      0.16
   26    5    9     -1.27     -0.79
   22   13    3      0.10      0.46
    5   17    9     -1.13     -0.47
   25    3   11     -0.61      0.25
    4   16   11     -0.81     -0.44
   23    2   13      0.14     -0.40
    8   17    8      0.07      1.94
    8   16   10      0.77     -0.98
   16   15    7     -0.96      0.89
   30    3    0     -1.60      0.01
   27    2    9      0.49     -1.23
   18    6   15      0.11     -2.51
   11   18    1     -1.16      0.14
    4    6   19     -1.03     -0.12
   10    6   18     -1.80      0.30
   26   10    0     -1.61      0.01
   17   16    1     -0.04      0.66
   19   13    8     -0.38      0.23
   30    1    3     -0.76     -0.49
   16   14    9      1.45      0.02
   21   11    9      0.97     -1.25
   29    5    3     -0.93      1.34
   27    8    4      0.41      0.96
   24    7   10     -0.71     -2.12
   16    8   15      0.82     -1.16
   25   11    0     -0.37      0.00
   12    9   16      0.76     -0.76
   16   16    4      0.69     -0.10
   10   17    7     -1.00      0.30
   23    7   11     -0.90      0.67
   18   13    9      0.29      1.42
   24    3   12     -1.40     -0.48
   21    4   14      1.62      0.02
    4    1   20     -0.09     -0.61
   21   14    0     -0.03     -0.00
    5   19    2     -0.85     -0.45
   30    3    1      0.11     -0.37
   16    6   16      0.19      1.14
   26    3   10     -1.11     -0.28
    8   13   14      0.26      0.15
    3    2   20     -0.35     -1.10
   15   15    8      1.16     -0.51
   26   10    1      0.18     -0.52
   20   11   10     -1.12      1.11
   21    8   12     -0.11     -1.24
   13    3   18     -0.30     -0.51
   19   15    2     -0.02      0.95
   13   10   15     -0.68      1.88
   28    7    3      0.14      0.50
   12   15   10      0.60     -0.37
   17   15    6     -0.28     -0.55
   15    7   16      1.12     -0.89
   25   11    1     -0.92     -0.95
   18    8   14      0.25      0.09
   19    7   14      1.22      0.21
   20    9   12      0.82     -0.72
   19   14    6     -0.34      0.29
   18    3   16      0.67     -0.22
    4   18    7     -0.12      0.42
    5   10   17      1.54      0.12
    6   19    0     -0.65     -0.00
    0   13   15      0.58      0.48
   10   10   16     -0.65      0.33
   13   14   11      1.64     -0.15
   21   14    1     -0.17      0.09
    4   19    3     -0.09     -0.89
   28    5    6     -0.93      0.51
    7   11   16     -1.42      0.73
    0   14   14      1.42      0.22
   22   11    8     -0.35      0.98
    1   13   15      0.33     -0.28
   10    2   19      0.67     -1.62
    1   19    4     -0.74     -0.15
    6    8   18      1.76     -1.62
   20   13    7      0.44     -0.25
   25    8    8      0.68      0.65
   22    0   14      1.17     -1.60
    7    5   19      0.02      0.64
   25   10    5      0.97      0.01
    1   14   14      0.76     -0.64
   22    5   13      1.22      0.68
    6   19    1      0.06     -0.66
    8   12   15      0.30     -0.45
   27    6    7      1.44      0.44
   27    9    0      0.46     -0.01
   28    0    8      1.58     -0.94
   10   15   11      0.04     -0.58
   11   11   15     -0.10      0.75
    1    3   20     -0.07      0.06
   11   18    2     -0.56     -0.04
   14   17    3     -0.45     -0.66
   25    7    9      0.15     -0.27
   28    6    5      0.45     -0.56
   17   16    2      1.29      0.18
    7   18    6      1.16      1.18
   29    6    0     -1.66      0.00
   14    0   18     -1.27      0.04
    7   15   12      1.47      0.03
    8   14   13      0.04     -0.69
   30    2    3      0.90     -0.42
   22    1   14      0.42     -1.08
    2   13   15     -0.59      0.12
    5   16   11     -0.07      0.05
   17    5   16      0.24      1.07
   11   14   12      0.31     -1.56
    2   19    4      0.89      0.28
   22    7   12      0.08     -0.62
   27    9    1      0.13     -1.42
   24   11    5     -0.16      0.28
   24   12    0     -0.09      0.01
   30    3    2      0.72     -0.09
    2   14   14      0.15     -0.48
    5    6   19      0.37     -0.05
   27    7    6     -0.76      0.48
   28    1    8     -0.14     -0.57
   26   10    2     -1.36     -0.25
   20    3   15      1.00      1.84
    4    2   20      0.28     -0.12
   29    6    1      0.08     -1.21
    2    3   20     -0.68     -0.40
    6   17    9      0.91      0.86
   19    5   15     -0.12     -0.41
   14    1   18     -1.13      0.52
   17   13   10     -0.66      0.71
   26    9    5      1.13     -1.10
   25   11    2      0.57     -0.68
   17    9   14      0.02     -0.15
   20    6   14      0.03      0.61
   16    3   17      0.30     -0.48
   11    8   17     -0.71     -1.24
    5    1   20     -0.13     -1.65
   24   12    1     -0.30      1.32
   21   14    2     -0.82     -1.29
   19   11   11      0.61     -0.66
   24   10    7      2.43     -0.10
   14    8   16     -0.02      0.19
   19   10   12      1.24      0.95
   14   12   13     -1.02      0.14
   23    3   13      0.90     -0.86
   15    9   15      0.40     -0.94
   14   15    9      0.98     -0.29
   28    4    7      0.42      0.84
    1    9   18      0.15     -0.24
   27    3    9     -0.15     -0.29
   15   14   10      0.34     -0.18
    0   12   16     -0.79      0.76
    5   18    7      0.38      0.20
    9    9   17      0.49     -0.44
   10   18    4      0.60      0.02
    3   13   15     -1.39      0.87
    6   19    2     -0.09      0.20
   18   15    5     -0.23     -1.16
    3   19    4      1.59      0.06
   27    5    8      1.44      0.86
    9    7   18     -0.23      0.39
    5   19    3      0.74     -0.45
   25    9    7      0.21      1.08
   11   16    9      0.18      0.84
    1   12   16      0.18      0.08
    3   14   14     -1.74      1.20
   19   15    3      0.94     -1.60
    9   18    5     -0.39      0.18
   22   13    4      0.22     -2.18
   29    4    5     -1.18      0.69
    3    3   20      0.69      0.89
    6   10   17     -0.23      0.09
   16   11   13      0.19      0.93
   16   12   12     -0.45     -0.04
    2    9   18      0.61     -1.62
    0   15   13      0.55     -1.23
   22    2   14      0.76      2.03
   15   17    0     -0.39     -0.01
   27    9    2      1.14     -0.38
   15   16    6     -0.02      0.63
    9    4   19     -0.65     -0.73
   12   17    6     -2.52     -0.79
   14   11   14     -0.38      0.35
   14   16    7      0.54     -0.10
   13   17    5     -0.56     -0.19
   23   11    7     -0.04     -0.28
    0    7   19     -0.95      0.12
   25    4   11     -0.71      0.08
   20   12    9      0.03     -0.04
    1   15   13      2.49     -0.95
   30    1    4      0.26      1.17
    9   17    8     -1.02      0.31
   28    2    8      1.24     -2.01
   24    6   11     -0.07      0.25
   29    6    2      0.26      0.51
    9   16   10     -0.19     -0.53
   29    5    4      0.47      1.08
    2   12   16      0.51     -0.59
   14   13   12      0.62     -0.70
   14    6   17      0.07      1.42
   21   13    6      0.09      0.66
    7   19    0     -0.96     -0.01
    1    7   19     -0.33     -1.36
   12    5   18      0.24     -0.51
   30    4    0      0.45      0.01
   14    2   18      0.28      0.13
   10    3   19     -0.28      0.10
   20   14    5      1.27     -0.71
   15   17    1      0.05      0.83
   24   12    2      0.38     -1.06
    1   17   10     -0.80      0.02
   25    6   10     -1.37      0.09
   11   18    3      0.61      0.60
   20    8   13      0.31      0.09
    7    8   18      0.73      0.65
   17   16    3     -1.07      1.38
   23   12    5     -0.04     -0.29
    5    2   20     -0.03     -0.81
   11    1   19     -0.66     -0.37
   28    7    4      0.04     -1.26
   21   12    8      0.28     -0.01
   15    5   17      0.99      1.26
    6   16   11      0.19     -0.62
   24    4   12      0.47     -0.26
    7   19    1     -0.17     -0.71
    2   15   13     -0.02      0.27
    9   13   14      0.91      0.68
   30    4    1      0.25      0.86
   26    7    8      0.20      1.01
   28    8    0      0.19     -0.00
    6    0   20     -1.51     -3.03
   26    4   10     -0.57     -0.46
    8   11   16     -0.09      0.64
   13    4   18      1.02     -1.05
    6    6   19      1.04      0.71
    4   13   15      0.84     -0.80
    2    7   19      1.55      0.07
    3    9   18      0.05      0.52
   30    3    3     -0.23      0.47
    4   19    4     -0.06     -0.51
   19   12   10      0.01      0.38
   26   10    3      1.11      0.11
   12   12   14      0.11     -0.04
   12   18    0      0.67     -0.00
   18    4   16     -0.12      2.22
    8    5   19     -0.50     -0.21
   19    1   16      0.40     -0.41
    2   17   10      0.01     -0.08
    4   14   14     -1.27     -0.45
   27    8    5      1.13      0.10
   19    9   13      1.46     -0.42
   12   13   13     -0.92     -1.19
   11    6   18      0.17     -1.90
   25   11    3     -0.17      0.42
   23    6   12      0.19     -0.58
    3   12   16     -0.44     -0.19
   16   16    5      1.26     -1.35
    0   18    8      0.29     -0.24
   28    8    1     -0.25      0.08
    4    3   20      0.20     -1.08
   13    7   17     -0.12     -0.71
    6    1   20      0.46      0.44
   21    7   13      0.31      0.49
    8   18    6      0.32      0.45
   29    3    6     -0.36     -0.14
   11   17    7     -0.86     -0.15
   21   14    3     -0.61     -1.11
   26    8    7      0.48      0.91
   14   17    4     -0.73      0.94
    1   18    8      0.07      0.93
    8   15   12     -0.74     -0.13
    7   17    9      1.23      0.45
   13   16    8      0.50      0.71
   12   18    1     -0.06      1.11
    0    4   20     -0.33     -1.87
    9   12   15     -0.52     -0.47
   23   13    0      0.18     -0.01
   17    1   17     -0.62     -0.20
    6   18    7     -0.63     -0.69
   30    2    4     -0.84      0.94
    1    4   20     -0.35     -0.98
   16   10   14      0.79      0.75
   21    5   14      0.73      0.42
    3   15   13     -1.34      2.21
    6   19    3      1.47      0.74
   15   17    2      0.13      0.09
   16   13   11      1.13      0.34
    0   19    5      0.96     -0.82
    9   14   13      0.72     -0.11
   11   10   16     -0.65      0.78
    3    7   19      0.14     -0.57
    1   19    5     -0.50     -0.05
    2   18    8     -0.04      0.52
   23   13    1     -1.34      1.70
   26    6    9     -1.22     -1.63
    3   17   10      0.74      0.11
    7   19    2      1.24      0.62
   11    2   19      0.12     -0.34
   30    4    2     -0.40      0.02
   18   11   12     -0.88      1.14
   13    9   16      0.35     -1.13
   20    4   15     -0.09      0.55
   27    9    3      1.34     -0.26
    2    4   20      0.01      0.90
    4    9   18     -0.23      0.80
   11   15   11     -0.07      0.63
   16    4   17      0.28      0.67
   26    0   11      1.71     -0.33
   22    3   14     -0.04      1.23
   22   12    7     -0.91      0.98
    7   10   17     -1.39      0.26
   29    6    3      0.97     -0.86
   13   15   10      0.39     -0.33
   19    2   16      1.04      0.21
   28    8    2      0.99     -0.27
    4   12   16      0.42     -0.25
    2   19    5      0.02      0.50
   28    3    8      0.04      0.69
   23    4   13     -0.50     -0.34
    5   13   15      2.30      0.06
   24   12    3     -1.02     -0.39
    5   19    4     -0.20     -0.44
    6    2   20      0.28     -1.76
   27    4    9     -1.38     -1.31
   14    3   18     -0.20      0.08
   12   11   15     -0.33      0.51
   12   18    2     -0.28      0.30
   19   15    4      0.79     -0.73
   14   10   15      0.71     -0.11
    5   14   14      2.46     -0.71
   18   14    8      0.18      0.99
   26    1   11      1.92      0.21
    0   11   17     -0.36     -1.09
   21    1   15      2.24      0.15
    3   18    8      0.94     -1.50
    5    3   20      0.19     -0.78
   25   10    6      0.08     -1.98
   18   12   11     -1.45     -0.17
   18   10   13     -0.16      0.60
   17    2   17      0.42     -0.85
   14   14   11     -0.06     -0.63
   12   14   12     -0.44     -0.01
   25    1   12      0.21     -0.35
    4   15   13     -0.85      0.52
    1   11   17      0.02     -0.15
   10    9   17      0.14     -1.31
   28    6    6     -1.35     -1.35
    8   19    0      0.60      0.00
    3    4   20     -0.56      0.47
   18    7   15     -1.51     -1.28
    7   16   11      0.97     -0.40
    4    7   19     -1.21      0.81
   10    7   18      0.93     -1.73
   23   13    2     -0.65      0.38
   17   15    7      0.87      0.45
   20   15    0      0.77     -0.00
   23    9   10     -0.59      0.19
    4   17   10     -0.47     -0.00
    7    6   19     -1.10     -1.45
   19   14    7     -0.58     -0.13
   18   16    0      0.84      0.01
   22    6   13      0.43      0.20
    8    8   18     -1.37     -0.10
   10   18    5      1.11     -0.92
   17   14    9      0.20      0.19
   16   15    8      0.45     -1.00
   24   11    6      0.37     -0.76
    3   19    5      0.49     -0.72
   11   18    4     -0.17      0.53
   12    8   17     -0.55     -0.00
   17    8   15     -0.18     -0.48
    8   19    1      0.55      0.27
   17   16    4      0.86     -0.11
   28    5    7      0.95     -1.25
   16    7   16     -0.60      0.46
    2   11   17     -0.08      1.34
   10    4   19     -0.51     -0.82
   22   10   10      0.47     -0.77
   20   15    1      0.46     -0.23
   26    9    6     -0.22     -1.29
    7    1   20     -1.03     -1.75
   22   13    5     -0.85     -0.98
    0   16   12     -0.22     -1.70
   17    6   16     -0.30      0.36
   18   16    1      0.43      0.25
   10   17    8     -0.05     -1.23
   22    9   11      0.28      1.06
   10   16   10     -0.33     -0.36
   27    1   10      1.68      0.71
   15   17    3     -0.42      0.12
   30    3    4     -0.67      1.08
    1   16   12      0.27     -4.77
    5    9   18     -0.37      0.39
   24    0   13      0.51     -0.49
   12   16    9     -0.62     -0.04
   26   10    4      0.58     -0.54
    7   18    7      1.22     -0.37
   23   10    9      1.27      0.18
    9   11   16      0.53      0.01
   24    9    9      0.34     -0.48
   29    5    5     -0.29     -0.70
   19    6   15     -1.22      1.07
   25   11    4      0.30     -0.99
    7   19    3      0.82      0.59
   30    4    3      0.42      0.51
   26    2   11      0.00      0.27
    5   12   16      0.55      0.17
    4   18    8     -0.03     -0.23
    8   17    9     -0.68     -0.77
    9    5   19     -1.29      0.28
   24    8   10     -0.43     -1.00
   21    2   15      0.32      0.09
   18   15    6     -1.23      1.03
   21   14    4      0.01     -1.01
   25    5   11     -0.14      0.92
   10   13   14     -0.85      0.80
   11    3   19     -1.20     -0.80
   27    7    7     -0.65      0.72
   23    8   11     -0.89     -0.08
   25    2   12     -0.01     -0.46
   24    1   13      0.08     -0.12
   15    1   18     -0.68      0.11
   19   13    9      0.13      0.52
    4    4   20      0.84      0.19
   28    7    5     -1.32     -0.11
    2   16   12      0.03      0.50
   12    0   19      0.05      0.13
    9   18    6      0.70      0.10
   30    5    0     -1.23      0.00
   21   10   11     -0.84      0.16
   20   13    8     -0.88      1.18
   29    7    0     -1.44      0.00
    3   11   17      0.51     -0.20
   29    4    6      0.20     -2.39
    9   15   12     -0.23      0.32
   28    8    3     -0.07     -0.54
    6   13   15     -0.87      0.71
    6   19    4      0.40      0.30
   15    8   16     -0.06     -0.19
    5   15   13      2.47     -2.23
   27    6    8      1.12     -0.35
   19    8   14      2.26     -0.15
   15   12   13     -0.20      1.18
    4   19    5     -0.49     -0.17
   19    3   16      1.56      1.28
    6   14   14      0.30      1.69
   13   17    6      1.14     -1.08
   15   15    9      0.13     -0.36
    8   19    2      0.98      0.33
    5    7   19      0.01     -1.11
   31    1    0      0.01      0.00
   12   18    3      0.23     -0.24
   24    5   12     -0.32     -0.82
   30    5    1     -0.34     -0.63
   20   15    2     -0.55      0.89
   12    1   19     -0.23     -1.12
   29    7    1      0.66      1.09
    6    3   20     -0.21     -0.18
   26    5   10     -0.74     -0.54
    5   17   10     -0.53      0.60
   18   16    2     -0.54      0.34
   13    5   18      0.20     -0.09
   10   12   15     -1.31      0.59
   20    7   14      1.43      0.04
    7    2   20      0.50      1.23
   20   14    6     -0.36      0.04
   27    9    4      0.48     -0.42
    8   10   17     -0.42     -0.28
   27    2   10      0.54      0.27
   16    9   15     -0.33     -0.43
   14   17    5      1.75     -0.99
   18    5   16      1.13      0.16
   23   12    6      2.21     -0.72
   17    3   17      0.10      0.97
   31    1    1     -0.52      0.02
   22   11    9     -0.46     -0.55
   16   14   10     -0.36      0.22
   21   11   10     -0.22     -0.54
   29    6    4      0.36     -0.34
   10   14   13     -0.14      0.82
   23   13    3     -1.46     -0.97
   25    8    9     -0.24      0.06
   30    2    5     -0.47      0.53
    3   16   12      1.33      2.89
   12    6   18      0.96      0.26
   21    9   12      0.39     -1.08
   18   13   10     -0.20      1.23
   15   11   14     -0.77     -0.81
   22    4   14      0.44      0.17
   15   16    7      0.04     -0.58
   24   12    4     -0.11     -0.81
   22   14    0      1.18      0.01
   28    0    9     -0.05      0.12
   24   10    8      0.13     -0.42
   18    9   14      0.32     -0.82
   12   17    7     -0.01     -0.49
   15   13   12     -0.46     -0.10
   22    8   12     -0.23     -0.61
   13   12   14     -0.17      0.67
   13   18    0     -0.18      0.02
   15    6   17      0.17      1.85
   27    8    6      0.51      1.75
   28    4    8      1.22      0.14
   13   13   13     -0.84      1.14
    1    5   20     -0.54     -1.05
   24    2   13     -0.23      0.05
   15    2   18      0.70     -0.56
   16   17    0     -0.56     -0.00
   21   13    7      0.06      0.35
   16   16    6      0.09     -0.50
    4   11   17      0.83     -1.75
    5   18    8     -1.12      0.40
   14    4   18      0.72     -0.03
    8   16   11     -0.27     -0.19
    6    9   18     -0.27      1.38
   22   14    1     -0.22      0.73
   25    9    8      0.85     -0.01
   28    1    9     -0.36     -1.36
    8    0   20     -0.38     -0.24
   17   11   13      0.07      0.30
   17   12   12     -0.52      0.86
   13   18    1      0.21      0.04
    5    4   20      0.04     -1.79
    8    6   19     -1.13      0.82
   12   10   16      0.70     -0.79
   30    5    2      0.82     -0.71
   31    2    0     -0.31      0.00
   24    7   11     -1.02      0.25
   29    7    2      0.59     -1.51
    6   12   16     -0.39      0.18
   16   17    1      1.10      0.30
   20    5   15     -0.39      1.23
    9   19    0      0.22      0.02
   14    7   17     -0.69      1.34
   12    2   19     -1.42      0.54
    2    5   20     -0.46      0.41
    5   19    5     -0.62      1.05
   16    5   17     -0.83      0.72
   26    3   11     -0.06     -0.59
   25    7   10     -1.49     -1.53
   14   16    8      0.31     -0.62
   23   11    8      1.25     -1.14
    8    1   20     -0.29      0.22
   20   11   11     -0.96      0.61
   31    1    2     -0.31      0.57
   19   15    5      0.05     -0.85
    9    8   18     -1.43     -1.23
   20   10   12     -0.84      0.82
   21    3   15      0.30      1.69
    1   19    6     -0.13      0.12
   12   15   11     -0.54      0.09
   31    2    1      0.63     -0.91
   25    3   12      0.31     -0.78
   23    5   13      0.21      0.86
    4   16   12     -0.25     -0.33
    9   19    1     -0.36      1.40
    6   15   13      0.42     -0.08
   21    6   14     -0.22      0.39
   15   17    4     -1.43      0.56
    8   18    7      0.07     -0.44
   27    5    9     -0.75     -0.18
   29    3    7      2.93     -0.36
   26   11    0     -0.41     -0.01
    6    7   19      0.34     -0.57
    8   19    3     -0.01      0.13
    6   17   10      0.56     -0.03
   11    9   17     -0.14     -0.81
   20   15    3     -0.46      1.13
   23    1   14      0.89      1.45
    7   13   15     -0.91     -0.76
   14    9   16     -0.07     -0.01
    7   19    4      0.01     -0.28
   27   10    0     -1.56     -0.01
   11    7   18     -0.93     -0.60
   30    4    4      0.44     -0.37
   18   16    3     -0.75      0.15
    2   19    6     -0.22      0.13
   23    7   12     -0.56     -0.01
    7   14   14     -1.54     -0.33
    1    8   19      0.39     -0.48
   22   14    2      0.56      1.61
    3    5   20      0.49      0.25
   26   11    1      0.51     -0.13
   11   18    5      0.08      1.46
   13   11   15     -0.54     -0.39
   17   16    5      0.34      0.04
    7    3   20     -0.78     -0.24
   13   18    2      0.43      0.01
    9   17    9      0.10     -0.51
   28    2    9     -0.41      0.72
   14   15   10      0.13     -0.37
   27    3   10     -0.54      0.39
   16   17    2      0.63      0.60
   27   10    1      0.39     -1.37
    5   11   17      0.04      1.06
   11    4   19      0.35      0.99
   28    8    4      0.60      0.76
   10   11   16     -0.42     -0.43
   18    0   17      0.39     -1.56
   13   14   12      0.10      0.69
   11   17    8      1.39      1.17
   26    8    8     -1.84      0.49
   30    3    5      0.71     -0.28
   11   16   10      0.31      0.23
   10    5   19      0.34     -0.91
   26   10    5     -0.67     -0.03
   12   18    4     -0.32      0.66
    2    8   19     -0.12     -0.69
   17   10   14      0.29      0.04
   21   12    9     -0.32     -0.13
    8    2   20     -1.96     -0.68
   20    0   16      2.60      0.88
   17   13   11     -0.25     -0.97
   31    2    2      1.03      0.27
   25   11    5     -0.55     -1.09
    6   18    8     -1.00     -0.45
   25   12    0     -2.08      0.00
   19    4   16      1.28     -0.74
   26    7    9     -1.30     -1.44
    9   19    2     -0.68     -0.29
    0   10   18      1.80     -1.39
   10   18    6     -0.30     -1.22
    3   19    6      0.40     -0.12
   24    3   13      0.16      0.03
   15    3   18     -0.23      0.37
   18    1   17      0.06      1.35
   21   14    5     -1.29     -0.31
   10   15   12      0.49      0.59
   15   10   15      0.08     -1.09
   13    8   17      1.53      0.71
    6    4   20     -0.02      0.29
    1   10   18      0.28     -0.80
   21    8   13      0.50      0.12
   20   12   10      0.10     -0.74
   11   13   14     -0.08     -0.63
   30    5    3      0.57      0.34
   23   13    4     -0.63      0.59
    9   10   17     -0.82      0.95
   29    7    3      0.06      0.03
   20    1   16      0.15      1.13
   22   13    6      0.43      0.27
   25   12    1      0.48     -0.43
   15   14   11     -0.35      0.61
    5   16   12     -1.29     -2.13
   20    9   13     -0.42     -0.41
    7    9   18      0.38     -1.01
   25   10    7     -0.41     -0.77
   23    2   14      0.38      1.27
    6   19    5     -0.75     -0.32
   17    4   17     -0.06      0.02
   31    3    0     -1.65     -0.00
   26   11    2      0.52     -1.71
    1   18    9     -0.03     -0.18
    4    5   20     -0.54     -0.93
   28    6    7      0.59      1.23
   28    9    0     -1.01      0.00
   12    3   19      0.21      0.13
   13   16    9      0.36      0.03
   31    1    3      0.13     -0.32
    7   12   16     -0.04     -0.05
   22   12    8      0.02     -0.00
   29    5    6     -0.14      0.47
    2   10   18     -1.48      1.04
    3    8   19     -0.02      1.10
   27   10    2     -0.35     -0.39
   27    9    5      1.12     -0.76
   24   11    7     -1.45     -0.36
   31    3    1      0.10      0.12
   19   11   12     -0.40     -0.15
   11   12   15      0.11      0.36
   28    9    1     -0.36     -0.02
   28    7    6      0.62      0.50
   29    6    5      0.20      0.58
    9   16   11     -1.78      0.12
    0   20    0      1.48      0.01
    2   18    9     -0.38      0.30
    7   15   13     -2.29      1.23
   26    9    7     -0.12      2.03
    0   17   11     -0.96     -0.54
   11   14   13     -0.94     -0.25
    9    6   19      0.51     -0.20
    7    7   19      0.40      2.00
    1   20    0     -0.37      0.02
   22    7   13      1.17     -1.27
   24   12    5     -0.77      0.21
   22   14    3     -0.57     -0.43
    1   17   11     -2.40     -1.53
   25    6   11      1.53     -1.52
    4   19    6     -0.95      0.79
    7   17   10      0.93     -1.59
   18    2   17     -0.59      0.54
   29    1    8      0.33     -0.55
   13   18    3     -0.47     -0.56
   30    6    0     -1.49      0.01
   17   15    8     -0.05     -0.18
    6   11   17     -0.16      1.22
   13    1   19     -0.55      0.31
   16   17    3     -0.44      0.09
   25   12    2     -0.09     -0.23
   19   14    8     -0.27     -0.12
    9    1   20     -0.49      0.20
    3   10   18      0.54     -0.76
   26    4   11      0.43      0.25
   22    5   14      0.20      0.94
   17    7   16     -1.64      0.10
   28    3    9     -1.01     -0.59
   20    2   16     -0.62      0.31
   16    0   18      0.15     -0.31
    1   20    1     -0.72      0.59
   18   15    7      0.30     -0.39
   21    4   15      0.07      1.81
   19   12   11     -1.06      0.17
   14   17    6      1.57     -0.25
   10   19    0     -0.36     -0.01
   19   10   13      0.63     -1.28
    8   13   15      0.60     -0.14
    2   20    0     -1.20     -0.01
   25    4   12     -0.11      0.56
    8   19    4     -0.64      0.03
   28    5    8      0.26      0.37
    2   17   11      0.09      0.90
   18   14    9     -1.34      0.68
   24    6   12     -1.50     -1.10
   30    6    1      1.00      0.68
    9   18    7     -2.18      0.37
   20   15    4      0.52     -0.61
   31    2    3      1.60      1.94
   26    6   10     -0.91      1.24
    8   14   14      0.07     -0.63
   30    2    6     -0.48     -0.53
   18    8   15     -0.42     -0.36
   19    7   15     -0.26      0.84
   29    4    7      0.23      0.15
    4    8   19     -0.12     -0.21
   14    5   18     -1.01      1.24
    3   18    9     -0.23     -0.16
   13    6   18      0.07      2.08
   18   16    4     -0.45      0.17
   10    8   18      0.59      0.42
    9   19    3     -0.70     -0.59
    8    3   20      0.83      1.02
   31    3    2      0.11     -0.50
   16    1   18      1.37     -0.19
   19   16    0     -1.75      0.00
   18    6   16     -0.38     -0.58
    5    5   20      0.78      1.77
   10   19    1     -0.27     -0.29
   13   17    7      0.05      0.64
    2   20    1     -0.46      0.81
   24   13    0     -0.97      0.01
   28    9    2      0.98     -0.41
    7   18    8      0.15      0.76
    6   16   12     -0.16      0.44
   22    0   15      1.95      0.97
   16    8   16     -0.59     -1.31
   16   12   13     -1.16     -0.45
    1   14   15      0.02      0.61
    7    4   20      0.36      0.84
   16   15    9     -0.50     -0.58
   20   14    7      1.37      1.05
   15   17    5      0.71     -0.18
   19   16    1      0.33      0.46
    0    6   20     -1.42     -1.69
   27    7    8     -0.08     -0.53
   26   11    3      0.13      0.14
   27    4   10      0.09     -0.72
   14   12   14     -1.73      0.82
   24   13    1      0.12     -0.60
   23    3   14      0.41      0.80
   14   18    0      0.22      0.00
   23   12    7     -0.36     -0.98
   13   10   16      0.88     -0.96
    3   20    0     -0.57     -0.03
   14   13   13      0.90      1.51
    0   20    2     -1.06     -0.16
    1    6   20     -1.31      0.82
   29    2    8      1.12      1.34
    3   17   11      2.20      0.44
   21   15    0      0.85     -0.00
    7   19    5     -0.06      0.50
   27   10    3     -0.19     -0.29
   22    1   15     -2.36      1.17
   30    4    5      0.02     -0.70
   10   17    9      0.41     -0.12
    4   10   18      1.99     -0.41
   13    2   19      0.40      0.07
    1   20    2     -1.57     -0.70
    9    2   20     -0.38      0.11
    5   19    6     -0.45      1.39
    2   14   15     -0.37      0.85
   14   18    1     -0.32     -0.71
   19   15    6     -0.50      0.28
    8    9   18     -0.51     -0.41
    1   13   16     -0.06      0.36
    3   20    1      0.18      0.40
   27    8    7      1.19      0.06
   30    6    2      0.85     -0.36
   30    5    4     -1.14     -0.31
   13   15   11      0.45      0.19
   29    7    4      0.59      0.22
   21   15    1     -0.43      0.12
   24    4   13      0.92      0.25
   15    4   18     -1.51      1.18
   12    9   17      0.60     -0.57
   16   11   14     -0.73     -0.91
   17    9   15     -0.30     -0.19
   16   16    7     -0.39     -0.24
   20    6   15     -0.45      2.44
   28    8    5     -0.82     -0.28
    4   18    9     -0.55     -0.45
   12    7   18     -0.50      0.82
    2    6   20      0.14      0.04
   29    8    0     -0.01      0.00
   17   14   10      0.33      0.97
    8   12   16     -0.59      0.81
   16   13   12     -1.22      0.24
   11   11   16     -0.45     -0.17
   16    6   17      0.17     -0.71
   10   19    2     -1.11      0.32
    2   20    2      0.51      0.40
   16    2   18     -0.92      0.25
   31    1    4     -1.64      2.40
   12   18    5     -1.20      0.41
    1   15   14      0.79     -0.12
   11    5   19      1.72     -0.71
   20   13    9     -0.14      0.05
   15    7   17     -0.21      0.14
    5    8   19     -0.29      0.10
   31    4    0     -0.18      0.01
   23    6   13      0.11     -0.09
   25   12    3      0.30     -0.27
    2   13   16      0.08      0.23
   18    3   17     -0.10     -0.89
   12    4   19      0.50      0.09
   29    8    1      0.14     -0.09
   10   10   17      0.79     -0.48
   27    6    9     -1.51     -0.76
    0   19    7      0.31      0.19
   15   16    8     -0.77      0.28
   19   16    2     -0.84     -0.48
   11   18    6     -1.58     -0.49
    8   15   13      0.59      0.34
   12   17    8      0.44     -0.31
   20    8   14      0.85     -0.02
   12   16   10      0.18      1.02
   24   13    2     -0.07     -0.67
   17   16    6      0.50      0.32
    7   11   17     -0.30     -0.33
   20    3   16      1.17     -0.54
    3   14   15     -0.10     -0.94
   11   15   12      0.44      0.17
   23   10   10     -1.28     -0.05
   26    0   12      1.02      1.75
   24    9   10     -1.05     -0.77
    1   19    7      0.78      1.09
   23   13    5      0.80     -2.26
    8    7   19     -1.12     -1.22
   19    5   16      0.25      0.12
    4   20    0      0.91      0.01
   31    4    1      0.29      0.11
   21   13    8     -0.37      0.43
   23    9   11      0.26      0.26
    4   17   11      0.53     -1.12
    2   15   14     -0.77      0.59
    8   17   10     -0.08      0.12
   22    2   15     -0.31      0.65
    6    5   20      0.16     -0.59
   31    3    3      0.08     -0.58
   22   14    4     -0.70      0.21
    3    6   20     -0.17     -0.61
   30    3    6      1.08     -0.47
   14   11   15     -0.59     -0.12
   28    9    3      0.50      0.05
   14   18    2      0.62      0.20
   26   10    6     -0.23      0.42
   19   13   10      0.55     -0.06
   13   18    4     -0.90     -0.47
   15    9   16     -1.18     -0.21
   26    1   12     -0.23      0.09
    3   20    2      0.68      0.03
   19    9   14      0.33     -0.55
   22   10   11      1.24     -0.28
   12   13   14      0.21     -0.95
    4   20    1      0.05     -1.09
   25   11    6     -0.83      0.03
   21   15    2      0.47     -0.09
   16   17    4      1.14     -0.16
   18   11   13     -0.07     -0.62
   17    5   17      0.34     -0.68
   18   12   12     -0.47     -0.61
    2   19    7     -0.80      0.81
    5   10   18     -1.01      1.31
   10   16   11      0.88      0.86
   27    1   11      1.63      0.50
   14   14   12     -0.10      0.26
    3   13   16      0.36     -0.80
   21    7   14     -0.73     -0.34
   10    0   20     -0.61      0.85
   21   14    6      0.45      0.65
   24   10    9     -0.54     -0.55
   10    6   19      0.27     -0.26
   15   15   10     -0.22      1.18
    7   16   12     -0.33      1.70
   28    4    9     -1.27      0.57
   31    2    4     -0.09      0.53
    9   13   15     -0.09      0.15
    5   18    9      0.40      1.16
    9   19    4     -1.00      1.10
    3   15   14     -0.69     -0.50
    6   19    6      1.12     -1.29
   29    8    2      0.17     -0.67
    1   20    3     -0.21      0.23
    8   18    8      0.22      0.52
   29    3    8      0.31     -0.07
   25    9    9     -0.67      2.47
    9   14   14      0.52      0.73
   14    8   17     -0.89     -0.33
   10    1   20      0.04      0.16
   12   12   15     -0.03      0.07
   13    3   19      1.02      1.04
   22   11   10      0.18     -1.49
    4   14   15      0.42      0.16
    9    3   20     -0.69     -0.77
   30    6    3     -1.14      0.81
    8    4   20     -1.51     -0.44
   31    4    2      0.34     -0.06
   22    9   12     -0.00      0.03
   10   18    7     -0.57     -0.23
   12   14   13     -0.01      0.28
   25    1   13      1.24      1.26
   27    9    6     -0.50     -0.35
    3   19    7     -0.27     -0.49
   28    0   10      2.23     -0.74
   26   11    4      0.06      0.25
    1   12   17      0.12     -0.06
    4    6   20      0.98      0.31
   10   19    3     -1.08     -0.13
   14   16    9      0.57     -0.29
   23   11    9     -0.80      0.76
    2   20    3     -0.24     -0.43
    8   19    5      1.30      0.51
   29    6    6      0.16      0.14
   11   19    0     -1.12     -0.02
    6    8   19      0.28     -0.02
    5   20    0     -1.50      0.04
   20   15    5     -0.64      0.19
    4   20    2     -0.40     -0.90
   26    5   11     -0.17     -0.27
   22   13    7     -0.03     -0.69
   27   10    4      0.26     -0.93
   16    3   18     -0.27     -0.48
   26    2   12      1.00     -1.17
   18   16    5     -0.23      0.26
   16   10   15      0.24     -0.89
   21    5   15     -0.34      0.86
   23    4   14     -1.21      0.69
   23   14    0      0.34     -0.00
    4   13   16     -0.15     -0.31
   11    8   18      1.88     -0.71
   24   12    6     -0.85      0.64
   25    5   12      1.65      0.35
   27    2   11     -0.45     -1.56
   28    1   10      0.17      0.65
   24   13    3     -0.73     -0.13
   16   14   11     -0.83      0.11
   21   11   11     -1.31     -0.04
   14    0   19     -1.38      0.05
   11   19    1      0.45     -1.28
   29    5    7     -0.54     -0.04
    2   12   17      0.21     -0.29
   21   10   12     -0.59     -0.70
    5   20    1     -0.45     -0.96
   18   10   14     -0.32     -1.05
    9    9   18     -0.38      0.17
   23   14    1     -0.55      0.36
    4   15   14      0.71      0.01
   18   13   11     -0.85     -0.19
   14   18    3     -0.35      0.69
   22    3   15      0.54     -0.42
   10    2   20      0.65      0.82
    3   20    3     -0.47     -1.24
    9   12   16     -0.20      0.14
   14    1   19      0.98      0.17
   21   15    3     -1.06      1.20
   25   12    4     -0.59     -0.99
    6   10   18     -2.42      0.42
    7    5   20     -0.62     -0.98
   25   10    8      2.12      2.07
   22    6   14     -0.62     -0.95
    8   11   17     -1.04     -0.24
   27    5   10     -1.98      0.30
   11   17    9     -0.21      0.07
    4   19    7      0.89     -1.62
    0    9   19      2.13     -1.22
   25    2   13      0.67      0.64
   18    4   17      0.92      0.21
    5   14   15      0.52      0.11
   19    1   17      0.02     -1.18
   30    5    5     -0.90     -0.43
    1    9   19      0.21      0.31
   29    7    5     -0.19     -0.38
    6   18    9      0.54      0.50
   14    6   18     -0.09     -0.56
    3   12   17     -0.09     -0.04
    9   15   13      1.26     -0.29
   29    8    3     -0.45      0.32
   20    4   16      0.92     -0.31
   15   17    6     -0.65     -0.19
   24   11    8      0.27     -0.68
   31    3    4      0.33     -1.13
    9    7   19     -1.01     -0.71
    5    6   20     -0.18     -0.38
   14   17    7      1.09     -0.06
   24    0   14      1.02      3.19
   28    9    4      0.01      0.33
   31    1    5      0.11      0.04
    9   17   10     -0.83      0.76
   28    2   10      0.63      0.74
   24    5   13     -0.02     -0.14
   11   19    2      0.41     -0.27
   15    5   18      0.03      0.10
    5   20    2     -0.10     -1.56
   26    9    8      0.71     -0.06
   31    4    3     -0.18      0.05
   30    7    0      0.52      0.00
    7   19    6      1.04     -0.96
   30    4    6      0.33     -0.64
   23   14    2     -0.05      0.97
    8   16   12      1.30      0.09
   11   10   17      0.59     -1.02
   24    1   14     -0.41      0.18
    2    0    0    -63.14      0.00
    4    0    0     11.77     -0.00
    6    0    0    -26.98      0.00
    8    0    0     14.63      0.00
   10    0    0     -9.85     -0.01
   12    0    0      3.05      0.00
   14    0    0     -4.11      0.00
   16    0    0      2.86     -0.00
   18    0    0      1.32      0.00
   20    0    0     -1.15      0.00
   22    0    0      1.34     -0.01
    1    1    0     33.32     -0.00
    2    1    0      2.40      0.00
    3    1    0    -16.33      0.00
    4    1    0     -6.82     -0.00
    5    1    0    -16.54     -0.00
    6    1    0      4.24     -0.01
    7    1    0     -0.10     -0.00
    8    1    0     -7.15      0.00
    9    1    0     -3.19      0.01
   10    1    0      8.80      0.00
   11    1    0      1.37     -0.01
   12    1    0     -3.24     -0.01
   13    1    0     -2.02      0.00
   14    1    0      0.25      0.01
   15    1    0      0.04      0.00
   16    1    0     -1.65      0.00
   17    1    0      1.59     -0.00
   18    1    0      1.15     -0.01
   19    1    0     -0.52      0.00
    0    2    0     12.69      0.01
    1    2    0     -8.60      0.03
    2    2    0     23.30     -0.02
    3    2    0     -7.14     -0.03
    5    2    0      5.22      0.03
    3    3    0    -12.37     -0.01
   31    5    0     -0.67     -0.01
   29    9    0     -0.00      0.01
   28   10    0      0.63     -0.00
   27   11    0     -0.77      0.00
   26   12    0     -0.72     -0.01
   25   13    0     -0.83      0.00
   22   15    0     -0.35     -0.00
   20   16    0      0.32     -0.00
    8   17    0      0.09     -0.01
   17   17    0      0.72      0.01
   18   17    0      1.05     -0.00
   15   18    0      0.15     -0.02
   12   19    0      0.68      0.01
    6   20    0     -0.97     -0.01
    7   20    0      0.70     -0.03
    2    0    1    -30.48     32.61
    4    0    1     -5.74     -0.98
    6    0    1      6.03     -4.63
    8    0    1     -1.40     -2.57
   10    0    1      5.61      2.87
   12    0    1     -4.46     -2.32
   14    0    1      4.73     -0.24
   16    0    1      0.15     -2.66
   18    0    1      0.22      0.75
   20    0    1      0.65     -0.10
    0    1    1    -24.62    -38.46
    1    1    1    -20.66     17.83
    2    1    1     18.18     33.39
    1    2    1     -7.15      4.54
    2    2    1    -17.60     10.08
    4    2    1     -0.73     10.04
    5    2    1     -0.03      4.17
    2    3    1     -2.84     -3.28
    3    3    1     -0.24      5.35
   31    5    1      0.71      0.01
   30    7    1      0.34      0.00
   29    9    1      0.02      0.24
   28   10    1      0.42     -1.14
   27   11    1      0.62      0.25
   26   12    1     -0.42     -0.83
   25   13    1      0.47     -0.10
   22   15    1      0.33     -0.24
   20   16    1     -0.72     -0.51
   17   17    1      0.03     -0.79
   18   17    1     -0.39      0.18
   15   18    1      0.35      0.13
   12   19    1      0.37      0.23
    6   20    1      0.19      0.43
    7   20    1      1.36     -0.08
    0    0    2      3.73     16.97
    2    0    2    -10.38     20.35
    4    0    2      9.69    -35.85
    1    1    2     -4.51     19.39
    4    1    2      0.89      3.81
    2    2    2      2.84     -4.25
    3    2    2     12.87      5.54
    4    2    2     -0.53      3.04
    1    3    2     -0.86      8.30
    2    3    2      1.71     -8.85
   31    5    2      0.03     -0.41
   30    7    2     -0.14     -0.32
   28   10    2      1.37      0.30
   27   11    2     -0.28     -0.29
   26   12    2     -0.60     -0.17
   22   15    2     -0.41     -0.12
   20   16    2      0.08     -0.14
   17   17    2     -0.31      0.16
   18   17    2     -0.49     -0.48
   15   18    2     -0.03      0.32
   12   19    2      0.74     -0.25
    6   20    2      0.45      0.50
    7   20    2      0.12      0.51
    2    0    3     -5.82    -15.12
    0    1    3      6.47     -0.17
    3    1    3     -3.27      1.91
    2    2    3     -0.96     -5.00
    3    2    3      1.17      0.78
    0    3    3      1.95     -9.69
   31    5    3      0.14      0.51
   30    7    3      0.72     -0.01
   27   11    3      0.41     -0.39
   23   14    3      0.66      0.88
   19   16    3      0.39      0.35
   17   17    3     -0.17     -0.26
   15   18    3     -0.21     -0.06
   11   19    3      0.45      0.34
    4   20    3      0.15      0.11
    5   20    3      0.81      0.77
    6   20    3      0.79      0.38
    0    0    4    -12.95     -9.00
   30    0    4     -0.21     -0.30
   31    4    4     -0.59      0.27
   30    6    4     -0.03      0.80
   29    8    4      0.05     -0.52
   24   13    4     -0.20      0.06
   23   14    4      0.05     -0.39
   21   15    4     -0.67      0.93
   19   16    4     -0.80      0.36
   17   17    4      0.71     -0.05
   14   18    4     -0.42     -0.42
   10   19    4      0.35     -0.04
   11   19    4      0.30     -0.31
    0   20    4     -0.39      0.15
    1   20    4     -1.42      0.12
    2   20    4      0.53     -0.26
    3   20    4      1.14     -0.04
    4   20    4      0.24      0.12
    5   20    4      0.36      0.18
   28    0    5     -0.84     -0.37
   30    0    5      0.00      1.97
   28    1    5      0.14      1.16
   29    1    5     -0.05      0.65
   30    1    5     -0.06     -0.88
   31    2    5      0.95      0.18
   31    3    5      0.10     -0.10
   30    6    5     -0.69      0.11
   28    9    5     -0.13      0.73
   27   10    5     -0.20      0.44
   26   11    5      0.02     -0.06
   25   12    5      0.11      0.65
   22   14    5     -0.71     -0.11
   19   16    5     -0.69      0.21
   16   17    5     -0.41      0.00
   13   18    5     -0.41     -1.60
    9   19    5      0.12      0.32
   10   19    5     -0.70      0.42
    1   20    5      0.11      0.22
    2   20    5      0.14     -0.02
   28    0    6     -1.84     -0.04
   30    0    6      1.04     -0.61
   27    1    6      0.18      0.50
   28    1    6     -0.79      0.36
   29    1    6     -0.61     -0.68
   30    1    6     -0.02     -0.63
   31    1    6     -0.31     -0.79
   28    2    6      0.17     -0.15
   29    2    6     -0.90     -0.18
   30    5    6      0.34     -0.46
   29    7    6      0.28     -0.16
   28    8    6     -0.24      1.75
   23   13    6     -0.64     -0.32
   22   14    6      0.39     -0.27
   20   15    6      0.20     -0.61
   18   16    6     -0.35      0.16
   12   18    6      0.32      0.08
    8   19    6      0.46      0.85
   26    0    7     -0.83     -0.17
   28    0    7     -0.15     -0.76
   30    0    7      0.22     -0.04
   26    1    7     -0.69     -0.92
   27    1    7      0.37      0.73
   28    1    7     -0.04      0.84
   29    1    7     -0.26     -0.73
   30    1    7     -0.31     -0.41
   26    2    7     -1.45      0.15
   27    2    7     -0.38     -0.63
   28    2    7     -0.14     -0.73
   29    2    7     -0.08     -0.08
   30    2    7      1.28      0.55
   30    3    7      0.31      0.74
   29    6    7     -0.50      0.64
   28    7    7     -0.44      1.34
   27    9    7      1.57     -0.22
   26   10    7     -0.09      0.12
   25   11    7      0.57      0.50
   24   12    7      0.35     -0.65
   21   14    7      0.95     -0.37
   19   15    7     -0.20     -0.09
   17   16    7     -0.64      0.75
   15   17    7      0.11      0.16
   11   18    7      0.66      0.33
    5   19    7      0.12      0.10
    6   19    7      0.45      0.60
   30    0    8     -1.03     -0.69
   30    1    8      0.76      0.41
   29    4    8     -0.31     -1.11
   29    5    8     -0.76     -0.89
   28    6    8     -1.00     -0.34
   27    8    8      0.76      0.72
   23   12    8     -0.45      0.42
   22   13    8      0.42     -0.58
   20   14    8     -0.09     -0.25
   18   15    8     -0.73      0.78
   16   16    8      0.50     -0.35
   13   17    8     -0.53     -1.37
    9   18    8     -0.27      0.01
   10   18    8      0.91     -0.42
    1   19    8      0.62      0.25
    2   19    8      0.19     -0.65
    3   19    8     -1.06     -0.42
   29    1    9     -0.40      1.14
   29    2    9     -0.44      0.47
   29    3    9     -0.00      0.05
   28    5    9     -0.27     -0.33
   27    7    9     -0.50     -0.61
   26    8    9      0.23      0.14
   22   12    9      0.74     -0.20
   21   13    9      0.04     -0.31
   19   14    9      0.40      0.39
   17   15    9     -0.09      0.80
   15   16    9      0.04      0.16
   12   17    9      0.01      0.37
    7   18    9     -0.43     -0.86
    8   18    9      0.19     -0.48
   28    3   10      0.11     -0.60
   27    6   10      0.91      0.59
   26    7   10     -1.21      1.28
   25    8   10     -2.11      0.30
   24   10   10      0.04      0.61
   21   12   10     -0.03     -0.47
   20   13   10     -0.04     -0.33
   18   14   10      0.47      0.28
   16   15   10     -0.50      0.33
   13   16   10      0.07     -0.50
   10   17   10      0.05     -0.54
    0   18   10     -0.66      0.35
    1   18   10     -0.64      0.97
    2   18   10      0.41      0.13
    3   18   10      0.08     -0.53
    4   18   10     -0.52     -0.24
   27    3   11      1.39     -0.74
   27    4   11      0.93     -1.52
   26    6   11     -0.18      0.09
   25    7   11      0.55      0.01
   24    8   11     -0.07     -0.43
   20   12   11      0.33     -0.61
   17   14   11      0.56      0.12
   14   15   11      0.59      0.58
   11   16   11      1.05     -0.36
    5   17   11     -1.48     -0.30
    6   17   11      0.52      0.70
    7   17   11      0.80     -0.65
   26    3   12      0.86     -0.07
   26    4   12      0.23     -0.09
   25    6   12      1.03     -0.16
   24    7   12      1.08     -0.30
   23    8   12      0.03      0.64
   20   11   12      0.69      0.06
   19   12   12     -0.64      0.43
   17   13   12     -0.78     -0.36
   15   14   12      0.32     -0.65
   12   15   12      1.06     -0.17
    9   16   12      0.29     -0.64
    1   17   12      0.18     -0.03
    2   17   12     -0.16     -0.85
    3   17   12     -0.52     -0.52
   25    3   13     -0.53      0.56
   25    4   13      0.33      0.64
   24    6   13      0.05      0.13
   23    7   13     -0.70     -0.07
   22    8   13     -0.20      0.20
   21    9   13     -0.57     -0.22
   20   10   13      0.86     -0.67
   19   11   13      0.08     -0.41
   17   12   13      0.10      0.04
   15   13   13     -0.31     -0.28
   13   14   13      0.02      0.14
   10   15   13     -0.08     -0.77
    1   16   13      0.05     -0.33
    2   16   13     -0.09      0.80
    3   16   13     -0.17     -0.19
    4   16   13      0.80     -0.40
    5   16   13     -0.09      1.39
   24    2   14      0.17     -0.23
   24    3   14      0.17     -0.09
   23    5   14     -0.40     -0.37
   22    7   14     -0.78     -0.27
   21    8   14     -0.94     -0.19
   20    9   14      0.73      0.66
   17   11   14      0.81      0.02
   15   12   14     -0.04      0.01
   13   13   14     -0.80      0.54
   10   14   14      0.63     -0.15
   11   14   14     -0.59     -0.35
    5   15   14     -0.00      0.71
    6   15   14      0.41     -0.58
    7   15   14     -0.34      0.25
   23    1   15      0.03      0.37
   23    2   15     -0.21      0.26
   22    4   15      0.64      0.98
   21    6   15      0.93      0.02
   20    7   15      0.77      1.05
   19    8   15      0.27     -0.41
   18    9   15      0.41     -0.83
   17   10   15      0.36     -0.59
   15   11   15      0.57     -0.41
   13   12   15      0.16     -0.10
   10   13   15     -0.16      0.25
   11   13   15     -0.43      0.17
    6   14   15      0.43     -0.22
    7   14   15     -0.97      0.46
   21    1   16      0.77     -0.36
   21    2   16      0.21      0.24
   21    3   16     -0.90     -0.21
   20    5   16     -0.21      0.14
   19    6   16      0.35      0.58
   18    7   16     -0.06      0.50
   17    8   16     -0.37      0.12
   16    9   16     -0.07     -0.60
   14   10   16     -0.59     -0.31
   12   11   16     -0.32      0.28
   13   11   16      0.43     -0.39
   10   12   16      0.17     -0.18
    5   13   16      0.18     -0.04
    6   13   16      0.18      0.14
    7   13   16     -0.96      0.52
   19    2   17      0.72      0.59
   19    3   17      0.53      0.12
   18    5   17      0.36     -1.10
   17    6   17      0.14     -1.12
   16    7   17      0.76     -0.51
   15    8   17     -0.93     -0.31
   13    9   17     -0.57      0.76
   12   10   17     -0.94      0.21
    9   11   17     -0.10     -0.24
    4   12   17      0.36      0.25
    5   12   17      0.18     -0.19
    6   12   17     -0.34      0.75
    0    0   18      1.65      0.88
    2    0   18      0.05     -2.64
   17    1   18     -0.53     -0.05
   17    2   18      0.32     -0.19
   17    3   18      0.45      0.24
   16    4   18     -0.01      0.25
   15    6   18     -0.24     -0.87
   13    7   18      0.20      0.73
   12    8   18     -0.85     -0.20
   10    9   18      0.80     -1.07
    7   10   18      0.46      0.76
    8   10   18      1.22     -0.63
    1   11   18      0.46     -0.40
    2   11   18      0.12     -0.52
    3   11   18     -0.11      0.74
    4   11   18      0.23      0.49
    2    0   19     -0.99     -0.41
   15    1   19     -0.31      0.16
   14    2   19      0.21      0.39
   14    3   19      0.15     -0.32
   13    4   19     -0.26     -0.17
   12    5   19     -0.08      1.58
   13    5   19     -1.14      0.00
   11    6   19     -0.11      0.45
   10    7   19      0.83      0.47
    7    8   19     -0.28     -0.92
    8    8   19     -0.18      0.14
    2    9   19     -1.82      0.20
    3    9   19     -0.25     -0.37
    4    9   19      1.80      1.64
    5    9   19     -0.13      0.25
    0    0   20      0.96      1.38
    2    0   20     -0.58      1.27
    4    0   20      1.85      0.05
   11    1   20     -0.06      1.13
   11    2   20     -0.09     -0.61
   10    3   20     -1.06     -0.53
   11    3   20      0.54      0.98
    9    4   20     -0.31      0.02
   10    4   20      1.00     -0.48
    8    5   20      0.07      0.43
    9    5   20     -0.46      0.20
    6    6   20     -0.14      1.25
    7    6   20     -0.34      0.12
    1    7   20     -0.66     -0.67
    2    7   20     -0.54      0.32
    3    7   20      0.37      0.26
    4    7   20     -0.43     -0.22
    0    0    0      0.00      0.00
# SQUEEZE RESULTS
# Note: Data are Listed for all Voids in the P1 Unit Cell
# i.e. Centre of Gravity, Solvent Accessible Volume,
# Recovered number of Electrons in the Void and
# Details about the Squeezed Material
loop_
  _platon_squeeze_void_nr
  _platon_squeeze_void_average_x
  _platon_squeeze_void_average_y
  _platon_squeeze_void_average_z
  _platon_squeeze_void_volume
  _platon_squeeze_void_count_electrons
  _platon_squeeze_void_content
   1  0.250 -0.085  0.073       747        69 ' '
   2  0.750  0.075  0.583       746        69 ' '
_platon_squeeze_void_probe_radius                  1.20
_platon_squeeze_details
)
TITL shelx_a.res in Pna2(1)
CELL   24.5947   15.6607   16.3428     90.00     90.00     90.00
SPGR Pna21
# Solvent Accessible Volume =    1492.4
# Electrons Found in S.A.V. =     138.4
# Note: Atoms in Void as Cxxx and Qxxx all others
C101 0.821 0.991 0.641 !       1.99 eA-3
C102 0.766 0.255 0.411 !       1.31 eA-3
C103 0.726 0.769 0.886 !       1.28 eA-3
C104 0.734 0.748 0.952 !       1.06 eA-3
C105 0.227 0.829 0.860 !       1.02 eA-3
C106 0.741 0.704 0.893 !       0.91 eA-3
C107 0.751 0.635 0.912 !       0.86 eA-3
C108 0.725 0.640 0.909 !       0.85 eA-3
C109 0.267 0.280 0.347 !       0.85 eA-3
C110 0.123 0.036 0.177 !       0.84 eA-3
C111 0.858 0.931 0.687 !       0.80 eA-3
C112 0.244 0.194 0.437 !       0.78 eA-3
C113 0.366 0.482 0.598 !       0.76 eA-3
C114 0.609 0.454 0.252 !       0.74 eA-3
C115 0.609 0.399 0.224 !       0.73 eA-3
Q116 0.420 0.513 0.752 !       0.71 eA-3
C117 0.266 0.605 0.912 !       0.71 eA-3
Q118 0.260 0.908 0.826 !       0.71 eA-3
C119 0.748 0.237 0.519 !       0.69 eA-3
C120 0.789 0.307 0.312 !       0.69 eA-3
C121 0.250 0.864 0.751 !       0.68 eA-3
Q122 0.108 0.020 0.013 !       0.67 eA-3
C123 0.577 0.448 0.217 !       0.66 eA-3
C124 0.736 0.219 0.450 !       0.66 eA-3
C125 0.775 0.347 0.422 !       0.66 eA-3
C126 0.243 0.797 0.060 !       0.65 eA-3
Q127 0.930 0.943 0.769 !       0.65 eA-3
Q128 0.554 0.504 0.200 !       0.64 eA-3
Q129 0.546 0.457 0.209 !       0.64 eA-3
Q130 0.725 0.050 0.352 !       0.63 eA-3
Q131 0.093 0.109 0.106 !       0.63 eA-3
Q132 0.685 0.083 0.638 !       0.62 eA-3
Q133 0.385 0.099 0.252 !       0.62 eA-3
Q134 0.617 0.756 0.092 !       0.62 eA-3
Q135 0.765 0.709 0.719 !       0.61 eA-3
Q136 0.051 0.936 0.045 !       0.61 eA-3
Q137 0.469 0.468 0.596 !       0.61 eA-3
Q138 0.595 0.093 0.720 !       0.61 eA-3
Q139 0.101 0.084 0.046 !       0.61 eA-3
C140 0.733 0.769 0.792 !       0.60 eA-3
C141 0.235 0.331 0.519 !       0.60 eA-3
Q142 0.719 0.925 0.024 !       0.59 eA-3
Q143 0.929 0.027 0.514 !       0.59 eA-3
C144 0.735 0.782 0.030 !       0.59 eA-3
Q145 0.593 0.529 0.170 !       0.59 eA-3
Q146 0.167 0.729 0.159 !       0.59 eA-3
Q147 0.053 0.013 0.110 !       0.58 eA-3
Q148 0.717 0.035 0.440 !       0.58 eA-3
Q149 0.217 0.501 0.392 !       0.57 eA-3
C150 0.717 0.809 0.948 !       0.57 eA-3
Q151 0.772 0.090 0.238 !       0.57 eA-3
C152 0.148 0.985 0.030 !       0.56 eA-3
Q153 0.850 0.174 0.964 !       0.56 eA-3
Q154 0.571 0.438 0.108 !       0.56 eA-3
Q155 0.086 0.055 0.060 !       0.56 eA-3
C156 0.428 0.467 0.594 !       0.55 eA-3
Q157 0.630 0.081 0.721 !       0.54 eA-3
Q158 0.408 0.983 0.187 !       0.54 eA-3
Q159 0.460 0.564 0.650 !       0.53 eA-3
Q160 0.235 0.064 0.543 !       0.53 eA-3
Q161 0.610 0.136 0.706 !       0.53 eA-3
Q162 0.712 0.147 0.291 !       0.53 eA-3
Q163 0.880 0.627 0.171 !       0.53 eA-3
C164 0.243 0.669 0.893 !       0.52 eA-3
Q165 0.421 0.340 0.532 !       0.52 eA-3
Q166 0.341 0.692 0.673 !       0.52 eA-3
Q167 0.836 0.592 0.250 !       0.52 eA-3
Q168 0.243 0.602 0.074 !       0.51 eA-3
Q169 0.354 0.231 0.936 !       0.51 eA-3
Q170 0.707 0.846 0.083 !       0.51 eA-3
Q171 0.618 0.521 0.263 !       0.51 eA-3
Q172 0.960 0.894 0.706 !       0.51 eA-3
C173 0.721 0.729 0.032 !       0.51 eA-3
Q174 0.069 0.388 0.627 !       0.51 eA-3
C175 0.252 0.186 0.281 !       0.50 eA-3
Q176 0.273 0.535 0.066 !       0.50 eA-3
C177 0.256 0.716 0.830 !       0.50 eA-3
Q178 0.825 0.469 0.383 !       0.50 eA-3
)
;
_shelx_fab_checksum              21704
loop_
_space_group_symop_operation_xyz
'x, y, z'
'-x, -y, z+1/2'
'x+1/2, -y+1/2, z'
'-x+1/2, y+1/2, z+1/2'
loop_
_atom_site_label
_atom_site_type_symbol
_atom_site_fract_x
_atom_site_fract_y
_atom_site_fract_z
_atom_site_U_iso_or_equiv
_atom_site_adp_type
_atom_site_occupancy
_atom_site_site_symmetry_order
_atom_site_calc_flag
_atom_site_refinement_flags_posn
_atom_site_refinement_flags_adp
_atom_site_refinement_flags_occupancy
_atom_site_disorder_assembly
_atom_site_disorder_group
C1 C -0.0177(3) 0.0959(4) 0.0810(4) 0.0393(15) Uani 1 1 d . . . . .
N1 N -0.0775(2) 0.1465(3) 0.3201(4) 0.0402(14) Uani 1 1 d . . . . .
O1 O -0.0382(2) 0.1204(3) 0.1490(3) 0.0532(13) Uani 1 1 d . . . . .
Co1 Co -0.08771(3) 0.05930(5) 0.22700(4) 0.0331(2) Uani 1 1 d . . . . .
C2 C 0.0226(3) 0.1536(4) 0.0437(4) 0.0365(14) Uani 1 1 d . . . . .
N2 N -0.0618(3) 0.4050(3) 0.5079(3) 0.0546(17) Uani 1 1 d D . . . .
H2N H -0.059(4) 0.417(5) 0.457(2) 0.065 Uiso 1 1 d D U . . .
O2 O -0.0287(2) 0.0274(3) 0.0460(3) 0.0461(12) Uani 1 1 d . . . . .
Co2 Co 0.42049(3) 0.55707(5) 0.10413(4) 0.0332(2) Uani 1 1 d . . . . .
N3 N -0.1228(3) 0.6010(4) 0.8227(4) 0.064(2) Uani 1 1 d D . . . .
H3N H -0.121(4) 0.581(5) 0.873(2) 0.077 Uiso 1 1 d D U . . .
C3 C 0.0472(3) 0.1362(4) -0.0312(4) 0.0479(18) Uani 1 1 d . . . . .
H3 H 0.036954 0.087682 -0.060297 0.057 Uiso 1 1 calc R U . . .
O3 O 0.1411(2) 0.3123(3) -0.0567(3) 0.0658(15) Uani 1 1 d . . . . .
C4 C 0.0859(3) 0.1892(5) -0.0627(4) 0.0519(18) Uani 1 1 d . . . . .
H4 H 0.101456 0.176793 -0.113265 0.062 Uiso 1 1 calc R U . . .
O4 O 0.3459(2) 0.3908(3) 0.1683(3) 0.0523(13) Uani 1 1 d . . . . .
N4 N -0.0895(2) 0.8539(4) 1.0128(4) 0.0439(15) Uani 1 1 d . . . . .
N5 N -0.0754(6) 0.6032(5) 0.2783(7) 0.115(4) Uani 1 1 d D . . . .
C5 C 0.1022(3) 0.2599(4) -0.0210(4) 0.0492(17) Uani 1 1 d . . . . .
O5 O 0.3555(2) 0.4870(3) 0.0690(3) 0.0517(13) Uani 1 1 d . . . . .
C6 C 0.0787(3) 0.2798(5) 0.0534(4) 0.0561(19) Uani 1 1 d . . . . .
H6 H 0.089512 0.328654 0.081474 0.067 Uiso 1 1 calc R U . . .
O6 O 0.4838(2) 0.6058(3) 0.1640(3) 0.0540(13) Uani 1 1 d . . . . .
C7 C 0.0398(3) 0.2279(4) 0.0856(4) 0.0507(18) Uani 1 1 d . . . . .
H7 H 0.024253 0.241476 0.135858 0.061 Uiso 1 1 calc R U . . .
O7 O 0.4778(2) 0.5124(3) 0.2661(3) 0.0529(13) Uani 1 1 d . . . . .
C8 C 0.1853(3) 0.3403(5) -0.0121(4) 0.0527(18) Uani 1 1 d . . . . .
O8 O 0.6753(2) 0.7293(4) 0.3942(3) 0.0747(17) Uani 1 1 d . . . . .
C9 C 0.2132(3) 0.4081(5) -0.0434(5) 0.0569(19) Uani 1 1 d . . . . .
H9 H 0.200557 0.435445 -0.090162 0.068 Uiso 1 1 calc R U . . .
O9 O 0.8684(2) 0.8811(3) 0.1825(3) 0.0553(13) Uani 1 1 d . . . . .
C10 C 0.2595(3) 0.4358(4) -0.0064(5) 0.057(2) Uani 1 1 d . . . . .
H10 H 0.277952 0.482228 -0.028449 0.069 Uiso 1 1 calc R U . . .
O10 O 0.8631(2) 0.9765(3) 0.2831(3) 0.0537(13) Uani 1 1 d . . . . .
O11 O -0.0322(4) 0.2939(3) 0.5788(4) 0.114(3) Uani 1 1 d . . . . .
C11 C 0.2799(3) 0.3966(4) 0.0633(4) 0.0434(16) Uani 1 1 d . . . . .
C12 C 0.2503(3) 0.3279(4) 0.0939(4) 0.0576(19) Uani 1 1 d . . . . .
H12 H 0.262650 0.300347 0.140795 0.069 Uiso 1 1 calc R U . . .
O12 O -0.1245(4) 0.7189(3) 0.7439(3) 0.118(3) Uani 1 1 d . . . . .
C13 C 0.2034(4) 0.2995(5) 0.0570(5) 0.064(2) Uani 1 1 d . . . . .
H13 H 0.184320 0.253467 0.078487 0.076 Uiso 1 1 calc R U . . .
C14 C 0.3306(3) 0.4263(4) 0.1031(5) 0.0452(16) Uani 1 1 d . . . . .
C15 C 0.4990(3) 0.5750(4) 0.2306(4) 0.0401(14) Uani 1 1 d . . . . .
C16 C 0.5472(3) 0.6162(4) 0.2724(4) 0.0428(15) Uani 1 1 d . . . . .
C17 C 0.5713(3) 0.6867(4) 0.2374(4) 0.0538(18) Uani 1 1 d . . . . .
H17 H 0.558014 0.708606 0.188456 0.065 Uiso 1 1 calc R U . . .
C18 C 0.6152(4) 0.7246(5) 0.2752(5) 0.061(2) Uani 1 1 d . . . . .
H18 H 0.631808 0.772127 0.252030 0.073 Uiso 1 1 calc R U . . .
C19 C 0.6342(3) 0.6913(5) 0.3476(4) 0.0540(18) Uani 1 1 d . . . . .
C20 C 0.6095(3) 0.6226(5) 0.3840(4) 0.057(2) Uani 1 1 d . . . . .
H20 H 0.622166 0.601637 0.433717 0.068 Uiso 1 1 calc R U . . .
C21 C 0.5663(3) 0.5856(4) 0.3467(5) 0.0506(18) Uani 1 1 d . . . . .
H21 H 0.549255 0.539133 0.371230 0.061 Uiso 1 1 calc R U . . .
C22 C 0.7183(3) 0.7712(5) 0.3544(4) 0.0539(18) Uani 1 1 d . . . . .
C23 C 0.7412(4) 0.7406(5) 0.2843(5) 0.067(2) Uani 1 1 d . . . . .
H23 H 0.728068 0.691083 0.259793 0.081 Uiso 1 1 calc R U . . .
C24 C 0.7850(3) 0.7858(4) 0.2501(5) 0.055(2) Uani 1 1 d . . . . .
H24 H 0.801555 0.765426 0.202762 0.066 Uiso 1 1 calc R U . . .
C25 C 0.8035(3) 0.8589(4) 0.2853(4) 0.0422(15) Uani 1 1 d . . . . .
C26 C 0.7805(3) 0.8866(4) 0.3589(4) 0.0524(18) Uani 1 1 d . . . . .
H26 H 0.794234 0.934624 0.385233 0.063 Uiso 1 1 calc R U . . .
C27 C 0.7374(3) 0.8426(5) 0.3924(4) 0.0578(19) Uani 1 1 d . . . . .
H27 H 0.721344 0.861493 0.440644 0.069 Uiso 1 1 calc R U . . .
C28 C 0.8482(3) 0.9084(4) 0.2481(4) 0.0412(16) Uani 1 1 d . . . . .
C29 C -0.0656(4) 0.1223(4) 0.3943(5) 0.065(2) Uani 1 1 d . . . . .
H29 H -0.063543 0.064124 0.405111 0.077 Uiso 1 1 calc R U . . .
C30 C -0.0558(4) 0.1796(4) 0.4584(4) 0.066(3) Uani 1 1 d . . . . .
H30 H -0.046334 0.159253 0.509928 0.079 Uiso 1 1 calc R U . . .
C31 C -0.0602(4) 0.2638(4) 0.4451(4) 0.0485(18) Uani 1 1 d . . . . .
C32 C -0.0725(5) 0.2900(4) 0.3669(5) 0.073(3) Uani 1 1 d . . . . .
H32 H -0.075740 0.347801 0.354906 0.088 Uiso 1 1 calc R U . . .
C33 C -0.0799(4) 0.2298(5) 0.3066(5) 0.067(3) Uani 1 1 d . . . . .
H33 H -0.086890 0.248624 0.253686 0.081 Uiso 1 1 calc R U . . .
C34 C -0.0503(4) 0.3241(4) 0.5159(4) 0.061(2) Uani 1 1 d . . . . .
C35 C -0.0539(3) 0.4624(4) 0.5762(4) 0.0486(18) Uani 1 1 d . . . . .
C36 C -0.0039(4) 0.4971(5) 0.5882(5) 0.067(2) Uani 1 1 d . . . . .
H36 H 0.023673 0.486944 0.550579 0.081 Uiso 1 1 calc R U . . .
C37 C 0.0064(4) 0.5485(5) 0.6576(5) 0.071(2) Uani 1 1 d . . . . .
H37 H 0.040808 0.571232 0.666427 0.085 Uiso 1 1 calc R U . . .
C38 C -0.0351(4) 0.5644(4) 0.7117(5) 0.061(2) Uani 1 1 d . . . . .
H38 H -0.028310 0.597934 0.757524 0.073 Uiso 1 1 calc R U . . .
C39 C -0.0873(3) 0.5314(4) 0.6996(4) 0.048(2) Uani 1 1 d . . . . .
C40 C -0.1315(4) 0.5465(4) 0.7536(4) 0.058(2) Uani 1 1 d . . . . .
C41 C -0.1804(4) 0.5100(5) 0.7439(5) 0.077(3) Uani 1 1 d . . . . .
H41 H -0.208217 0.520364 0.781247 0.093 Uiso 1 1 calc R U . . .
C42 C -0.1893(5) 0.4544(5) 0.6749(6) 0.083(3) Uani 1 1 d . . . . .
H42 H -0.223117 0.429204 0.666947 0.100 Uiso 1 1 calc R U . . .
C43 C -0.1486(4) 0.4390(4) 0.6220(4) 0.060(2) Uani 1 1 d . . . . .
H43 H -0.154712 0.401990 0.578535 0.072 Uiso 1 1 calc R U . . .
C44 C -0.0966(3) 0.4774(4) 0.6302(4) 0.0439(18) Uani 1 1 d . . . . .
C45 C -0.1204(5) 0.6867(5) 0.8101(4) 0.070(3) Uani 1 1 d . . . . .
C46 C -0.1090(4) 0.7415(4) 0.8848(4) 0.058(2) Uani 1 1 d . . . . .
C47 C -0.1228(18) 0.8315(15) 0.8702(18) 0.062(7) Uani 0.46(6) 1 d . . P A 1
H47 H -0.138113 0.851984 0.821970 0.074 Uiso 0.46(6) 1 calc R U P A 1
C48 C -0.1114(17) 0.877(2) 0.932(2) 0.065(8) Uani 0.46(6) 1 d . . P A 1
H48 H -0.117667 0.935558 0.924275 0.078 Uiso 0.46(6) 1 calc R U P A 1
C49 C -0.0826(18) 0.7746(19) 1.025(2) 0.049(8) Uani 0.46(6) 1 d . . P A 1
H49 H -0.071798 0.754694 1.075855 0.059 Uiso 0.46(6) 1 calc R U P A 1
C50 C -0.0921(16) 0.713(2) 0.956(2) 0.049(7) Uani 0.46(6) 1 d . . P A 1
H50 H -0.086018 0.654903 0.963377 0.059 Uiso 0.46(6) 1 calc R U P A 1
C47B C -0.092(2) 0.8214(15) 0.8739(13) 0.079(12) Uani 0.54(6) 1 d . . P A 2
H47B H -0.083371 0.839908 0.821435 0.095 Uiso 0.54(6) 1 calc R U P A 2
C48B C -0.087(3) 0.879(2) 0.9406(17) 0.105(17) Uani 0.54(6) 1 d . . P A 2
H48B H -0.082207 0.936899 0.930070 0.126 Uiso 0.54(6) 1 calc R U P A 2
C49B C -0.105(2) 0.7732(18) 1.022(2) 0.075(12) Uani 0.54(6) 1 d . . P A 2
H49B H -0.108698 0.754048 1.075786 0.090 Uiso 0.54(6) 1 calc R U P A 2
C50B C -0.115(2) 0.718(2) 0.9649(16) 0.065(9) Uani 0.54(6) 1 d . . P A 2
H50B H -0.125721 0.662776 0.978218 0.078 Uiso 0.54(6) 1 calc R U P A 2
O14 O -0.1201(5) 0.5052(5) 0.9700(6) 0.147(4) Uani 1 1 d . . . . .
C54 C -0.1313(7) 0.4505(10) 1.0175(10) 0.136(6) Uani 1 1 d . . . . .
H54 H -0.157607 0.463448 1.056481 0.163 Uiso 1 1 calc R U . . .
N6 N -0.1112(6) 0.3768(7) 1.0202(8) 0.124(4) Uani 1 1 d D . . . .
C55 C -0.0698(10) 0.3588(18) 0.9613(16) 0.241(13) Uani 1 1 d D . . . .
H55A H -0.057165 0.301285 0.968346 0.361 Uiso 1 1 calc R U . . .
H55B H -0.039962 0.397672 0.968758 0.361 Uiso 1 1 calc R U . . .
H55C H -0.084325 0.365507 0.907162 0.361 Uiso 1 1 calc R U . . .
C56 C -0.1184(8) 0.3042(8) 1.0674(9) 0.156(7) Uani 1 1 d D . . . .
H56A H -0.128571 0.257344 1.032795 0.234 Uiso 1 1 calc R U . . .
H56B H -0.146627 0.314268 1.106874 0.234 Uiso 1 1 calc R U . . .
H56C H -0.085141 0.290838 1.095242 0.234 Uiso 1 1 calc R U . . .
O13 O -0.0927(5) 0.4928(4) 0.3604(5) 0.132(4) Uani 1 1 d . . . . .
C51 C -0.0722(10) 0.5523(10) 0.3329(11) 0.186(10) Uani 1 1 d . . . . .
H51 H -0.042119 0.565886 0.364734 0.223 Uiso 1 1 calc R U . . .
C52 C -0.1219(9) 0.5941(17) 0.2276(13) 0.257(15) Uani 1 1 d D . . . .
H52A H -0.144217 0.644250 0.232122 0.386 Uiso 1 1 calc R U . . .
H52B H -0.142396 0.545049 0.244672 0.386 Uiso 1 1 calc R U . . .
H52C H -0.110674 0.586952 0.171801 0.386 Uiso 1 1 calc R U . . .
C53 C -0.0437(12) 0.6733(12) 0.2566(13) 0.234(14) Uani 1 1 d D . . . .
H53A H -0.034340 0.669506 0.199674 0.352 Uiso 1 1 calc R U . . .
H53B H -0.011125 0.673734 0.288918 0.352 Uiso 1 1 calc R U . . .
H53C H -0.063805 0.724848 0.266178 0.352 Uiso 1 1 calc R U . . .
loop_
_atom_site_aniso_label
_atom_site_aniso_U_11
_atom_site_aniso_U_22
_atom_site_aniso_U_33
_atom_site_aniso_U_23
_atom_site_aniso_U_13
_atom_site_aniso_U_12
C1 0.037(4) 0.039(3) 0.042(4) 0.002(3) -0.004(3) 0.004(3)
N1 0.051(4) 0.032(3) 0.037(3) -0.009(2) 0.000(3) 0.005(2)
O1 0.054(4) 0.054(3) 0.052(3) -0.005(2) 0.014(3) -0.019(2)
Co1 0.0329(4) 0.0301(4) 0.0363(5) -0.0090(4) 0.0019(4) -0.0019(3)
C2 0.033(4) 0.042(3) 0.035(3) -0.002(3) 0.003(3) -0.005(3)
N2 0.095(5) 0.039(3) 0.029(3) -0.010(2) 0.004(3) -0.005(3)
O2 0.052(3) 0.039(2) 0.047(3) -0.007(2) 0.003(2) -0.015(2)
Co2 0.0343(5) 0.0297(4) 0.0357(5) 0.0097(4) -0.0017(4) 0.0004(3)
N3 0.113(7) 0.040(3) 0.039(3) -0.014(3) 0.016(4) -0.007(3)
C3 0.047(5) 0.046(3) 0.051(4) -0.018(3) 0.000(3) -0.005(3)
O3 0.055(3) 0.096(4) 0.046(3) 0.011(3) -0.005(2) -0.037(3)
C4 0.046(5) 0.067(4) 0.043(4) -0.014(3) 0.011(3) -0.011(4)
O4 0.050(3) 0.062(3) 0.045(3) 0.006(2) -0.010(2) -0.014(2)
N4 0.060(4) 0.033(3) 0.039(3) -0.006(2) 0.001(3) -0.003(2)
N5 0.191(13) 0.065(5) 0.089(6) 0.010(5) 0.051(8) 0.019(6)
C5 0.034(4) 0.066(4) 0.048(4) 0.006(3) 0.001(3) -0.019(3)
O5 0.040(3) 0.052(3) 0.063(3) 0.011(2) -0.004(2) -0.017(2)
C6 0.057(5) 0.057(4) 0.055(4) -0.010(3) 0.006(4) -0.021(4)
O6 0.053(4) 0.052(3) 0.057(3) 0.010(2) -0.013(2) -0.018(2)
C7 0.053(5) 0.055(4) 0.044(4) -0.011(3) 0.006(3) -0.024(3)
O7 0.046(3) 0.045(3) 0.068(3) 0.010(2) -0.010(3) -0.014(2)
C8 0.039(4) 0.074(4) 0.045(4) 0.009(3) -0.008(3) -0.020(4)
O8 0.057(4) 0.114(4) 0.052(3) 0.012(3) -0.004(3) -0.046(3)
C9 0.049(5) 0.065(4) 0.057(5) 0.015(3) -0.007(4) -0.017(4)
O9 0.059(4) 0.057(3) 0.050(3) -0.004(2) 0.012(3) -0.015(2)
C10 0.057(5) 0.057(4) 0.058(4) 0.015(3) -0.005(4) -0.025(4)
O10 0.053(3) 0.048(3) 0.061(3) -0.002(2) 0.006(3) -0.014(2)
O11 0.235(11) 0.051(3) 0.056(4) -0.004(3) -0.042(5) 0.017(4)
C11 0.039(4) 0.045(3) 0.047(4) -0.002(3) 0.001(3) -0.010(3)
C12 0.056(5) 0.070(4) 0.046(4) 0.021(3) -0.011(4) -0.028(4)
O12 0.267(11) 0.052(3) 0.033(3) -0.007(2) -0.009(4) -0.015(4)
C13 0.060(6) 0.072(5) 0.059(5) 0.023(4) -0.005(4) -0.033(4)
C14 0.040(4) 0.044(3) 0.051(4) -0.005(3) -0.002(4) -0.002(3)
C15 0.031(3) 0.042(3) 0.047(4) 0.005(3) 0.001(3) 0.001(3)
C16 0.035(4) 0.047(3) 0.047(4) 0.011(3) 0.003(3) -0.004(3)
C17 0.051(5) 0.062(4) 0.048(4) 0.014(3) -0.011(4) -0.014(3)
C18 0.062(6) 0.066(4) 0.054(4) 0.020(4) -0.009(4) -0.029(4)
C19 0.044(4) 0.076(4) 0.043(4) 0.007(3) -0.001(3) -0.025(4)
C20 0.048(5) 0.079(5) 0.043(4) 0.019(4) -0.006(4) -0.017(4)
C21 0.036(4) 0.055(4) 0.060(4) 0.023(3) 0.001(3) -0.012(3)
C22 0.043(5) 0.071(4) 0.047(4) 0.013(3) -0.007(3) -0.023(4)
C23 0.064(6) 0.073(5) 0.065(5) -0.010(4) -0.003(4) -0.039(4)
C24 0.054(5) 0.058(4) 0.052(4) -0.007(3) 0.005(4) -0.013(4)
C25 0.031(4) 0.048(3) 0.048(4) 0.001(3) -0.001(3) -0.006(3)
C26 0.047(5) 0.062(4) 0.048(4) -0.006(3) 0.000(4) -0.019(3)
C27 0.042(5) 0.085(5) 0.046(4) -0.008(4) 0.005(3) -0.012(4)
C28 0.038(4) 0.042(3) 0.043(4) 0.005(3) 0.000(3) -0.004(3)
C29 0.119(8) 0.027(3) 0.047(5) -0.008(3) -0.004(5) 0.008(4)
C30 0.118(8) 0.044(4) 0.037(4) -0.003(3) -0.014(4) 0.008(4)
C31 0.073(6) 0.038(3) 0.034(3) -0.009(3) 0.001(3) 0.000(3)
C32 0.158(10) 0.024(3) 0.037(4) -0.003(3) 0.000(5) 0.010(4)
C33 0.127(9) 0.041(4) 0.033(4) -0.005(3) -0.011(4) 0.009(4)
C34 0.109(8) 0.040(4) 0.032(4) -0.003(3) -0.001(4) 0.005(4)
C35 0.069(5) 0.037(3) 0.039(4) -0.010(3) 0.003(3) 0.002(3)
C36 0.087(7) 0.055(4) 0.060(5) -0.014(4) 0.023(5) -0.009(4)
C37 0.081(7) 0.062(5) 0.070(5) -0.016(4) -0.002(5) -0.020(4)
C38 0.082(6) 0.046(4) 0.054(5) -0.019(3) 0.001(4) -0.013(4)
C39 0.074(6) 0.029(3) 0.040(4) -0.007(3) -0.001(3) -0.004(3)
C40 0.098(7) 0.036(3) 0.040(4) -0.013(3) 0.010(4) -0.010(4)
C41 0.095(8) 0.064(5) 0.072(6) -0.028(4) 0.027(5) -0.027(5)
C42 0.095(8) 0.075(5) 0.079(6) -0.027(4) 0.019(6) -0.035(5)
C43 0.079(6) 0.057(4) 0.043(4) -0.025(3) 0.003(4) -0.019(4)
C44 0.071(5) 0.033(3) 0.028(4) -0.008(3) -0.001(3) 0.002(3)
C45 0.127(9) 0.049(4) 0.034(4) -0.008(3) 0.006(4) -0.010(4)
C46 0.096(7) 0.038(3) 0.041(3) -0.012(3) 0.012(4) -0.002(4)
C47 0.09(2) 0.042(7) 0.049(10) -0.006(6) -0.025(11) -0.006(9)
C48 0.11(2) 0.037(10) 0.051(9) 0.001(6) -0.029(10) -0.004(12)
C49 0.08(2) 0.026(7) 0.044(9) -0.016(6) -0.019(11) -0.003(9)
C50 0.07(2) 0.032(8) 0.044(9) -0.017(7) 0.009(10) 0.005(11)
C47B 0.16(3) 0.047(8) 0.026(7) 0.002(6) -0.011(12) -0.026(13)
C48B 0.22(5) 0.051(10) 0.040(8) -0.008(6) -0.013(12) -0.070(18)
C49B 0.14(4) 0.041(7) 0.041(8) -0.001(6) -0.003(15) -0.020(13)
C50B 0.10(3) 0.049(10) 0.043(6) -0.012(6) 0.017(11) -0.008(13)
O14 0.218(12) 0.101(6) 0.120(6) 0.044(5) -0.070(7) -0.052(6)
C54 0.153(15) 0.121(11) 0.134(12) 0.038(9) -0.067(10) -0.045(10)
N6 0.157(12) 0.086(6) 0.128(9) 0.043(6) -0.064(8) -0.045(7)
C55 0.23(3) 0.27(3) 0.22(2) -0.06(2) 0.01(2) -0.09(2)
C56 0.201(18) 0.119(10) 0.148(13) 0.053(9) -0.051(12) -0.041(11)
O13 0.245(12) 0.061(4) 0.090(5) 0.014(4) 0.013(6) 0.031(5)
C51 0.33(3) 0.086(9) 0.139(14) 0.013(9) 0.118(16) 0.051(12)
C52 0.30(4) 0.33(3) 0.140(16) -0.005(19) -0.05(2) 0.15(3)
C53 0.36(4) 0.161(14) 0.187(19) -0.001(14) 0.12(2) -0.08(2)
loop_
_atom_type_symbol
_atom_type_description
_atom_type_scat_dispersion_real
_atom_type_scat_dispersion_imag
_atom_type_scat_source
C C 0.0033 0.0016 'International Tables Vol C Tables 4.2.6.8 and 6.1.1.4'
H H 0.0000 0.0000 'International Tables Vol C Tables 4.2.6.8 and 6.1.1.4'
Co Co 0.3494 0.9721 'International Tables Vol C Tables 4.2.6.8 and 6.1.1.4'
N N 0.0061 0.0033 'International Tables Vol C Tables 4.2.6.8 and 6.1.1.4'
O O 0.0106 0.0060 'International Tables Vol C Tables 4.2.6.8 and 6.1.1.4'
loop_
_geom_angle_atom_site_label_1
_geom_angle_atom_site_label_2
_geom_angle_atom_site_label_3
_geom_angle
_geom_angle_site_symmetry_1
_geom_angle_site_symmetry_3
O2 C1 O1 124.9(6) . .
O2 C1 C2 119.1(6) . .
O1 C1 C2 116.1(5) . .
C29 N1 C33 116.8(6) . .
C29 N1 Co1 121.4(4) . .
C33 N1 Co1 121.7(5) . .
C1 O1 Co1 130.4(4) . .
O10 Co1 O1 165.82(19) 1_445 .
O10 Co1 O4 88.8(2) 1_445 3_455
O1 Co1 O4 90.3(2) . 3_455
O10 Co1 N1 99.5(2) 1_445 .
O1 Co1 N1 94.5(2) . .
O4 Co1 N1 101.0(2) 3_455 .
O10 Co1 O7 88.7(2) 1_445 3_455
O1 Co1 O7 89.0(2) . 3_455
O4 Co1 O7 166.91(19) 3_455 3_455
N1 Co1 O7 92.1(2) . 3_455
O10 Co1 Co2 87.05(14) 1_445 3_455
O1 Co1 Co2 78.77(13) . 3_455
O4 Co1 Co2 88.22(13) 3_455 3_455
N1 Co1 Co2 168.74(17) . 3_455
O7 Co1 Co2 78.81(14) 3_455 3_455
C3 C2 C7 117.3(6) . .
C3 C2 C1 122.3(6) . .
C7 C2 C1 120.4(6) . .
C34 N2 C35 119.8(6) . .
C34 N2 H2N 107(5) . .
C35 N2 H2N 127(5) . .
C1 O2 Co2 118.4(4) . 3_455
O6 Co2 O5 165.0(2) . .
O6 Co2 O2 89.9(2) . 3
O5 Co2 O2 90.0(2) . 3
O6 Co2 O9 90.0(2) . 3_465
O5 Co2 O9 86.6(2) . 3_465
O2 Co2 O9 166.40(18) 3 3_465
O6 Co2 N4 101.0(2) . 3_564
O5 Co2 N4 93.8(2) . 3_564
O2 Co2 N4 100.0(2) 3 3_564
O9 Co2 N4 93.3(2) 3_465 3_564
O6 Co2 Co1 87.25(14) . 3
O5 Co2 Co1 77.73(14) . 3
O2 Co2 Co1 87.41(13) 3 3
O9 Co2 Co1 79.00(13) 3_465 3
N4 Co2 Co1 168.83(17) 3_564 3
C45 N3 C40 118.4(6) . .
C45 N3 H3N 119(5) . .
C40 N3 H3N 122(5) . .
C4 C3 C2 121.0(6) . .
C4 C3 H3 119.5 . .
C2 C3 H3 119.5 . .
C8 O3 C5 120.5(5) . .
C5 C4 C3 120.7(6) . .
C5 C4 H4 119.6 . .
C3 C4 H4 119.6 . .
C14 O4 Co1 117.7(4) . 3
C48B N4 C49B 115.0(19) . .
C49 N4 C48 115(2) . .
C49 N4 Co2 122.4(17) . 3_466
C48 N4 Co2 121.7(14) . 3_466
C51 N5 C53 133(2) . .
C51 N5 C52 114.8(18) . .
C53 N5 C52 112.4(19) . .
C4 C5 C6 120.2(6) . .
C4 C5 O3 118.2(6) . .
C6 C5 O3 121.6(6) . .
C14 O5 Co2 131.9(5) . .
C7 C6 C5 119.9(6) . .
C7 C6 H6 120.1 . .
C5 C6 H6 120.1 . .
C15 O6 Co2 120.9(4) . .
C6 C7 C2 120.9(6) . .
C6 C7 H7 119.5 . .
C2 C7 H7 119.5 . .
C15 O7 Co1 127.4(5) . 3
C9 C8 C13 120.5(7) . .
C9 C8 O3 116.4(6) . .
C13 C8 O3 122.9(6) . .
C19 O8 C22 119.4(5) . .
C10 C9 C8 120.2(7) . .
C10 C9 H9 119.9 . .
C8 C9 H9 119.9 . .
C28 O9 Co2 128.2(4) . 3_565
C9 C10 C11 121.7(6) . .
C9 C10 H10 119.1 . .
C11 C10 H10 119.1 . .
C28 O10 Co1 121.1(4) . 1_665
C10 C11 C12 116.7(6) . .
C10 C11 C14 121.7(6) . .
C12 C11 C14 121.7(6) . .
C13 C12 C11 122.0(6) . .
C13 C12 H12 119.0 . .
C11 C12 H12 119.0 . .
C8 C13 C12 118.9(6) . .
C8 C13 H13 120.5 . .
C12 C13 H13 120.5 . .
O4 C14 O5 124.3(6) . .
O4 C14 C11 118.9(6) . .
O5 C14 C11 116.9(6) . .
O6 C15 O7 125.6(6) . .
O6 C15 C16 117.6(5) . .
O7 C15 C16 116.8(6) . .
C17 C16 C21 119.7(6) . .
C17 C16 C15 119.4(6) . .
C21 C16 C15 120.8(6) . .
C16 C17 C18 119.7(6) . .
C16 C17 H17 120.1 . .
C18 C17 H17 120.1 . .
C19 C18 C17 119.3(6) . .
C19 C18 H18 120.3 . .
C17 C18 H18 120.4 . .
C18 C19 C20 121.3(7) . .
C18 C19 O8 123.6(6) . .
C20 C19 O8 114.7(6) . .
C21 C20 C19 119.2(6) . .
C21 C20 H20 120.4 . .
C19 C20 H20 120.4 . .
C20 C21 C16 120.7(6) . .
C20 C21 H21 119.6 . .
C16 C21 H21 119.6 . .
C27 C22 C23 122.0(7) . .
C27 C22 O8 115.6(7) . .
C23 C22 O8 122.4(6) . .
C22 C23 C24 118.3(6) . .
C22 C23 H23 120.9 . .
C24 C23 H23 120.9 . .
C25 C24 C23 120.7(7) . .
C25 C24 H24 119.6 . .
C23 C24 H24 119.6 . .
C24 C25 C26 119.4(7) . .
C24 C25 C28 121.1(6) . .
C26 C25 C28 119.5(6) . .
C27 C26 C25 119.8(6) . .
C27 C26 H26 120.1 . .
C25 C26 H26 120.1 . .
C22 C27 C26 119.6(7) . .
C22 C27 H27 120.2 . .
C26 C27 H27 120.2 . .
O9 C28 O10 123.8(6) . .
O9 C28 C25 117.9(6) . .
O10 C28 C25 118.2(6) . .
N1 C29 C30 123.3(6) . .
N1 C29 H29 118.4 . .
C30 C29 H29 118.4 . .
C31 C30 C29 119.7(7) . .
C31 C30 H30 120.2 . .
C29 C30 H30 120.2 . .
C30 C31 C32 117.4(6) . .
C30 C31 C34 118.5(6) . .
C32 C31 C34 124.1(6) . .
C33 C32 C31 119.4(6) . .
C33 C32 H32 120.3 . .
C31 C32 H32 120.3 . .
N1 C33 C32 123.3(7) . .
N1 C33 H33 118.3 . .
C32 C33 H33 118.3 . .
O11 C34 N2 122.7(6) . .
O11 C34 C31 117.6(6) . .
N2 C34 C31 119.6(6) . .
C36 C35 C44 121.5(6) . .
C36 C35 N2 118.8(7) . .
C44 C35 N2 119.5(7) . .
C35 C36 C37 120.5(8) . .
C35 C36 H36 119.8 . .
C37 C36 H36 119.8 . .
C38 C37 C36 119.1(9) . .
C38 C37 H37 120.4 . .
C36 C37 H37 120.4 . .
C37 C38 C39 121.6(7) . .
C37 C38 H38 119.2 . .
C39 C38 H38 119.2 . .
C38 C39 C40 123.6(7) . .
C38 C39 C44 118.4(7) . .
C40 C39 C44 118.0(7) . .
C41 C40 C39 122.9(6) . .
C41 C40 N3 118.7(7) . .
C39 C40 N3 118.4(8) . .
C40 C41 C42 119.0(8) . .
C40 C41 H41 120.5 . .
C42 C41 H41 120.5 . .
C43 C42 C41 119.9(9) . .
C43 C42 H42 120.0 . .
C41 C42 H42 120.0 . .
C42 C43 C44 122.3(7) . .
C42 C43 H43 118.8 . .
C44 C43 H43 118.8 . .
C35 C44 C43 123.3(6) . .
C35 C44 C39 118.8(7) . .
C43 C44 C39 117.9(7) . .
O12 C45 N3 123.3(6) . .
O12 C45 C46 120.3(6) . .
N3 C45 C46 116.4(6) . .
C47B C46 C50B 114.6(17) . .
C50 C46 C47 123(2) . .
C50 C46 C45 125.3(16) . .
C47B C46 C45 118.7(10) . .
C50B C46 C45 126.7(15) . .
C47 C46 C45 111.5(13) . .
C48 C47 C46 111(3) . .
C48 C47 H47 124.3 . .
C46 C47 H47 124.3 . .
C47 C48 N4 131(3) . .
C47 C48 H48 114.7 . .
N4 C48 H48 114.7 . .
N4 C49 C50 120(3) . .
N4 C49 H49 120.2 . .
C50 C49 H49 120.2 . .
C46 C50 C49 120(3) . .
C46 C50 H50 120.2 . .
C49 C50 H50 120.2 . .
C46 C47B C48B 121(2) . .
C46 C47B H47B 119.3 . .
C48B C47B H47B 119.3 . .
N4 C48B C47B 121(2) . .
N4 C48B H48B 119.3 . .
C47B C48B H48B 119.3 . .
C50B C49B N4 127(3) . .
C50B C49B H49B 116.4 . .
N4 C49B H49B 116.4 . .
C49B C50B C46 119(3) . .
C49B C50B H50B 120.3 . .
C46 C50B H50B 120.3 . .
O14 C54 N6 126.4(18) . .
O14 C54 H54 116.8 . .
N6 C54 H54 116.8 . .
C54 N6 C56 136.2(18) . .
C54 N6 C55 116.0(17) . .
C56 N6 C55 107.8(18) . .
N6 C55 H55A 109.5 . .
N6 C55 H55B 109.5 . .
H55A C55 H55B 109.5 . .
N6 C55 H55C 109.5 . .
H55A C55 H55C 109.5 . .
H55B C55 H55C 109.5 . .
N6 C56 H56A 109.5 . .
N6 C56 H56B 109.5 . .
H56A C56 H56B 109.5 . .
N6 C56 H56C 109.5 . .
H56A C56 H56C 109.5 . .
H56B C56 H56C 109.5 . .
O13 C51 N5 143(3) . .
O13 C51 H51 108.4 . .
N5 C51 H51 108.4 . .
N5 C52 H52A 109.5 . .
N5 C52 H52B 109.5 . .
H52A C52 H52B 109.5 . .
N5 C52 H52C 109.5 . .
H52A C52 H52C 109.5 . .
H52B C52 H52C 109.5 . .
N5 C53 H53A 109.5 . .
N5 C53 H53B 109.5 . .
H53A C53 H53B 109.5 . .
N5 C53 H53C 109.5 . .
H53A C53 H53C 109.5 . .
H53B C53 H53C 109.5 . .
loop_
_geom_bond_atom_site_label_1
_geom_bond_atom_site_label_2
_geom_bond_distance
_geom_bond_site_symmetry_2
C1 O2 1.244(7) .
C1 O1 1.280(8) .
C1 C2 1.474(9) .
N1 C29 1.303(9) .
N1 C33 1.324(9) .
N1 Co1 2.060(5) .
O1 Co1 2.006(5) .
Co1 O10 1.996(5) 1_445
Co1 O4 2.050(5) 3_455
Co1 O7 2.065(5) 3_455
Co1 Co2 2.7192(8) 3_455
C2 C3 1.393(9) .
C2 C7 1.414(8) .
N2 C34 1.305(9) .
N2 C35 1.446(8) .
N2 H2N 0.86(3) .
O2 Co2 2.052(5) 3_455
Co2 O6 1.992(5) .
Co2 O5 2.021(5) .
Co2 O9 2.053(5) 3_465
Co2 N4 2.057(6) 3_564
N3 C45 1.359(9) .
N3 C40 1.432(9) .
N3 H3N 0.88(3) .
C3 C4 1.365(10) .
C3 H3 0.9300 .
O3 C8 1.382(8) .
O3 C5 1.389(8) .
C4 C5 1.360(10) .
C4 H4 0.9300 .
O4 C14 1.259(8) .
N4 C48B 1.25(3) .
N4 C49 1.27(3) .
N4 C49B 1.33(3) .
N4 C48 1.48(3) .
N5 C51 1.200(18) .
N5 C53 1.392(12) .
N5 C52 1.420(13) .
C5 C6 1.382(10) .
O5 C14 1.261(8) .
C6 C7 1.363(10) .
C6 H6 0.9300 .
O6 C15 1.248(8) .
C7 H7 0.9300 .
O7 C15 1.252(7) .
C8 C9 1.364(9) .
C8 C13 1.371(10) .
O8 C19 1.398(8) .
O8 C22 1.404(8) .
C9 C10 1.359(11) .
C9 H9 0.9300 .
O9 C28 1.258(8) .
C10 C11 1.389(10) .
C10 H10 0.9300 .
O10 C28 1.264(8) .
O11 C34 1.216(9) .
C11 C12 1.391(9) .
C11 C14 1.483(10) .
C12 C13 1.376(11) .
C12 H12 0.9300 .
O12 C45 1.197(8) .
C13 H13 0.9300 .
C15 C16 1.514(9) .
C16 C17 1.377(9) .
C16 C21 1.388(9) .
C17 C18 1.379(10) .
C17 H17 0.9300 .
C18 C19 1.373(10) .
C18 H18 0.9300 .
C19 C20 1.374(9) .
C20 C21 1.354(10) .
C20 H20 0.9300 .
C21 H21 0.9300 .
C22 C27 1.361(10) .
C22 C23 1.363(11) .
C23 C24 1.406(11) .
C23 H23 0.9300 .
C24 C25 1.360(9) .
C24 H24 0.9300 .
C25 C26 1.398(10) .
C25 C28 1.477(9) .
C26 C27 1.378(10) .
C26 H26 0.9300 .
C27 H27 0.9300 .
C29 C30 1.400(10) .
C29 H29 0.9300 .
C30 C31 1.342(10) .
C30 H30 0.9300 .
C31 C32 1.376(10) .
C31 C34 1.512(9) .
C32 C33 1.375(10) .
C32 H32 0.9300 .
C33 H33 0.9300 .
C35 C36 1.357(12) .
C35 C44 1.392(10) .
C36 C37 1.413(11) .
C36 H36 0.9300 .
C37 C38 1.373(12) .
C37 H37 0.9300 .
C38 C39 1.398(12) .
C38 H38 0.9300 .
C39 C40 1.419(11) .
C39 C44 1.433(7) .
C40 C41 1.342(12) .
C41 C42 1.442(11) .
C41 H41 0.9300 .
C42 C43 1.344(13) .
C42 H42 0.9300 .
C43 C44 1.419(11) .
C43 H43 0.9300 .
C45 C46 1.519(10) .
C46 C50 1.31(3) .
C46 C47B 1.33(2) .
C46 C50B 1.37(3) .
C46 C47 1.47(3) .
C47 C48 1.27(4) .
C47 H47 0.9300 .
C48 H48 0.9300 .
C49 C50 1.50(4) .
C49 H49 0.9300 .
C50 H50 0.9300 .
C47B C48B 1.42(3) .
C47B H47B 0.9300 .
C48B H48B 0.9300 .
C49B C50B 1.30(4) .
C49B H49B 0.9300 .
C50B H50B 0.9300 .
O14 C54 1.188(15) .
C54 N6 1.257(18) .
C54 H54 0.9300 .
N6 C56 1.385(11) .
N6 C55 1.430(13) .
C55 H55A 0.9600 .
C55 H55B 0.9600 .
C55 H55C 0.9600 .
C56 H56A 0.9600 .
C56 H56B 0.9600 .
C56 H56C 0.9600 .
O13 C51 1.151(17) .
C51 H51 0.9300 .
C52 H52A 0.9600 .
C52 H52B 0.9600 .
C52 H52C 0.9600 .
C53 H53A 0.9600 .
C53 H53B 0.9600 .
C53 H53C 0.9600 .
loop_
_geom_torsion_atom_site_label_1
_geom_torsion_atom_site_label_2
_geom_torsion_atom_site_label_3
_geom_torsion_atom_site_label_4
_geom_torsion
_geom_torsion_site_symmetry_1
_geom_torsion_site_symmetry_4
O2 C1 O1 Co1 5.6(10) . .
C2 C1 O1 Co1 -172.9(4) . .
O2 C1 C2 C3 3.1(10) . .
O1 C1 C2 C3 -178.3(6) . .
O2 C1 C2 C7 -174.0(6) . .
O1 C1 C2 C7 4.6(9) . .
O1 C1 O2 Co2 -4.2(9) . 3_455
C2 C1 O2 Co2 174.3(4) . 3_455
C7 C2 C3 C4 -0.3(11) . .
C1 C2 C3 C4 -177.5(7) . .
C2 C3 C4 C5 0.9(12) . .
C3 C4 C5 C6 -1.2(12) . .
C3 C4 C5 O3 -178.9(7) . .
C8 O3 C5 C4 -132.6(7) . .
C8 O3 C5 C6 49.8(11) . .
C4 C5 C6 C7 0.9(12) . .
O3 C5 C6 C7 178.5(7) . .
C5 C6 C7 C2 -0.3(12) . .
C3 C2 C7 C6 0.0(11) . .
C1 C2 C7 C6 177.2(7) . .
C5 O3 C8 C9 -163.1(7) . .
C5 O3 C8 C13 21.5(12) . .
C13 C8 C9 C10 0.2(13) . .
O3 C8 C9 C10 -175.3(7) . .
C8 C9 C10 C11 0.2(13) . .
C9 C10 C11 C12 -0.5(12) . .
C9 C10 C11 C14 179.3(7) . .
C10 C11 C12 C13 0.4(12) . .
C14 C11 C12 C13 -179.4(8) . .
C9 C8 C13 C12 -0.3(13) . .
O3 C8 C13 C12 175.0(8) . .
C11 C12 C13 C8 0.0(13) . .
Co1 O4 C14 O5 4.7(9) 3 .
Co1 O4 C14 C11 -174.5(5) 3 .
Co2 O5 C14 O4 -6.4(10) . .
Co2 O5 C14 C11 172.8(5) . .
C10 C11 C14 O4 176.9(7) . .
C12 C11 C14 O4 -3.3(10) . .
C10 C11 C14 O5 -2.4(10) . .
C12 C11 C14 O5 177.5(7) . .
Co2 O6 C15 O7 0.6(10) . .
Co2 O6 C15 C16 -179.6(4) . .
Co1 O7 C15 O6 0.2(10) 3 .
Co1 O7 C15 C16 -179.6(4) 3 .
O6 C15 C16 C17 1.9(10) . .
O7 C15 C16 C17 -178.3(6) . .
O6 C15 C16 C21 179.8(6) . .
O7 C15 C16 C21 -0.4(10) . .
C21 C16 C17 C18 2.0(12) . .
C15 C16 C17 C18 179.9(7) . .
C16 C17 C18 C19 -0.1(13) . .
C17 C18 C19 C20 -1.8(13) . .
C17 C18 C19 O8 -174.2(8) . .
C22 O8 C19 C18 -35.5(12) . .
C22 O8 C19 C20 151.6(7) . .
C18 C19 C20 C21 1.7(13) . .
O8 C19 C20 C21 174.8(8) . .
C19 C20 C21 C16 0.3(12) . .
C17 C16 C21 C20 -2.1(12) . .
C15 C16 C21 C20 -180.0(7) . .
C19 O8 C22 C27 143.8(7) . .
C19 O8 C22 C23 -38.9(11) . .
C27 C22 C23 C24 -1.2(12) . .
O8 C22 C23 C24 -178.4(7) . .
C22 C23 C24 C25 -1.1(12) . .
C23 C24 C25 C26 3.6(11) . .
C23 C24 C25 C28 -177.8(7) . .
C24 C25 C26 C27 -3.8(11) . .
C28 C25 C26 C27 177.5(7) . .
C23 C22 C27 C26 1.0(12) . .
O8 C22 C27 C26 178.3(7) . .
C25 C26 C27 C22 1.6(12) . .
Co2 O9 C28 O10 -10.5(10) 3_565 .
Co2 O9 C28 C25 168.0(5) 3_565 .
Co1 O10 C28 O9 10.7(9) 1_665 .
Co1 O10 C28 C25 -167.7(5) 1_665 .
C24 C25 C28 O9 0.4(10) . .
C26 C25 C28 O9 179.0(7) . .
C24 C25 C28 O10 179.0(7) . .
C26 C25 C28 O10 -2.4(10) . .
C33 N1 C29 C30 0.3(14) . .
Co1 N1 C29 C30 176.9(7) . .
N1 C29 C30 C31 2.1(15) . .
C29 C30 C31 C32 -2.3(15) . .
C29 C30 C31 C34 179.1(9) . .
C30 C31 C32 C33 0.3(15) . .
C34 C31 C32 C33 178.9(9) . .
C29 N1 C33 C32 -2.4(14) . .
Co1 N1 C33 C32 -179.0(8) . .
C31 C32 C33 N1 2.2(15) . .
C35 N2 C34 O11 -1.0(15) . .
C35 N2 C34 C31 178.1(7) . .
C30 C31 C34 O11 9.0(14) . .
C32 C31 C34 O11 -169.6(10) . .
C30 C31 C34 N2 -170.2(9) . .
C32 C31 C34 N2 11.2(14) . .
C34 N2 C35 C36 85.3(10) . .
C34 N2 C35 C44 -91.4(10) . .
C44 C35 C36 C37 1.2(11) . .
N2 C35 C36 C37 -175.4(7) . .
C35 C36 C37 C38 -1.4(12) . .
C36 C37 C38 C39 -0.4(12) . .
C37 C38 C39 C40 -179.7(8) . .
C37 C38 C39 C44 2.2(11) . .
C38 C39 C40 C41 -175.6(8) . .
C44 C39 C40 C41 2.5(11) . .
C38 C39 C40 N3 2.5(11) . .
C44 C39 C40 N3 -179.5(6) . .
C45 N3 C40 C41 -106.1(10) . .
C45 N3 C40 C39 75.8(11) . .
C39 C40 C41 C42 -1.4(13) . .
N3 C40 C41 C42 -179.4(8) . .
C40 C41 C42 C43 0.9(14) . .
C41 C42 C43 C44 -1.5(14) . .
C36 C35 C44 C43 -176.8(7) . .
N2 C35 C44 C43 -0.2(10) . .
C36 C35 C44 C39 0.7(10) . .
N2 C35 C44 C39 177.3(5) . .
C42 C43 C44 C35 -179.9(8) . .
C42 C43 C44 C39 2.5(11) . .
C38 C39 C44 C35 -2.4(9) . .
C40 C39 C44 C35 179.5(7) . .
C38 C39 C44 C43 175.3(7) . .
C40 C39 C44 C43 -2.9(9) . .
C40 N3 C45 O12 -1.0(16) . .
C40 N3 C45 C46 -177.7(8) . .
O12 C45 C46 C50 -164(2) . .
N3 C45 C46 C50 13(3) . .
O12 C45 C46 C47B -14(3) . .
N3 C45 C46 C47B 163(3) . .
O12 C45 C46 C50B 165(3) . .
N3 C45 C46 C50B -18(3) . .
O12 C45 C46 C47 20(2) . .
N3 C45 C46 C47 -163.3(19) . .
C50 C46 C47 C48 6(4) . .
C45 C46 C47 C48 -178(3) . .
C46 C47 C48 N4 -3(5) . .
C49 N4 C48 C47 -3(5) . .
Co2 N4 C48 C47 -176(3) 3_466 .
C48 N4 C49 C50 5(4) . .
Co2 N4 C49 C50 178(2) 3_466 .
C47 C46 C50 C49 -4(4) . .
C45 C46 C50 C49 -180(2) . .
N4 C49 C50 C46 -2(5) . .
C50B C46 C47B C48B -7(3) . .
C45 C46 C47B C48B 172(2) . .
C49B N4 C48B C47B -10(5) . .
Co2 N4 C48B C47B 178(2) 3_466 .
C46 C47B C48B N4 12(5) . .
C48B N4 C49B C50B 3(5) . .
Co2 N4 C49B C50B 175(3) 3_466 .
N4 C49B C50B C46 1(5) . .
C47B C46 C50B C49B 1(4) . .
C45 C46 C50B C49B -178(2) . .
O14 C54 N6 C56 -178.4(14) . .
O14 C54 N6 C55 2(2) . .
C53 N5 C51 O13 -180(2) . .
C52 N5 C51 O13 4(3) . .
