#------------------------------------------------------------------------------
#$Date: 2019-11-19 04:58:33 +0200 (Tue, 19 Nov 2019) $
#$Revision: 231022 $
#$URL: file:///home/coder/svn-repositories/cod/cif/7/70/19/7701970.cif $
#------------------------------------------------------------------------------
#
# This file is available in the Crystallography Open Database (COD),
# http://www.crystallography.net/
#
# All data on this site have been placed in the public domain by the
# contributors.
#
data_7701970
loop_
_publ_author_name
'Wang, Xue-Zhi'
'Sun, Meng-Ying'
'Zheng, Ji'
'Luo, Dong'
'Li, Qi'
'Zhou, Xiao-Ping'
'Li, Dan'
_publ_section_title
;
 Coordination-Driven Self-Assembly of M10L8 Metal-Organic Bi-capped Square
 Antiprisms with Adaptable Cavity
;
_journal_name_full               'Dalton Transactions'
_journal_paper_doi               10.1039/C9DT04368C
_journal_year                    2019
_chemical_formula_moiety         'C88 H96 Cu10 F6 N48 Si'
_chemical_formula_sum            'C88 H96 Cu10 F6 N48 Si'
_chemical_formula_weight         2603.61
_space_group_crystal_system      monoclinic
_space_group_IT_number           15
_space_group_name_Hall           '-C 2yc'
_space_group_name_H-M_alt        'C 1 2/c 1'
_atom_sites_solution_hydrogens   geom
_audit_block_doi                 10.5517/ccdc.csd.cc20nccf
_audit_creation_date             2019-10-06
_audit_creation_method
;
Olex2 1.2
(compiled 2018.05.29 svn.r3508 for OlexSys, GUI svn.r5506)
;
_audit_update_record
;
2019-10-06 deposited with the CCDC.	2019-11-18 downloaded from the CCDC.
;
_cell_angle_alpha                90
_cell_angle_beta                 111.0710(10)
_cell_angle_gamma                90
_cell_formula_units_Z            4
_cell_length_a                   22.2435(2)
_cell_length_b                   26.0724(2)
_cell_length_c                   26.5968(2)
_cell_measurement_reflns_used    24067
_cell_measurement_temperature    293(2)
_cell_measurement_theta_max      70.6880
_cell_measurement_theta_min      3.6360
_cell_volume                     14393.2(2)
_computing_cell_refinement       'CrysAlisPro 1.171.39.28b (Rigaku OD, 2015)'
_computing_data_collection       'CrysAlisPro 1.171.39.28b (Rigaku OD, 2015)'
_computing_data_reduction        'CrysAlisPro 1.171.39.28b (Rigaku OD, 2015)'
_computing_molecular_graphics    'Olex2 (Dolomanov et al., 2009)'
_computing_publication_material  'Olex2 (Dolomanov et al., 2009)'
_computing_structure_refinement  'ShelXL (Sheldrick, 2015)'
_computing_structure_solution    'SHELXT 2014/5 (Sheldrick, 2014)'
_diffrn_ambient_temperature      293(2)
_diffrn_detector                 'CCD plate'
_diffrn_measured_fraction_theta_full 0.993
_diffrn_measured_fraction_theta_max 0.971
_diffrn_measurement_details
;
List of Runs (angles in degrees, time in seconds):

  # Type    Start    End  Width  t~exp~   \w     \q     \k     \f   Frames
#--------------------------------------------------------------------------
  1  \w     42.00  85.00   0.50    5.00    --    0.00  38.00 120.00   86
  2  \w     34.00  71.00   0.50    5.00    --    0.00  19.00-120.00   74
  3  \w    -17.00  26.00   0.50    5.00    --    0.00  19.00-120.00   86
  4  \w     -5.00  29.00   0.50    5.00    --    0.00  38.00 120.00   68
  5  \w     88.00 116.00   0.50   40.00    --   89.30 -77.00  90.00   56
  6  \w      2.00  28.00   0.50   40.00    --   89.30 -61.00 120.00   52
  7  \w      0.00  37.00   0.50   40.00    --   89.30 -82.00  60.00   74
  8  \w      0.00  96.00   0.50   40.00    --   89.30 -30.00 120.00  192
  9  \w     70.00 110.00   0.50   40.00    --   89.30 -61.00 120.00   80
 10  \w     46.00 110.00   0.50   40.00    --   89.30 -82.00  60.00  128
 11  \w    114.00 175.00   0.50   40.00    --   89.30  61.00-120.00  122
 12  \w      1.00  40.00   0.50   40.00    --   89.30 -77.00  90.00   78
 13  \w     15.00  41.00   0.50   40.00    --   89.30 -61.00  60.00   52
 14  \w     61.00 107.00   0.50   40.00    --   89.30 -61.00  60.00   92
 15  \w      5.00 102.00   0.50   40.00    --   89.30 -30.00-150.00  194
;
_diffrn_measurement_device       'four-circle diffractometer'
_diffrn_measurement_device_type  'XtaLAB AFC12 (RINC): Kappa single'
_diffrn_measurement_method       '\w scans'
_diffrn_orient_matrix_type
'CrysAlisPro convention (1999,Acta A55,543-557)'
_diffrn_orient_matrix_UB_11      -0.0361456000
_diffrn_orient_matrix_UB_12      0.0427560000
_diffrn_orient_matrix_UB_13      0.0174427000
_diffrn_orient_matrix_UB_21      -0.0204186000
_diffrn_orient_matrix_UB_22      -0.0389031000
_diffrn_orient_matrix_UB_23      0.0344502000
_diffrn_orient_matrix_UB_31      0.0615322000
_diffrn_orient_matrix_UB_32      0.0122134000
_diffrn_orient_matrix_UB_33      0.0486044000
_diffrn_radiation_monochromator  graphite
_diffrn_radiation_probe          x-ray
_diffrn_radiation_type           CuK\a
_diffrn_radiation_wavelength     1.54184
_diffrn_reflns_av_R_equivalents  0.0237
_diffrn_reflns_av_unetI/netI     0.0243
_diffrn_reflns_Laue_measured_fraction_full 0.993
_diffrn_reflns_Laue_measured_fraction_max 0.971
_diffrn_reflns_limit_h_max       27
_diffrn_reflns_limit_h_min       -24
_diffrn_reflns_limit_k_max       31
_diffrn_reflns_limit_k_min       -31
_diffrn_reflns_limit_l_max       32
_diffrn_reflns_limit_l_min       -28
_diffrn_reflns_number            39436
_diffrn_reflns_point_group_measured_fraction_full 0.993
_diffrn_reflns_point_group_measured_fraction_max 0.971
_diffrn_reflns_theta_full        67.684
_diffrn_reflns_theta_max         71.001
_diffrn_reflns_theta_min         3.562
_diffrn_source                   'fine-focus sealed X-ray tube'
_diffrn_source_type              'Enhance (Cu) X-ray Source'
_exptl_absorpt_coefficient_mu    2.138
_exptl_absorpt_correction_T_max  1.00000
_exptl_absorpt_correction_T_min  0.57393
_exptl_absorpt_correction_type   multi-scan
_exptl_absorpt_process_details
;
CrysAlisPro 1.171.39.28b (Rigaku Oxford Diffraction, 2015)
Empirical absorption correction using spherical harmonics,
 implemented in SCALE3 ABSPACK scaling algorithm.
;
_exptl_crystal_colour            'clear light green'
_exptl_crystal_colour_lustre     clear
_exptl_crystal_colour_modifier   light
_exptl_crystal_colour_primary    green
_exptl_crystal_density_diffrn    1.202
_exptl_crystal_description       rhombohedral
_exptl_crystal_F_000             5272
_exptl_crystal_size_max          0.2
_exptl_crystal_size_mid          0.2
_exptl_crystal_size_min          0.2
_refine_diff_density_max         0.545
_refine_diff_density_min         -0.455
_refine_diff_density_rms         0.059
_refine_ls_extinction_method     none
_refine_ls_goodness_of_fit_ref   1.053
_refine_ls_hydrogen_treatment    constr
_refine_ls_matrix_type           full
_refine_ls_number_parameters     710
_refine_ls_number_reflns         13495
_refine_ls_number_restraints     0
_refine_ls_restrained_S_all      1.053
_refine_ls_R_factor_all          0.0387
_refine_ls_R_factor_gt           0.0348
_refine_ls_shift/su_max          0.001
_refine_ls_shift/su_mean         0.000
_refine_ls_structure_factor_coef Fsqd
_refine_ls_weighting_details
'w=1/[\s^2^(Fo^2^)+(0.0528P)^2^+17.9160P] where P=(Fo^2^+2Fc^2^)/3'
_refine_ls_weighting_scheme      calc
_refine_ls_wR_factor_gt          0.0964
_refine_ls_wR_factor_ref         0.0986
_reflns_Friedel_coverage         0.000
_reflns_number_gt                12106
_reflns_number_total             13495
_reflns_threshold_expression     'I > 2\s(I)'
_cod_data_source_file            c9dt04368c2.cif
_cod_data_source_block           cage2
_cod_database_code               7701970
_shelx_shelxl_version_number     2018/3
_chemical_oxdiff_formula         CNHCuSiFO
_shelx_space_group_comment
;
The symmetry employed for this shelxl refinement is uniquely defined
by the following loop, which should always be used as a source of
symmetry information in preference to the above space-group names.
They are only intended as comments.
;
_reflns_odcompleteness_completeness 99.44
_reflns_odcompleteness_iscentric 1
_reflns_odcompleteness_theta     66.97
_olex2_refinement_description
;
1. Fixed Uiso
 At 1.2 times of:
  All C(H) groups, All C(H,H) groups
2. Others
 Fixed Sof: F01N(0.5) F01T(0.5) F01Y(0.5) F022(0.5)
3.a Secondary CH2 refined with riding coordinates:
 C01B(H01B,H01C), C01H(H01D,H01F), C01O(H01H,H01L), C023(H02A,H02B), C025(H02C,
 H02D), C026(H02E,H02F), C027(H02G,H02H), C029(H02I,H02J), C02B(H02K,H02L),
 C02E(H02N,H02O), C02G(H02P,H02Q), C02I(H02R,H02S)
3.b Aromatic/amide H refined with riding coordinates:
 C00U(H00U), C00Z(H00Z), C011(H011), C012(H012), C015(H015), C016(H016),
 C017(H017), C018(H018), C019(H019), C01A(H01A), C01E(H01E), C01G(H01G),
 C01I(H01I), C01J(H01J), C01K(H01K), C01P(H01P), C01Q(H01Q), C01R(H01R),
 C01U(H01U), C01W(H01W), C01X(H01X), C020(H020), C021(H021), C02C(H02M)
;
_shelx_res_file
;
TITL 180617b_a.res in C2/c
    180617b_sq_sq.res
    created by SHELXL-2018/3 at 10:02:48 on 06-Oct-2019
REM Old TITL 180617b in C2/c
REM SHELXT solution in C2/c
REM R1 0.162, Rweak 0.008, Alpha 0.044, Orientation as input
REM Formula found by SHELXT: C118 N36 O15 F2 Si Cu10
CELL 1.54184 22.2435 26.0724 26.5968 90 111.071 90
ZERR 4 0.0002 0.0002 0.0002 0 0.001 0
LATT 7
SYMM -X,+Y,0.5-Z
SFAC C H Cu F N Si
UNIT 352 384 40 24 192 4

L.S. 20 0 249
PLAN  1
BOND $H
ABIN
fmap 2 53
acta
REM <olex2.extras>
REM <HklSrc "%.\\180617b_sq_sq.hkl">
REM </olex2.extras>

WGHT    0.052800   17.916000
FVAR       0.09159
CU01  3    0.500000    0.526369    0.750000    10.50000    0.02106    0.02079 =
         0.02026    0.00000    0.00442    0.00000
CU02  3    0.429360    0.451834    0.941437    11.00000    0.03444    0.02476 =
         0.02393   -0.00184    0.01365    0.00351
CU03  3    0.500000    0.226266    0.750000    10.50000    0.05499    0.02226 =
         0.03131    0.00000    0.02002    0.00000
CU04  3    0.346012    0.292997    0.517597    11.00000    0.04848    0.03434 =
         0.02597   -0.00944    0.01540   -0.01535
CU05  3    0.223446    0.464154    0.616931    11.00000    0.02465    0.03975 =
         0.03903   -0.00588    0.00333   -0.00486
CU06  3    0.255049    0.286711    0.785353    11.00000    0.05113    0.03728 =
         0.04637   -0.01528    0.02834   -0.02038
SI07  6    0.500000    0.374422    0.750000    10.50000    0.03690    0.02413 =
         0.02429    0.00000    0.01224    0.00000
F008  4    0.500000    0.439011    0.750000    10.50000    0.03583    0.02444 =
         0.02819    0.00000    0.01173    0.00000
F009  4    0.500000    0.309570    0.750000    10.50000    0.05164    0.02491 =
         0.03387    0.00000    0.01737    0.00000
N00A  5    0.473723    0.523502    0.815651    11.00000    0.02590    0.02306 =
         0.02315   -0.00157    0.00630    0.00250
N00B  5    0.407687    0.525995    0.703537    11.00000    0.02500    0.02790 =
         0.02193   -0.00020    0.00628   -0.00024
N00C  5    0.451085    0.487412    0.883131    11.00000    0.03217    0.02239 =
         0.02443   -0.00159    0.00988    0.00369
N00D  5    0.496634    0.396716    0.963415    11.00000    0.03959    0.02515 =
         0.02524    0.00154    0.01578    0.00307
N00E  5    0.572435    0.335415    0.985438    11.00000    0.04270    0.03187 =
         0.02999    0.00720    0.01610    0.01060
N00F  5    0.424370    0.434803    1.014662    11.00000    0.04068    0.03237 =
         0.02908   -0.00444    0.01863    0.00071
N00G  5    0.380095    0.517616    0.938588    11.00000    0.03753    0.03518 =
         0.03100   -0.00125    0.01711    0.00708
N00H  5    0.299116    0.350950    0.537928    11.00000    0.03862    0.03646 =
         0.02903   -0.00200    0.01165   -0.01312
N00I  5    0.220478    0.407220    0.667451    11.00000    0.03067    0.04152 =
         0.03888   -0.01222    0.01168   -0.01027
N00K  5    0.309211    0.495216    0.658521    11.00000    0.02356    0.03301 =
         0.03324   -0.00200    0.00523   -0.00170
N00L  5    0.249256    0.415450    0.563397    11.00000    0.03504    0.03543 =
         0.03441   -0.00169    0.00842   -0.00956
N00M  5    0.299947    0.340071    0.839280    11.00000    0.04639    0.03718 =
         0.03614   -0.00856    0.02219   -0.01062
N00N  5    0.351200    0.402861    0.895948    11.00000    0.04228    0.03829 =
         0.03421   -0.01010    0.01816   -0.00781
N00O  5    0.390310    0.258294    0.589297    11.00000    0.05185    0.02680 =
         0.03264   -0.00758    0.01993   -0.00971
N00P  5    0.451109    0.226628    0.669741    11.00000    0.05661    0.02607 =
         0.03471   -0.00500    0.02264   -0.00348
N00Q  5    0.416959    0.223019    0.760678    11.00000    0.05790    0.02689 =
         0.03373   -0.00343    0.02056   -0.00736
N00R  5    0.330638    0.254973    0.774121    11.00000    0.05595    0.03062 =
         0.03724   -0.00853    0.02354   -0.01558
N00S  5    0.209513    0.533805    0.580779    11.00000    0.02817    0.04800 =
         0.04272   -0.00017   -0.00355    0.00276
N00T  5    0.220147    0.340241    0.720389    11.00000    0.04267    0.04055 =
         0.04392   -0.01363    0.02145   -0.01422
C00U  1    0.538676    0.370026    0.948571    11.00000    0.03929    0.02742 =
         0.02785    0.00362    0.01607    0.00668
AFIX  43
H00U  2    0.544130    0.374886    0.915833    11.00000   -1.20000
AFIX   0
N00V  5    0.363625    0.223711    0.490062    11.00000    0.06946    0.03777 =
         0.03293   -0.01439    0.02483   -0.02192
N00W  5    0.281210    0.310224    0.443325    11.00000    0.05393    0.05726 =
         0.02733   -0.01111    0.01392   -0.01797
N00X  5    0.125468    0.454966    0.591207    11.00000    0.02980    0.05587 =
         0.04870   -0.01139    0.00161   -0.00599
C00Y  1    0.421675    0.535165    0.871941    11.00000    0.03369    0.02535 =
         0.02899    0.00008    0.01097    0.00794
C00Z  1    0.481143    0.482548    0.848412    11.00000    0.03034    0.02426 =
         0.02197    0.00002    0.01018    0.00340
AFIX  43
H00Z  2    0.505011    0.453725    0.846793    11.00000   -1.20000
AFIX   0
C010  1    0.503083    0.377025    1.013626    11.00000    0.04214    0.03341 =
         0.02663    0.00345    0.01513    0.00376
C011  1    0.384143    0.549557    0.903495    11.00000    0.04020    0.03088 =
         0.03933    0.00137    0.01633    0.01148
AFIX  43
H011  2    0.363364    0.581128    0.898633    11.00000   -1.20000
AFIX   0
C012  1    0.372686    0.564351    0.671548    11.00000    0.02848    0.02864 =
         0.02462    0.00312    0.00615    0.00109
AFIX  43
H012  2    0.387154    0.597401    0.669152    11.00000   -1.20000
AFIX   0
N013  5    0.213226    0.219399    0.752014    11.00000    0.06006    0.04894 =
         0.07107   -0.02439    0.03418   -0.02822
C014  1    0.312145    0.545512    0.643422    11.00000    0.02405    0.03419 =
         0.02819   -0.00099    0.00561    0.00145
C015  1    0.350843    0.371237    0.855991    11.00000    0.03885    0.03081 =
         0.03238   -0.00556    0.01634   -0.00709
AFIX  43
H015  2    0.383045    0.371089    0.841362    11.00000   -1.20000
AFIX   0
C016  1    0.435846    0.556658    0.830446    11.00000    0.03370    0.02263 =
         0.03030    0.00198    0.01137    0.00696
AFIX  43
H016  2    0.421894    0.588557    0.815013    11.00000   -1.20000
AFIX   0
C017  1    0.296965    0.380662    0.578324    11.00000    0.03933    0.03415 =
         0.02989   -0.00506    0.01233   -0.01087
AFIX  43
H017  2    0.325904    0.377490    0.613539    11.00000   -1.20000
AFIX   0
C018  1    0.256525    0.565275    0.601326    11.00000    0.03028    0.03914 =
         0.03694    0.00202    0.00297    0.00278
AFIX  43
H018  2    0.254528    0.599021    0.589505    11.00000   -1.20000
AFIX   0
C019  1    0.462930    0.399053    1.039465    11.00000    0.04907    0.03902 =
         0.02672    0.00074    0.01934    0.00263
AFIX  43
H019  2    0.464792    0.387766    1.073163    11.00000   -1.20000
AFIX   0
C01A  1    0.367479    0.485147    0.694413    11.00000    0.02378    0.02864 =
         0.03193   -0.00052    0.00726   -0.00282
AFIX  43
H01A  2    0.379308    0.453572    0.711363    11.00000   -1.20000
AFIX   0
C01B  1    0.381179    0.457401    1.039157    11.00000    0.04525    0.04349 =
         0.03319   -0.00611    0.02448   -0.00012
AFIX  23
H01B  2    0.397954    0.450602    1.077582    11.00000   -1.20000
H01C  2    0.339139    0.441358    1.023977    11.00000   -1.20000
AFIX   0
C01C  1    0.411150    0.209815    0.582363    11.00000    0.05830    0.02841 =
         0.03622   -0.00991    0.02326   -0.01141
C01D  1    0.248648    0.368944    0.493480    11.00000    0.03843    0.04305 =
         0.02959    0.00102    0.00845   -0.01571
C01E  1    0.549662    0.339679    1.026456    11.00000    0.05034    0.03628 =
         0.02992    0.00828    0.01757    0.00903
AFIX  43
H01E  2    0.563433    0.320426    1.058001    11.00000   -1.20000
AFIX   0
N01F  5    0.187394    0.295356    0.819457    11.00000    0.06486    0.06537 =
         0.06880   -0.02780    0.04589   -0.03665
C01G  1    0.218540    0.407854    0.509427    11.00000    0.03616    0.04498 =
         0.03635    0.00184    0.00880   -0.01016
AFIX  43
H01G  2    0.183018    0.426139    0.487219    11.00000   -1.20000
AFIX   0
C01H  1    0.374106    0.514714    1.029912    11.00000    0.04571    0.04089 =
         0.03757   -0.00956    0.02442    0.00333
AFIX  23
H01D  2    0.416573    0.530212    1.043635    11.00000   -1.20000
H01F  2    0.349608    0.528468    1.050525    11.00000   -1.20000
AFIX   0
C01I  1    0.390977    0.262899    0.778315    11.00000    0.05302    0.02772 =
         0.03466   -0.00700    0.02233   -0.01131
AFIX  43
H01I  2    0.413366    0.292959    0.792050    11.00000   -1.20000
AFIX   0
C01J  1    0.415271    0.266351    0.641922    11.00000    0.05328    0.02726 =
         0.02830   -0.00531    0.01823   -0.00330
AFIX  43
H01J  2    0.408810    0.296370    0.658181    11.00000   -1.20000
AFIX   0
C01K  1    0.255509    0.374446    0.704372    11.00000    0.03629    0.03916 =
         0.03691   -0.01068    0.01428   -0.01114
AFIX  43
H01K  2    0.300311    0.374851    0.718076    11.00000   -1.20000
AFIX   0
C01L  1    0.157170    0.393489    0.658715    11.00000    0.03107    0.05129 =
         0.04620   -0.01670    0.01453   -0.01113
PART 1
F01N  4    0.483295    0.370500    0.806629    10.50000    0.07456    0.02270 =
         0.03764   -0.00307    0.03441   -0.00395
PART 0
C01O  1    0.341278    0.530204    0.971461    11.00000    0.04731    0.04553 =
         0.04737    0.00182    0.03013    0.01499
AFIX  23
H01H  2    0.300044    0.512860    0.956708    11.00000   -1.20000
H01L  2    0.333151    0.566836    0.969575    11.00000   -1.20000
AFIX   0
C01P  1    0.158114    0.352902    0.691371    11.00000    0.04027    0.05201 =
         0.05302   -0.01831    0.02274   -0.01813
AFIX  43
H01P  2    0.121946    0.336491    0.693427    11.00000   -1.20000
AFIX   0
C01Q  1    0.448238    0.190882    0.631892    11.00000    0.06613    0.02532 =
         0.04605   -0.00848    0.02996   -0.00454
AFIX  43
H01Q  2    0.468093    0.158911    0.638448    11.00000   -1.20000
AFIX   0
C01R  1    0.368804    0.187118    0.743634    11.00000    0.06161    0.02692 =
         0.04078   -0.00582    0.02111   -0.00849
AFIX  43
H01R  2    0.371723    0.155208    0.729052    11.00000   -1.20000
AFIX   0
C01S  1    0.315951    0.206157    0.751700    11.00000    0.06178    0.02694 =
         0.03835   -0.00666    0.02043   -0.01398
PART 1
F01T  4    0.420550    0.370809    0.712704    10.50000    0.03625    0.02334 =
         0.05484   -0.00693    0.00367   -0.00170
PART 0
C01U  1    0.241326    0.345114    0.443001    11.00000    0.04595    0.05795 =
         0.02913   -0.00190    0.01015   -0.01762
AFIX  43
H01U  2    0.208610    0.354867    0.411269    11.00000   -1.20000
AFIX   0
C01V  1    0.264826    0.352600    0.870698    11.00000    0.06301    0.06345 =
         0.05158   -0.02191    0.03911   -0.02712
C01W  1    0.393774    0.192709    0.527544    11.00000    0.07163    0.02990 =
         0.04391   -0.01660    0.02997   -0.01547
AFIX  43
H01W  2    0.404299    0.159893    0.519739    11.00000   -1.20000
AFIX   0
C01X  1    0.251856    0.189036    0.741384    11.00000    0.06960    0.03758 =
         0.05651   -0.01580    0.02835   -0.02247
AFIX  43
H01X  2    0.238578    0.156571    0.727271    11.00000   -1.20000
AFIX   0
PART 2
F01Y  4    0.454460    0.378024    0.684467    10.50000    0.08421    0.02469 =
         0.02953   -0.00211    0.00358   -0.00669
PART 0
C020  1    0.108275    0.421097    0.617849    11.00000    0.03218    0.05627 =
         0.05741   -0.01616    0.01191   -0.01030
AFIX  43
H020  2    0.064909    0.414546    0.610815    11.00000   -1.20000
AFIX   0
C021  1    0.297258    0.390588    0.905686    11.00000    0.06456    0.07229 =
         0.05393   -0.03113    0.03972   -0.02764
AFIX  43
H021  2    0.284257    0.405499    0.931878    11.00000   -1.20000
AFIX   0
PART 2
F022  4    0.433393    0.377689    0.765680    10.50000    0.06263    0.02731 =
         0.08545    0.00163    0.04904   -0.00369
PART 0
C023  1    0.280318    0.228877    0.397800    11.00000    0.08685    0.06960 =
         0.03351   -0.02021    0.02568   -0.04027
AFIX  23
H02A  2    0.268825    0.214028    0.362129    11.00000   -1.20000
H02B  2    0.248233    0.217919    0.412396    11.00000   -1.20000
AFIX   0
C025  1    0.277291    0.285806    0.392447    11.00000    0.07113    0.07242 =
         0.03026   -0.01342    0.01930   -0.02631
AFIX  23
H02C  2    0.312605    0.297741    0.382239    11.00000   -1.20000
H02D  2    0.237253    0.295578    0.364221    11.00000   -1.20000
AFIX   0
C026  1    0.151525    0.551762    0.536842    11.00000    0.03397    0.05838 =
         0.06070    0.00513   -0.01222    0.00117
AFIX  23
H02E  2    0.148545    0.534993    0.503473    11.00000   -1.20000
H02F  2    0.154517    0.588443    0.532114    11.00000   -1.20000
AFIX   0
C027  1    0.345396    0.207471    0.433240    11.00000    0.09575    0.04739 =
         0.04017   -0.02310    0.03718   -0.02537
AFIX  23
H02G  2    0.343924    0.170311    0.431448    11.00000   -1.20000
H02H  2    0.378058    0.218973    0.419540    11.00000   -1.20000
AFIX   0
C029  1    0.076693    0.483456    0.548011    11.00000    0.02587    0.06906 =
         0.06197   -0.00707   -0.00631   -0.00202
AFIX  23
H02I  2    0.035014    0.478880    0.551353    11.00000   -1.20000
H02J  2    0.074072    0.469536    0.513464    11.00000   -1.20000
AFIX   0
C02B  1    0.091749    0.539970    0.549529    11.00000    0.02939    0.06270 =
         0.07543   -0.00536   -0.00619    0.00650
AFIX  23
H02K  2    0.097580    0.553198    0.585065    11.00000   -1.20000
H02L  2    0.055270    0.557649    0.523751    11.00000   -1.20000
AFIX   0
C02C  1    0.204699    0.326997    0.858813    11.00000    0.07901    0.09068 =
         0.07885   -0.04331    0.06069   -0.04824
AFIX  43
H02M  2    0.178899    0.333100    0.879011    11.00000   -1.20000
AFIX   0
C02E  1    0.124622    0.269116    0.803859    11.00000    0.07903    0.09600 =
         0.10697   -0.05041    0.07098   -0.05530
AFIX  23
H02N  2    0.094394    0.285349    0.771957    11.00000   -1.20000
H02O  2    0.107787    0.272406    0.832665    11.00000   -1.20000
AFIX   0
C02G  1    0.146983    0.204127    0.742465    11.00000    0.07280    0.07110 =
         0.12962   -0.06030    0.05751   -0.04732
AFIX  23
H02P  2    0.141381    0.168153    0.732572    11.00000   -1.20000
H02Q  2    0.117837    0.223916    0.712811    11.00000   -1.20000
AFIX   0
C02I  1    0.130827    0.212787    0.792471    11.00000    0.09955    0.08802 =
         0.14300   -0.04614    0.08457   -0.06656
AFIX  23
H02R  2    0.164255    0.197545    0.823169    11.00000   -1.20000
H02S  2    0.090609    0.195563    0.788118    11.00000   -1.20000
AFIX   0
HKLF 4




REM  180617b_a.res in C2/c
REM wR2 = 0.0986, GooF = S = 1.053, Restrained GooF = 1.053 for all data
REM R1 = 0.0348 for 12106 Fo > 4sig(Fo) and 0.0387 for all 13495 data
REM 710 parameters refined using 0 restraints

END

WGHT      0.0528     17.9157

REM Highest difference peak  0.545,  deepest hole -0.455,  1-sigma level  0.059
Q1    1   0.2204  0.3075  0.7593  11.00000  0.05    0.54
;
_shelx_res_checksum              76822
_shelx_fab_file
;
    2    0    0    298.63      0.00
    4    0    0    395.46      0.00
    6    0    0    -47.30      0.00
    8    0    0     -4.07      0.00
   10    0    0     22.41      0.00
   12    0    0     -0.12      0.00
   14    0    0     15.65      0.00
   16    0    0     12.19      0.00
   18    0    0     25.10      0.00
   20    0    0      6.08      0.00
   22    0    0      9.56      0.00
   24    0    0      4.63      0.00
    3    1    0    -59.07      0.00
    5    1    0    -81.26      0.00
    7    1    0    164.70      0.00
    9    1    0     -0.63      0.00
   11    1    0     57.07      0.00
   13    1    0     10.75      0.00
   15    1    0     13.88      0.00
   17    1    0      0.05      0.00
   19    1    0      1.48      0.00
   21    1    0     -0.98      0.00
   23    1    0     -1.55      0.00
   25    1    0     -0.45      0.00
    2    2    0    -72.77      0.00
    4    2    0     64.28      0.00
    6    2    0   -102.26      0.00
    8    2    0    -43.76      0.00
   10    2    0    -52.40      0.00
   12    2    0    -36.90      0.00
   14    2    0      1.68      0.00
   16    2    0    -15.79      0.00
   18    2    0      4.95      0.00
   20    2    0     -4.69      0.00
   22    2    0      8.58      0.00
   24    2    0     -1.48      0.00
    1    3    0   -110.74      0.00
    3    3    0    -16.21      0.00
    5    3    0    -69.12      0.00
    7    3    0      9.35      0.00
    9    3    0     34.75      0.00
   11    3    0     15.34      0.00
   13    3    0     -9.95      0.00
   15    3    0    -16.72      0.00
   17    3    0     -9.60      0.00
   19    3    0    -14.34      0.00
   21    3    0     -1.19      0.00
   23    3    0     -4.49      0.00
   25    3    0     -4.34      0.00
    2    4    0    -59.51      0.00
    4    4    0     30.62      0.00
    6    4    0    -59.52      0.00
    8    4    0    -54.82      0.00
   10    4    0    -25.90      0.00
   12    4    0    -26.32      0.00
   14    4    0      4.71      0.00
   16    4    0     -1.25      0.00
   18    4    0      9.91      0.00
   20    4    0     -5.45      0.00
   22    4    0     -0.48      0.00
   24    4    0     -2.33      0.00
    1    5    0    -36.71      0.00
    3    5    0      2.07      0.00
    5    5    0      6.49      0.00
    7    5    0      3.08      0.00
    9    5    0    -25.18      0.00
   11    5    0      1.89      0.00
   13    5    0      7.15      0.00
   15    5    0      3.04      0.00
   17    5    0     -4.52      0.00
   19    5    0     -6.99      0.00
   21    5    0     -4.10      0.00
   23    5    0     -1.32      0.00
   25    5    0      1.19      0.00
    0    6    0     16.22      0.00
    2    6    0    -41.28      0.00
    4    6    0     34.52      0.00
    6    6    0      5.75      0.00
    8    6    0     53.28      0.00
   10    6    0      4.47      0.00
   12    6    0     -4.37      0.00
   14    6    0      0.13      0.00
   16    6    0    -11.09      0.00
   18    6    0      7.00      0.00
   20    6    0      4.23      0.00
   22    6    0      2.67      0.00
   24    6    0      0.52      0.00
    1    7    0    111.17      0.00
    3    7    0    -16.03      0.00
    5    7    0     62.91      0.00
    7    7    0      2.75      0.00
    9    7    0     33.25      0.00
   11    7    0     15.72      0.00
   13    7    0     -8.49      0.00
   15    7    0     -9.27      0.00
   17    7    0      4.54      0.00
   19    7    0     -8.29      0.00
   21    7    0      1.54      0.00
   23    7    0     -5.22      0.00
    0    8    0   -186.27      0.00
    2    8    0    -16.39      0.00
    4    8    0      4.55      0.00
    6    8    0    -14.00      0.00
    8    8    0      0.56      0.00
   10    8    0    -25.29      0.00
   12    8    0     16.76      0.00
   14    8    0     16.38      0.00
   16    8    0     12.92      0.00
   18    8    0      6.21      0.00
   20    8    0      1.09      0.00
   22    8    0      6.95      0.00
   24    8    0      0.95      0.00
    1    9    0     74.21      0.00
    3    9    0     25.69      0.00
    5    9    0    -16.04      0.00
    7    9    0    -56.27      0.00
    9    9    0     -0.82      0.00
   11    9    0     -0.10      0.00
   13    9    0      3.52      0.00
   15    9    0      9.24      0.00
   17    9    0     -1.43      0.00
   19    9    0      8.09      0.00
   21    9    0      2.80      0.00
   23    9    0      3.28      0.00
    0   10    0    -25.48      0.00
    2   10    0    -36.33      0.00
    4   10    0      6.39      0.00
    6   10    0     23.11      0.00
    8   10    0     38.41      0.00
   10   10    0     21.31      0.00
   12   10    0      6.37      0.00
   14   10    0      3.91      0.00
   16   10    0      0.74      0.00
   18   10    0      2.81      0.00
   20   10    0     -2.11      0.00
   22   10    0     -0.92      0.00
    1   11    0     41.00      0.00
    3   11    0    -31.39      0.00
    5   11    0     34.81      0.00
    7   11    0     21.66      0.00
    9   11    0      2.55      0.00
   11   11    0     -6.61      0.00
   13   11    0     -8.69      0.00
   15   11    0     -9.19      0.00
   17   11    0      0.56      0.00
   19   11    0      1.28      0.00
   21   11    0     -4.14      0.00
   23   11    0      0.00      0.00
    0   12    0    -13.48      0.00
    2   12    0     32.36      0.00
    4   12    0    -15.62      0.00
    6   12    0     -9.31      0.00
    8   12    0    -22.94      0.00
   10   12    0     -7.80      0.00
   12   12    0     -4.52      0.00
   14   12    0     -6.57      0.00
   16   12    0     -3.25      0.00
   18   12    0     -7.76      0.00
   20   12    0     -4.75      0.00
   22   12    0     -0.88      0.00
    1   13    0    -51.86      0.00
    3   13    0    -15.00      0.00
    5   13    0     -9.19      0.00
    7   13    0    -44.87      0.00
    9   13    0    -19.84      0.00
   11   13    0    -21.19      0.00
   13   13    0     -7.57      0.00
   15   13    0     -5.38      0.00
   17   13    0     -9.36      0.00
   19   13    0     -1.12      0.00
   21   13    0      3.74      0.00
   23   13    0      0.46      0.00
    0   14    0    -26.23      0.00
    2   14    0     29.55      0.00
    4   14    0    -37.41      0.00
    6   14    0     -6.73      0.00
    8   14    0      3.97      0.00
   10   14    0      0.01      0.00
   12   14    0     13.36      0.00
   14   14    0      4.07      0.00
   16   14    0      7.07      0.00
   18   14    0      3.56      0.00
   20   14    0     -4.81      0.00
   22   14    0     -4.19      0.00
    1   15    0    -16.90      0.00
    3   15    0    -40.93      0.00
    5   15    0     25.74      0.00
    7   15    0     -2.43      0.00
    9   15    0     20.51      0.00
   11   15    0     -3.10      0.00
   13   15    0     -7.85      0.00
   15   15    0    -10.18      0.00
   17   15    0      0.38      0.00
   19   15    0      0.31      0.00
   21   15    0      3.39      0.00
    0   16    0     16.56      0.00
    2   16    0     52.55      0.00
    4   16    0     15.57      0.00
    6   16    0     22.38      0.00
    8   16    0     13.73      0.00
   10   16    0     16.35      0.00
   12   16    0      3.29      0.00
   14   16    0     18.41      0.00
   16   16    0      2.87      0.00
   18   16    0      3.61      0.00
   20   16    0     -0.09      0.00
    1   17    0     13.63      0.00
    3   17    0     16.01      0.00
    5   17    0     25.21      0.00
    7   17    0     -3.32      0.00
    9   17    0     -8.86      0.00
   11   17    0      0.29      0.00
   13   17    0      4.99      0.00
   15   17    0      5.50      0.00
   17   17    0      8.28      0.00
   19   17    0      1.06      0.00
   21   17    0      6.20      0.00
    0   18    0     -2.93      0.00
    2   18    0     44.82      0.00
    4   18    0    -31.35      0.00
    6   18    0     10.28      0.00
    8   18    0      3.29      0.00
   10   18    0     15.92      0.00
   12   18    0      6.02      0.00
   14   18    0      8.08      0.00
   16   18    0     -1.77      0.00
   18   18    0      2.57      0.00
   20   18    0      0.41      0.00
    1   19    0    -18.45      0.00
    3   19    0    -19.59      0.00
    5   19    0     -0.18      0.00
    7   19    0     -3.11      0.00
    9   19    0     -6.50      0.00
   11   19    0     -5.02      0.00
   13   19    0    -16.06      0.00
   15   19    0    -13.50      0.00
   17   19    0     -6.83      0.00
   19   19    0     -5.04      0.00
    0   20    0    -30.49      0.00
    2   20    0    -41.95      0.00
    4   20    0     13.10      0.00
    6   20    0    -15.38      0.00
    8   20    0     -8.81      0.00
   10   20    0    -10.48      0.00
   12   20    0    -10.67      0.00
   14   20    0      6.64      0.00
   16   20    0     -0.76      0.00
   18   20    0      2.70      0.00
    1   21    0     14.37      0.00
    3   21    0      6.92      0.00
    5   21    0    -32.59      0.00
    7   21    0      5.41      0.00
    9   21    0    -13.57      0.00
   11   21    0      7.12      0.00
   13   21    0     -1.72      0.00
   15   21    0     -1.80      0.00
   17   21    0      1.58      0.00
    0   22    0     25.04      0.00
    2   22    0     -6.27      0.00
    4   22    0      0.48      0.00
    6   22    0      6.12      0.00
    8   22    0     -3.73      0.00
   10   22    0     11.92      0.00
   12   22    0     -5.26      0.00
   14   22    0      4.72      0.00
   16   22    0     -1.90      0.00
   18   22    0     -0.90      0.00
    1   23    0     -7.18      0.00
    3   23    0     27.85      0.00
    5   23    0      3.75      0.00
    7   23    0     18.59      0.00
    9   23    0      1.21      0.00
   11   23    0     -3.05      0.00
   13   23    0      3.77      0.00
   15   23    0     -1.21      0.00
   17   23    0     -1.28      0.00
    0   24    0     -7.00      0.00
    2   24    0     -1.96      0.00
    4   24    0     -3.68      0.00
    6   24    0     11.03      0.00
    8   24    0    -13.23      0.00
   10   24    0      7.77      0.00
   12   24    0     -3.43      0.00
   14   24    0     -3.77      0.00
   16   24    0      0.53      0.00
    1   25    0     13.51      0.00
    3   25    0     -5.49      0.00
    5   25    0     -7.87      0.00
    7   25    0     -2.33      0.00
    9   25    0      8.37      0.00
   11   25    0      1.61      0.00
   13   25    0     10.18      0.00
   15   25    0      2.85      0.00
    0   26    0     -3.37      0.00
    2   26    0      1.22      0.00
    4   26    0     -4.64      0.00
    6   26    0      6.04      0.00
    8   26    0     -6.12      0.00
   10   26    0     -3.28      0.00
   12   26    0     -1.22      0.00
    1   27    0    -10.20      0.00
    3   27    0      2.57      0.00
    5   27    0      5.67      0.00
    7   27    0     -3.03      0.00
    9   27    0      8.03      0.00
   11   27    0     -3.30      0.00
   13   27    0      4.72      0.00
    0   28    0     -7.75      0.00
    2   28    0     18.13      0.00
    4   28    0     -9.71      0.00
    6   28    0      6.15      0.00
    8   28    0     -2.57      0.00
   10   28    0      3.05      0.00
   12   28    0     -3.51      0.00
    1   29    0      2.00      0.00
    3   29    0     -9.95      0.00
    5   29    0      5.06      0.00
    7   29    0     -6.79      0.00
    9   29    0     -2.71      0.00
    0   30    0     -8.03      0.00
    2   30    0      0.68      0.00
    4   30    0     -4.43      0.00
    6   30    0     -5.08      0.00
    8   30    0     -0.03      0.00
    3   31    0     -0.50      0.00
  -25    1    1      5.30      0.00
  -23    1    1      0.97      0.00
  -21    1    1      6.88      0.00
  -19    1    1      5.94      0.00
  -17    1    1      2.76      0.00
  -15    1    1      5.27      0.00
  -13    1    1     18.28      0.00
  -11    1    1     35.22      0.00
   -9    1    1     18.19      0.00
   -7    1    1    145.49      0.00
   -5    1    1    206.94      0.00
   -3    1    1    338.24      0.00
    1    1    1   -231.94      0.00
    3    1    1     65.33      0.00
    5    1    1     -9.08      0.00
    7    1    1     89.60      0.00
    9    1    1     21.62      0.00
   11    1    1     33.85      0.00
   13    1    1     13.32      0.00
   15    1    1     26.90      0.00
   17    1    1      8.82      0.00
   19    1    1     10.27      0.00
   21    1    1      2.65      0.00
   23    1    1      6.49      0.00
  -24    2    1     -0.02      0.00
  -22    2    1      5.19      0.00
  -20    2    1      5.67      0.00
  -18    2    1     11.33      0.00
  -16    2    1      3.27      0.00
  -14    2    1      8.43      0.00
  -12    2    1      1.63      0.00
  -10    2    1     25.61      0.00
   -8    2    1     36.09      0.00
   -6    2    1     13.18      0.00
   -4    2    1      6.05      0.00
   -2    2    1   -145.13      0.00
    0    2    1    181.01      0.00
    2    2    1      8.70      0.00
    4    2    1    145.01      0.00
    6    2    1     16.68      0.00
    8    2    1      1.01      0.00
   10    2    1     25.54      0.00
   12    2    1      3.14      0.00
   14    2    1      4.39      0.00
   16    2    1      1.03      0.00
   18    2    1      5.88      0.00
   20    2    1     -2.93      0.00
   22    2    1      3.40      0.00
   24    2    1      1.92      0.00
  -25    3    1      3.05      0.00
  -23    3    1      2.24      0.00
  -21    3    1      2.82      0.00
  -19    3    1      9.42      0.00
  -17    3    1     12.48      0.00
  -15    3    1     30.54      0.00
  -13    3    1     10.42      0.00
  -11    3    1     26.12      0.00
   -9    3    1     -6.36      0.00
   -7    3    1     10.59      0.00
   -5    3    1   -207.19      0.00
   -3    3    1    -73.30      0.00
   -1    3    1   -295.93      0.00
    1    3    1    149.90      0.00
    3    3    1     -6.23      0.00
    5    3    1    -67.29      0.00
    7    3    1     49.49      0.00
    9    3    1    -51.82      0.00
   11    3    1     24.95      0.00
   13    3    1    -15.10      0.00
   15    3    1      0.43      0.00
   17    3    1     -5.16      0.00
   19    3    1      9.51      0.00
   21    3    1      0.66      0.00
   23    3    1      0.22      0.00
  -24    4    1     -2.85      0.00
  -22    4    1      0.03      0.00
  -20    4    1    -17.42      0.00
  -18    4    1     -9.46      0.00
  -16    4    1    -28.53      0.00
  -14    4    1     -5.92      0.00
  -12    4    1    -20.11      0.00
  -10    4    1      4.56      0.00
   -8    4    1    -71.57      0.00
   -6    4    1     61.41      0.00
   -4    4    1    177.98      0.00
   -2    4    1     97.72      0.00
    0    4    1     76.16      0.00
    2    4    1    -87.48      0.00
    4    4    1     85.42      0.00
    6    4    1    -61.30      0.00
    8    4    1     32.58      0.00
   10    4    1    -33.67      0.00
   12    4    1     -5.58      0.00
   14    4    1      4.34      0.00
   16    4    1      8.35      0.00
   18    4    1      1.55      0.00
   20    4    1      1.89      0.00
   22    4    1      2.32      0.00
   24    4    1     -2.09      0.00
  -25    5    1      1.19      0.00
  -23    5    1     -3.10      0.00
  -21    5    1      2.22      0.00
  -19    5    1      3.29      0.00
  -17    5    1     -1.29      0.00
  -15    5    1     -1.15      0.00
  -13    5    1    -20.26      0.00
  -11    5    1      8.83      0.00
   -9    5    1    -45.13      0.00
   -7    5    1     28.05      0.00
   -5    5    1   -180.08      0.00
   -3    5    1    -61.86      0.00
   -1    5    1   -186.19      0.00
    1    5    1   -121.18      0.00
    3    5    1    -34.91      0.00
    5    5    1    -47.95      0.00
    7    5    1     31.72      0.00
    9    5    1     12.69      0.00
   11    5    1     41.99      0.00
   13    5    1     -2.12      0.00
   15    5    1     10.49      0.00
   17    5    1    -15.13      0.00
   19    5    1     -3.08      0.00
   21    5    1     -3.74      0.00
   23    5    1     -2.85      0.00
  -24    6    1      4.08      0.00
  -22    6    1     -2.62      0.00
  -20    6    1     -0.02      0.00
  -18    6    1      2.76      0.00
  -16    6    1     -5.99      0.00
  -14    6    1     -2.50      0.00
  -12    6    1    -47.20      0.00
  -10    6    1    -16.26      0.00
   -8    6    1    -17.28      0.00
   -6    6    1      1.51      0.00
   -4    6    1     87.20      0.00
   -2    6    1     -4.78      0.00
    0    6    1    165.36      0.00
    2    6    1    -39.33      0.00
    4    6    1    -21.79      0.00
    6    6    1    -77.13      0.00
    8    6    1    -42.18      0.00
   10    6    1    -26.81      0.00
   12    6    1    -18.56      0.00
   14    6    1     -8.03      0.00
   16    6    1    -17.72      0.00
   18    6    1      7.96      0.00
   20    6    1     -9.31      0.00
   22    6    1      4.05      0.00
   24    6    1     -2.35      0.00
  -25    7    1     -1.82      0.00
  -23    7    1     -8.24      0.00
  -21    7    1      0.13      0.00
  -19    7    1     -8.27      0.00
  -17    7    1     -0.62      0.00
  -15    7    1     11.77      0.00
  -13    7    1     11.63      0.00
  -11    7    1     50.94      0.00
   -9    7    1     -0.13      0.00
   -7    7    1     56.49      0.00
   -5    7    1    -37.63      0.00
   -3    7    1    -28.72      0.00
   -1    7    1     11.18      0.00
    1    7    1    -82.24      0.00
    3    7    1     37.80      0.00
    5    7    1     18.03      0.00
    7    7    1     60.09      0.00
    9    7    1    -33.15      0.00
   11    7    1     -0.92      0.00
   13    7    1    -27.91      0.00
   15    7    1      1.96      0.00
   17    7    1     -3.56      0.00
   19    7    1     -2.65      0.00
   21    7    1     -6.09      0.00
   23    7    1     -3.35      0.00
  -24    8    1      0.74      0.00
  -22    8    1      1.80      0.00
  -20    8    1     -3.79      0.00
  -18    8    1      0.38      0.00
  -16    8    1    -22.01      0.00
  -14    8    1     -2.76      0.00
  -12    8    1     -7.33      0.00
  -10    8    1     -8.74      0.00
   -8    8    1     -9.27      0.00
   -6    8    1    -32.45      0.00
   -4    8    1     14.28      0.00
   -2    8    1     47.25      0.00
    0    8    1     56.00      0.00
    2    8    1     20.00      0.00
    4    8    1     42.55      0.00
    6    8    1    -11.88      0.00
    8    8    1     -8.85      0.00
   10    8    1     -9.35      0.00
   12    8    1     -4.79      0.00
   14    8    1      6.69      0.00
   16    8    1     -2.00      0.00
   18    8    1      0.74      0.00
   20    8    1     -0.40      0.00
   22    8    1      2.08      0.00
   24    8    1      2.71      0.00
  -23    9    1     -1.77      0.00
  -21    9    1      2.56      0.00
  -19    9    1     -1.19      0.00
  -17    9    1      7.23      0.00
  -15    9    1      5.51      0.00
  -13    9    1     -2.27      0.00
  -11    9    1      7.72      0.00
   -9    9    1      0.10      0.00
   -7    9    1     24.28      0.00
   -5    9    1     15.89      0.00
   -3    9    1    -13.10      0.00
   -1    9    1    -44.88      0.00
    1    9    1      9.44      0.00
    3    9    1     -5.00      0.00
    5    9    1     -6.76      0.00
    7    9    1      4.91      0.00
    9    9    1      6.70      0.00
   11    9    1     47.60      0.00
   13    9    1     -6.42      0.00
   15    9    1     10.76      0.00
   17    9    1     -9.91      0.00
   19    9    1     -1.39      0.00
   21    9    1      2.13      0.00
   23    9    1     -5.66      0.00
  -22   10    1      5.19      0.00
  -20   10    1      1.41      0.00
  -18   10    1      7.93      0.00
  -16   10    1      8.07      0.00
  -14   10    1      3.02      0.00
  -12   10    1    -14.16      0.00
  -10   10    1    -16.29      0.00
   -8   10    1     -6.00      0.00
   -6   10    1     -9.57      0.00
   -4   10    1     32.14      0.00
   -2   10    1    -51.13      0.00
    0   10    1    -47.55      0.00
    2   10    1     -2.01      0.00
    4   10    1    -43.58      0.00
    6   10    1    -25.55      0.00
    8   10    1     31.33      0.00
   10   10    1    -20.21      0.00
   12   10    1      0.80      0.00
   14   10    1      4.19      0.00
   16   10    1      1.58      0.00
   18   10    1     17.91      0.00
   20   10    1      4.08      0.00
   22   10    1      7.31      0.00
  -23   11    1     -3.80      0.00
  -21   11    1      2.09      0.00
  -19   11    1      4.92      0.00
  -17   11    1     -3.93      0.00
  -15   11    1     16.70      0.00
  -13   11    1      3.73      0.00
  -11   11    1     45.89      0.00
   -9   11    1     -3.61      0.00
   -7   11    1     36.91      0.00
   -5   11    1     -5.78      0.00
   -3   11    1     45.03      0.00
   -1   11    1     61.40      0.00
    1   11    1     26.59      0.00
    3   11    1     49.60      0.00
    5   11    1     21.69      0.00
    7   11    1     37.42      0.00
    9   11    1      2.05      0.00
   11   11    1     32.49      0.00
   13   11    1      3.03      0.00
   15   11    1     17.58      0.00
   17   11    1     -0.15      0.00
   19   11    1      1.40      0.00
   21   11    1     -2.34      0.00
   23   11    1     -1.20      0.00
  -22   12    1      0.75      0.00
  -20   12    1      1.86      0.00
  -18   12    1      7.08      0.00
  -16   12    1     -7.14      0.00
  -14   12    1      6.41      0.00
  -12   12    1     -1.68      0.00
  -10   12    1     13.84      0.00
   -8   12    1      5.67      0.00
   -6   12    1    -36.10      0.00
   -4   12    1    -21.43      0.00
   -2   12    1    -14.29      0.00
    0   12    1     39.46      0.00
    2   12    1    -42.99      0.00
    4   12    1     69.93      0.00
    6   12    1     -6.24      0.00
    8   12    1     14.73      0.00
   10   12    1     -9.25      0.00
   12   12    1      0.17      0.00
   14   12    1     -1.18      0.00
   16   12    1      5.83      0.00
   18   12    1     -0.60      0.00
   20   12    1     -1.72      0.00
   22   12    1      4.10      0.00
  -23   13    1      0.60      0.00
  -21   13    1     -3.98      0.00
  -19   13    1     -1.86      0.00
  -17   13    1     -6.53      0.00
  -15   13    1     10.98      0.00
  -13   13    1    -12.50      0.00
  -11   13    1     12.70      0.00
   -9   13    1    -24.92      0.00
   -7   13    1     52.77      0.00
   -5   13    1     14.33      0.00
   -3   13    1     65.21      0.00
   -1   13    1     10.85      0.00
    1   13    1     24.39      0.00
    3   13    1     -5.56      0.00
    5   13    1    -18.98      0.00
    7   13    1     -2.70      0.00
    9   13    1    -23.67      0.00
   11   13    1     -1.70      0.00
   13   13    1    -10.90      0.00
   15   13    1     -2.77      0.00
   17   13    1     -6.77      0.00
   19   13    1      3.05      0.00
   21   13    1     -2.43      0.00
  -22   14    1      2.81      0.00
  -20   14    1     -4.93      0.00
  -18   14    1     -2.63      0.00
  -16   14    1     -3.18      0.00
  -14   14    1    -18.92      0.00
  -12   14    1    -11.12      0.00
  -10   14    1    -11.74      0.00
   -8   14    1     -6.89      0.00
   -6   14    1     -0.17      0.00
   -4   14    1    -27.74      0.00
   -2   14    1    -65.79      0.00
    0   14    1    -23.23      0.00
    2   14    1    -30.70      0.00
    4   14    1    -25.65      0.00
    6   14    1    -23.97      0.00
    8   14    1     -2.83      0.00
   10   14    1     -6.41      0.00
   12   14    1     -3.38      0.00
   14   14    1    -15.60      0.00
   16   14    1     -6.56      0.00
   18   14    1     -6.73      0.00
   20   14    1     -0.61      0.00
   22   14    1     -2.68      0.00
  -21   15    1     -2.95      0.00
  -19   15    1      3.18      0.00
  -17   15    1     -9.50      0.00
  -15   15    1      2.06      0.00
  -13   15    1     -4.93      0.00
  -11   15    1    -13.80      0.00
   -9   15    1    -17.29      0.00
   -7   15    1    -26.69      0.00
   -5   15    1    -26.72      0.00
   -3   15    1     21.50      0.00
   -1   15    1    -24.50      0.00
    1   15    1     -8.06      0.00
    3   15    1     -5.18      0.00
    5   15    1    -26.82      0.00
    7   15    1      0.10      0.00
    9   15    1    -11.84      0.00
   11   15    1     10.53      0.00
   13   15    1     -1.28      0.00
   15   15    1      5.68      0.00
   17   15    1     -3.90      0.00
   19   15    1     -1.27      0.00
   21   15    1     -2.21      0.00
  -22   16    1     -2.51      0.00
  -20   16    1     -3.67      0.00
  -18   16    1     -4.94      0.00
  -16   16    1     -5.05      0.00
  -14   16    1     -5.41      0.00
  -12   16    1     11.54      0.00
  -10   16    1     -4.49      0.00
   -8   16    1    -15.62      0.00
   -6   16    1    -20.86      0.00
   -4   16    1    -29.66      0.00
   -2   16    1    -11.24      0.00
    0   16    1    -15.65      0.00
    2   16    1    -23.53      0.00
    4   16    1     20.37      0.00
    6   16    1      8.37      0.00
    8   16    1      2.43      0.00
   10   16    1    -11.53      0.00
   12   16    1    -11.22      0.00
   14   16    1     -3.39      0.00
   16   16    1      4.09      0.00
   18   16    1     -0.38      0.00
   20   16    1      1.14      0.00
  -21   17    1      1.65      0.00
  -19   17    1      5.10      0.00
  -17   17    1      5.26      0.00
  -15   17    1     11.17      0.00
  -13   17    1     -2.74      0.00
  -11   17    1      5.92      0.00
   -9   17    1     15.96      0.00
   -7   17    1     12.54      0.00
   -5   17    1     18.62      0.00
   -3   17    1    -22.57      0.00
   -1   17    1     21.65      0.00
    1   17    1     -0.99      0.00
    3   17    1     35.35      0.00
    5   17    1    -26.27      0.00
    7   17    1      4.48      0.00
    9   17    1     -6.33      0.00
   11   17    1     -1.20      0.00
   13   17    1      4.74      0.00
   15   17    1     -2.85      0.00
   17   17    1      1.00      0.00
   19   17    1      0.01      0.00
   21   17    1     -0.58      0.00
  -20   18    1      2.01      0.00
  -18   18    1      5.12      0.00
  -16   18    1      4.03      0.00
  -14   18    1      1.69      0.00
  -12   18    1      5.19      0.00
  -10   18    1      5.99      0.00
   -8   18    1     20.68      0.00
   -6   18    1     20.52      0.00
   -4   18    1     25.91      0.00
   -2   18    1     31.82      0.00
    0   18    1     18.82      0.00
    2   18    1     20.22      0.00
    4   18    1    -13.39      0.00
    6   18    1     24.40      0.00
    8   18    1      7.16      0.00
   10   18    1     27.41      0.00
   12   18    1     13.37      0.00
   14   18    1      9.96      0.00
   16   18    1      3.95      0.00
   18   18    1      0.11      0.00
   20   18    1      2.87      0.00
  -19   19    1     -0.74      0.00
  -17   19    1     -1.45      0.00
  -15   19    1      3.30      0.00
  -13   19    1      5.34      0.00
  -11   19    1      4.11      0.00
   -9   19    1     -2.90      0.00
   -7   19    1      7.14      0.00
   -5   19    1     12.82      0.00
   -3   19    1     32.46      0.00
   -1   19    1      0.18      0.00
    1   19    1      3.77      0.00
    3   19    1     -4.55      0.00
    5   19    1     33.34      0.00
    7   19    1      2.92      0.00
    9   19    1      8.23      0.00
   11   19    1     -1.87      0.00
   13   19    1     -1.87      0.00
   15   19    1      3.28      0.00
   17   19    1      2.08      0.00
   19   19    1      2.90      0.00
  -18   20    1      1.61      0.00
  -16   20    1      0.63      0.00
  -14   20    1      7.99      0.00
  -12   20    1      4.21      0.00
  -10   20    1      4.72      0.00
   -8   20    1     -3.56      0.00
   -6   20    1     -6.60      0.00
   -4   20    1    -17.39      0.00
   -2   20    1      7.17      0.00
    0   20    1     -0.16      0.00
    2   20    1     16.49      0.00
    4   20    1      0.55      0.00
    6   20    1     -7.81      0.00
    8   20    1     -1.88      0.00
   10   20    1    -11.96      0.00
   12   20    1     -1.10      0.00
   14   20    1     -0.76      0.00
   16   20    1     -3.96      0.00
   18   20    1      1.05      0.00
  -19   21    1     -0.69      0.00
  -17   21    1     -2.22      0.00
  -15   21    1    -10.02      0.00
  -13   21    1    -12.46      0.00
  -11   21    1     -3.48      0.00
   -9   21    1     -2.31      0.00
   -7   21    1      1.27      0.00
   -5   21    1     -6.32      0.00
   -3   21    1    -35.83      0.00
   -1   21    1    -14.57      0.00
    1   21    1     -3.15      0.00
    3   21    1      2.36      0.00
    5   21    1    -18.23      0.00
    7   21    1     -6.96      0.00
    9   21    1    -10.76      0.00
   11   21    1      4.82      0.00
   13   21    1     -8.54      0.00
   15   21    1      1.68      0.00
   17   21    1      0.76      0.00
  -18   22    1      2.20      0.00
  -16   22    1     -4.38      0.00
  -14   22    1      7.95      0.00
  -12   22    1     -7.66      0.00
  -10   22    1     -9.01      0.00
   -8   22    1    -12.42      0.00
   -6   22    1    -15.59      0.00
   -4   22    1      9.15      0.00
   -2   22    1     -2.80      0.00
    0   22    1     -8.78      0.00
    2   22    1    -35.65      0.00
    4   22    1      0.18      0.00
    6   22    1     -2.01      0.00
    8   22    1     11.19      0.00
   10   22    1      5.09      0.00
   12   22    1      0.78      0.00
   14   22    1      6.91      0.00
   16   22    1     -2.61      0.00
  -17   23    1     -0.50      0.00
  -15   23    1     -0.34      0.00
  -13   23    1     -5.55      0.00
  -11   23    1      3.28      0.00
   -9   23    1     -6.83      0.00
   -7   23    1     11.73      0.00
   -5   23    1     -9.12      0.00
   -3   23    1     21.25      0.00
   -1   23    1      0.83      0.00
    1   23    1     -2.89      0.00
    3   23    1      4.23      0.00
    5   23    1     -6.13      0.00
    7   23    1      6.30      0.00
    9   23    1    -13.29      0.00
   11   23    1      0.64      0.00
   13   23    1     -7.33      0.00
   15   23    1     -2.00      0.00
   17   23    1     -2.71      0.00
  -16   24    1     -1.67      0.00
  -14   24    1      5.33      0.00
  -12   24    1     -4.33      0.00
  -10   24    1     13.53      0.00
   -8   24    1      1.04      0.00
   -6   24    1     -1.18      0.00
   -4   24    1     -4.97      0.00
   -2   24    1    -26.31      0.00
    0   24    1     20.74      0.00
    2   24    1      5.39      0.00
    4   24    1      9.93      0.00
    6   24    1    -10.77      0.00
    8   24    1     -2.14      0.00
   10   24    1     -1.31      0.00
   12   24    1     -4.81      0.00
   14   24    1      0.94      0.00
   16   24    1     -5.02      0.00
  -13   25    1      0.86      0.00
  -11   25    1      1.44      0.00
   -9   25    1    -10.04      0.00
   -7   25    1     14.88      0.00
   -5   25    1     -5.01      0.00
   -3   25    1     23.82      0.00
   -1   25    1     -7.46      0.00
    1   25    1     12.82      0.00
    3   25    1     -1.13      0.00
    5   25    1     -3.68      0.00
    7   25    1      4.92      0.00
    9   25    1     -7.90      0.00
   11   25    1      1.14      0.00
   13   25    1     -4.03      0.00
   15   25    1      1.66      0.00
  -12   26    1     -1.49      0.00
  -10   26    1      5.48      0.00
   -8   26    1     -8.99      0.00
   -6   26    1      4.26      0.00
   -4   26    1     -0.02      0.00
   -2   26    1      1.50      0.00
    0   26    1      2.39      0.00
    2   26    1    -25.63      0.00
    4   26    1     16.83      0.00
    6   26    1      2.13      0.00
    8   26    1      7.68      0.00
   10   26    1      9.35      0.00
   12   26    1      1.34      0.00
   14   26    1      4.94      0.00
  -13   27    1      3.83      0.00
  -11   27    1     -5.64      0.00
   -9   27    1      6.34      0.00
   -7   27    1      2.80      0.00
   -5   27    1     -6.35      0.00
   -3   27    1      2.62      0.00
   -1   27    1      1.57      0.00
    1   27    1     -1.02      0.00
    3   27    1      6.81      0.00
    5   27    1    -12.85      0.00
    7   27    1      5.82      0.00
    9   27    1     -4.11      0.00
   11   27    1      7.20      0.00
  -12   28    1     -0.79      0.00
  -10   28    1      7.91      0.00
   -8   28    1     -1.92      0.00
   -6   28    1      2.88      0.00
   -4   28    1     -2.84      0.00
   -2   28    1     -7.98      0.00
    0   28    1      4.15      0.00
    2   28    1      4.89      0.00
    4   28    1      1.76      0.00
    6   28    1      2.88      0.00
    8   28    1     -0.49      0.00
   10   28    1      0.61      0.00
   -9   29    1     -1.12      0.00
   -7   29    1     -0.25      0.00
   -5   29    1      3.68      0.00
   -3   29    1      8.93      0.00
   -1   29    1      0.38      0.00
    1   29    1      4.81      0.00
    3   29    1      1.13      0.00
    5   29    1      5.09      0.00
    7   29    1     -0.16      0.00
    9   29    1      1.75      0.00
   -8   30    1     -0.17      0.00
   -6   30    1     -2.44      0.00
   -4   30    1     -3.88      0.00
   -2   30    1      3.53      0.00
    0   30    1     -5.90      0.00
    2   30    1     -2.58      0.00
    4   30    1     -5.87      0.00
    6   30    1     -2.49      0.00
    8   30    1     -5.55      0.00
   -5   31    1      2.15      0.00
   -3   31    1     -7.33      0.00
    5   31    1     -1.41      0.00
  -24    0    2      3.09      0.00
  -22    0    2     -1.71      0.00
  -20    0    2     15.80      0.00
  -18    0    2      4.33      0.00
  -16    0    2     22.48      0.00
  -14    0    2    -18.85      0.00
  -12    0    2      7.56      0.00
  -10    0    2    -98.01      0.00
   -8    0    2   -137.45      0.00
   -6    0    2   -275.08      0.00
   -4    0    2   -356.60      0.00
   -2    0    2   -248.38      0.00
    0    0    2    -27.86      0.00
    2    0    2    152.67      0.00
    4    0    2    -65.38      0.00
    6    0    2     90.08      0.00
    8    0    2    -48.24      0.00
   10    0    2    -36.06      0.00
   12    0    2    -52.79      0.00
   14    0    2    -43.34      0.00
   16    0    2    -19.95      0.00
   18    0    2    -23.22      0.00
   20    0    2     -4.23      0.00
   22    0    2    -12.79      0.00
   24    0    2      1.32      0.00
  -25    1    2     -0.19      0.00
  -23    1    2     -2.76      0.00
  -21    1    2    -15.04      0.00
  -19    1    2     -6.45      0.00
  -17    1    2    -22.52      0.00
  -15    1    2    -15.04      0.00
  -13    1    2    -32.70      0.00
  -11    1    2    -25.30      0.00
   -9    1    2     19.24      0.00
   -7    1    2    -18.98      0.00
   -5    1    2    270.43      0.00
   -3    1    2     56.42      0.00
   -1    1    2    285.07      0.00
    1    1    2   -104.34      0.00
    3    1    2   -146.84      0.00
    5    1    2    -84.57      0.00
    7    1    2    -53.43      0.00
    9    1    2     30.29      0.00
   11    1    2     17.75      0.00
   13    1    2     36.14      0.00
   15    1    2      6.09      0.00
   17    1    2      9.99      0.00
   19    1    2     -3.91      0.00
   21    1    2      0.71      0.00
   23    1    2     -3.87      0.00
  -24    2    2     -1.96      0.00
  -22    2    2     -1.26      0.00
  -20    2    2     -2.43      0.00
  -18    2    2     -6.73      0.00
  -16    2    2      9.67      0.00
  -14    2    2      7.86      0.00
  -12    2    2     37.76      0.00
  -10    2    2      6.39      0.00
   -8    2    2     98.21      0.00
   -6    2    2     24.00      0.00
   -4    2    2   -183.75      0.00
   -2    2    2    -52.32      0.00
    0    2    2   -558.16      0.00
    2    2    2    380.85      0.00
    4    2    2    -35.46      0.00
    6    2    2    127.74      0.00
    8    2    2    -36.18      0.00
   10    2    2     -4.04      0.00
   12    2    2    -19.59      0.00
   14    2    2     -9.59      0.00
   16    2    2     -2.19      0.00
   18    2    2     -0.66      0.00
   20    2    2     10.80      0.00
   22    2    2      0.79      0.00
   24    2    2      0.83      0.00
  -25    3    2      3.87      0.00
  -23    3    2      6.99      0.00
  -21    3    2      7.01      0.00
  -19    3    2     10.61      0.00
  -17    3    2     -6.40      0.00
  -15    3    2      1.93      0.00
  -13    3    2      0.64      0.00
  -11    3    2     17.04      0.00
   -9    3    2     37.13      0.00
   -7    3    2    -58.95      0.00
   -5    3    2    111.54      0.00
   -3    3    2     66.86      0.00
   -1    3    2    378.29      0.00
    1    3    2    -76.51      0.00
    3    3    2    -10.77      0.00
    5    3    2     23.60      0.00
    7    3    2    -24.52      0.00
    9    3    2     37.76      0.00
   11    3    2    -13.64      0.00
   13    3    2     18.83      0.00
   15    3    2     -0.26      0.00
   17    3    2     12.81      0.00
   19    3    2     -6.92      0.00
   21    3    2      0.97      0.00
   23    3    2     -0.34      0.00
  -24    4    2      0.94      0.00
  -22    4    2      3.37      0.00
  -20    4    2     10.36      0.00
  -18    4    2     19.27      0.00
  -16    4    2     30.19      0.00
  -14    4    2     23.09      0.00
  -12    4    2     34.46      0.00
  -10    4    2     29.92      0.00
   -8    4    2     13.95      0.00
   -6    4    2     79.78      0.00
   -4    4    2    -26.81      0.00
   -2    4    2    141.66      0.00
    0    4    2     47.09      0.00
    2    4    2     82.56      0.00
    4    4    2    -34.52      0.00
    6    4    2     40.90      0.00
    8    4    2    -30.32      0.00
   10    4    2     10.90      0.00
   12    4    2     -8.70      0.00
   14    4    2    -11.88      0.00
   16    4    2      6.81      0.00
   18    4    2     -8.75      0.00
   20    4    2      4.80      0.00
   22    4    2     -0.61      0.00
   24    4    2      5.61      0.00
  -25    5    2     -0.10      0.00
  -23    5    2      4.02      0.00
  -21    5    2     -9.09      0.00
  -19    5    2      4.61      0.00
  -17    5    2    -11.37      0.00
  -15    5    2     -0.70      0.00
  -13    5    2    -16.21      0.00
  -11    5    2    -39.14      0.00
   -9    5    2    -15.90      0.00
   -7    5    2      7.08      0.00
   -5    5    2     -1.83      0.00
   -3    5    2    -45.96      0.00
   -1    5    2   -179.42      0.00
    1    5    2     53.89      0.00
    3    5    2     -1.56      0.00
    5    5    2    -11.96      0.00
    7    5    2     14.20      0.00
    9    5    2     -0.25      0.00
   11    5    2     32.35      0.00
   13    5    2     30.62      0.00
   15    5    2     14.09      0.00
   17    5    2      4.81      0.00
   19    5    2     14.58      0.00
   21    5    2      1.85      0.00
   23    5    2      4.52      0.00
  -24    6    2      0.20      0.00
  -22    6    2     -2.87      0.00
  -20    6    2     -6.52      0.00
  -18    6    2    -11.90      0.00
  -16    6    2     -2.30      0.00
  -14    6    2     -4.61      0.00
  -12    6    2      6.32      0.00
  -10    6    2      4.08      0.00
   -8    6    2    -60.15      0.00
   -6    6    2      6.82      0.00
   -4    6    2    -42.31      0.00
   -2    6    2     27.47      0.00
    0    6    2     36.96      0.00
    2    6    2      5.44      0.00
    4    6    2     18.39      0.00
    6    6    2     15.59      0.00
    8    6    2     79.14      0.00
   10    6    2     17.48      0.00
   12    6    2      8.14      0.00
   14    6    2     -6.71      0.00
   16    6    2      5.13      0.00
   18    6    2     -1.33      0.00
   20    6    2      6.24      0.00
   22    6    2     -4.14      0.00
   24    6    2     -1.29      0.00
  -25    7    2     -0.15      0.00
  -23    7    2     -0.61      0.00
  -21    7    2      5.01      0.00
  -19    7    2      7.94      0.00
  -17    7    2     -0.48      0.00
  -15    7    2     -7.83      0.00
  -13    7    2    -16.13      0.00
  -11    7    2      3.90      0.00
   -9    7    2      4.26      0.00
   -7    7    2     -3.70      0.00
   -5    7    2    -54.01      0.00
   -3    7    2    -36.59      0.00
   -1    7    2    -67.47      0.00
    1    7    2    -59.88      0.00
    3    7    2      8.45      0.00
    5    7    2     -6.92      0.00
    7    7    2     -0.36      0.00
    9    7    2    -49.84      0.00
   11    7    2    -25.80      0.00
   13    7    2    -11.39      0.00
   15    7    2     -7.40      0.00
   17    7    2      2.07      0.00
   19    7    2     -6.57      0.00
   21    7    2     -1.08      0.00
   23    7    2     -2.44      0.00
  -22    8    2     -3.52      0.00
  -20    8    2      0.62      0.00
  -18    8    2     -3.83      0.00
  -16    8    2      2.71      0.00
  -14    8    2     -1.23      0.00
  -12    8    2     10.03      0.00
  -10    8    2      8.58      0.00
   -8    8    2     20.45      0.00
   -6    8    2     27.03      0.00
   -4    8    2     16.20      0.00
   -2    8    2     77.46      0.00
    0    8    2      1.07      0.00
    2    8    2    -37.11      0.00
    4    8    2    -48.54      0.00
    6    8    2    -39.25      0.00
    8    8    2    -52.32      0.00
   10    8    2     -9.62      0.00
   12    8    2     -6.24      0.00
   14    8    2     -6.65      0.00
   16    8    2     -2.69      0.00
   18    8    2    -12.15      0.00
   20    8    2     -6.38      0.00
   22    8    2     -0.75      0.00
  -23    9    2      0.62      0.00
  -21    9    2     -4.68      0.00
  -19    9    2     -7.87      0.00
  -17    9    2     -3.59      0.00
  -15    9    2     -0.42      0.00
  -13    9    2     -0.92      0.00
  -11    9    2    -28.83      0.00
   -9    9    2    -39.16      0.00
   -7    9    2    -18.62      0.00
   -5    9    2    -13.26      0.00
   -3    9    2     35.22      0.00
   -1    9    2    -20.48      0.00
    1    9    2    -26.68      0.00
    3    9    2     56.75      0.00
    5    9    2    -26.28      0.00
    7    9    2      2.06      0.00
    9    9    2      5.65      0.00
   11    9    2     -1.63      0.00
   13    9    2     -1.91      0.00
   15    9    2     -5.74      0.00
   17    9    2    -10.00      0.00
   19    9    2      1.91      0.00
   21    9    2     -1.76      0.00
   23    9    2      1.14      0.00
  -24   10    2      1.48      0.00
  -22   10    2     -6.48      0.00
  -20   10    2      2.87      0.00
  -18   10    2     -6.73      0.00
  -16   10    2     -5.90      0.00
  -14   10    2     -3.85      0.00
  -12   10    2     -7.85      0.00
  -10   10    2     18.95      0.00
   -8   10    2     -8.57      0.00
   -6   10    2     22.37      0.00
   -4   10    2    -32.55      0.00
   -2   10    2    -18.48      0.00
    0   10    2     24.72      0.00
    2   10    2    -38.80      0.00
    4   10    2    -19.29      0.00
    6   10    2     -3.42      0.00
    8   10    2      2.74      0.00
   10   10    2      2.49      0.00
   12   10    2    -11.47      0.00
   14   10    2     -7.17      0.00
   16   10    2     -2.47      0.00
   18   10    2      1.42      0.00
   20   10    2      1.42      0.00
   22   10    2     -1.81      0.00
  -23   11    2      1.82      0.00
  -21   11    2     -0.90      0.00
  -19   11    2      2.54      0.00
  -17   11    2     12.36      0.00
  -15   11    2    -10.37      0.00
  -13   11    2     14.52      0.00
  -11   11    2      0.19      0.00
   -9   11    2     16.40      0.00
   -7   11    2      8.14      0.00
   -5   11    2    -34.33      0.00
   -3   11    2    -38.12      0.00
   -1   11    2    -38.38      0.00
    1   11    2     34.94      0.00
    3   11    2      2.76      0.00
    5   11    2     25.77      0.00
    7   11    2     15.83      0.00
    9   11    2    -10.11      0.00
   11   11    2      7.52      0.00
   13   11    2      5.06      0.00
   15   11    2     12.10      0.00
   17   11    2      5.75      0.00
   19   11    2      0.08      0.00
   21   11    2      0.76      0.00
   23   11    2     -1.08      0.00
  -24   12    2     -0.16      0.00
  -22   12    2      2.21      0.00
  -20   12    2      7.74      0.00
  -18   12    2     -5.64      0.00
  -16   12    2      6.89      0.00
  -14   12    2      7.04      0.00
  -12   12    2     -1.24      0.00
  -10   12    2      6.68      0.00
   -8   12    2     -3.16      0.00
   -6   12    2     10.35      0.00
   -4   12    2     37.98      0.00
   -2   12    2     11.53      0.00
    0   12    2     19.13      0.00
    2   12    2     19.02      0.00
    4   12    2      9.76      0.00
    6   12    2     21.64      0.00
    8   12    2     19.20      0.00
   10   12    2     11.24      0.00
   12   12    2      7.07      0.00
   14   12    2      3.82      0.00
   16   12    2      2.17      0.00
   18   12    2      5.77      0.00
   20   12    2      3.24      0.00
   22   12    2      2.79      0.00
  -23   13    2      0.67      0.00
  -21   13    2      3.68      0.00
  -19   13    2      3.03      0.00
  -17   13    2      6.24      0.00
  -15   13    2      9.03      0.00
  -13   13    2     -1.43      0.00
  -11   13    2      4.89      0.00
   -9   13    2    -28.86      0.00
   -7   13    2      6.52      0.00
   -5   13    2     13.16      0.00
   -3   13    2     64.90      0.00
   -1   13    2     31.76      0.00
    1   13    2     -8.83      0.00
    3   13    2     42.90      0.00
    5   13    2    -19.00      0.00
    7   13    2     23.74      0.00
    9   13    2     15.26      0.00
   11   13    2     21.13      0.00
   13   13    2     15.54      0.00
   15   13    2     10.86      0.00
   17   13    2     -1.53      0.00
   19   13    2     -0.08      0.00
   21   13    2      0.48      0.00
  -22   14    2      0.64      0.00
  -20   14    2      2.82      0.00
  -18   14    2      2.69      0.00
  -16   14    2      3.68      0.00
  -14   14    2      4.68      0.00
  -12   14    2     12.53      0.00
  -10   14    2     24.43      0.00
   -8   14    2     43.54      0.00
   -6   14    2      7.15      0.00
   -4   14    2     -1.00      0.00
   -2   14    2    -32.43      0.00
    0   14    2     30.21      0.00
    2   14    2    -29.05      0.00
    4   14    2     30.40      0.00
    6   14    2    -34.04      0.00
    8   14    2    -16.78      0.00
   10   14    2    -23.18      0.00
   12   14    2     -2.76      0.00
   14   14    2     -9.66      0.00
   16   14    2      3.87      0.00
   18   14    2      1.84      0.00
   20   14    2      2.91      0.00
   22   14    2      4.59      0.00
  -21   15    2     -4.74      0.00
  -19   15    2      1.69      0.00
  -17   15    2     -2.41      0.00
  -15   15    2     -4.32      0.00
  -13   15    2      3.38      0.00
  -11   15    2      8.23      0.00
   -9   15    2     -9.70      0.00
   -7   15    2     13.00      0.00
   -5   15    2    -35.99      0.00
   -3   15    2     44.46      0.00
   -1   15    2     -9.49      0.00
    1   15    2     16.45      0.00
    3   15    2    -43.79      0.00
    5   15    2     19.23      0.00
    7   15    2     13.88      0.00
    9   15    2      5.41      0.00
   11   15    2     -4.97      0.00
   13   15    2    -11.97      0.00
   15   15    2     -4.66      0.00
   17   15    2     -7.04      0.00
   19   15    2     -2.80      0.00
   21   15    2     -5.72      0.00
  -22   16    2     -1.27      0.00
  -20   16    2     -7.84      0.00
  -18   16    2    -12.42      0.00
  -16   16    2     -7.75      0.00
  -14   16    2    -13.69      0.00
  -12   16    2    -19.73      0.00
  -10   16    2    -12.74      0.00
   -8   16    2    -22.16      0.00
   -6   16    2      1.87      0.00
   -4   16    2    -16.47      0.00
   -2   16    2    -72.07      0.00
    0   16    2      4.43      0.00
    2   16    2    -30.95      0.00
    4   16    2     31.06      0.00
    6   16    2    -35.20      0.00
    8   16    2      1.23      0.00
   10   16    2     -9.07      0.00
   12   16    2     -2.97      0.00
   14   16    2     -3.47      0.00
   16   16    2      0.85      0.00
   18   16    2      0.93      0.00
   20   16    2      3.74      0.00
  -21   17    2      1.48      0.00
  -19   17    2      6.51      0.00
  -17   17    2     -0.67      0.00
  -15   17    2      4.65      0.00
  -13   17    2     -7.58      0.00
  -11   17    2    -21.08      0.00
   -9   17    2    -16.89      0.00
   -7   17    2    -13.15      0.00
   -5   17    2    -18.86      0.00
   -3   17    2     22.86      0.00
   -1   17    2    -27.64      0.00
    1   17    2      7.77      0.00
    3   17    2     -7.67      0.00
    5   17    2    -31.89      0.00
    7   17    2      0.46      0.00
    9   17    2    -12.92      0.00
   11   17    2      4.29      0.00
   13   17    2      6.13      0.00
   15   17    2     -4.21      0.00
   17   17    2     -4.47      0.00
   19   17    2     -6.08      0.00
  -20   18    2     -3.30      0.00
  -18   18    2     -1.39      0.00
  -16   18    2     -2.06      0.00
  -14   18    2     -5.33      0.00
  -12   18    2     15.24      0.00
  -10   18    2      2.05      0.00
   -8   18    2     -5.02      0.00
   -6   18    2    -11.71      0.00
   -4   18    2    -19.79      0.00
   -2   18    2     15.59      0.00
    0   18    2     -0.10      0.00
    2   18    2    -14.19      0.00
    4   18    2    -15.26      0.00
    6   18    2      5.75      0.00
    8   18    2     -8.46      0.00
   10   18    2      1.25      0.00
   12   18    2     -5.20      0.00
   14   18    2     -2.39      0.00
   16   18    2      6.69      0.00
   18   18    2     -1.59      0.00
   20   18    2      4.91      0.00
  -19   19    2      3.94      0.00
  -17   19    2     -1.70      0.00
  -15   19    2      6.48      0.00
  -13   19    2     -1.68      0.00
  -11   19    2      8.32      0.00
   -9   19    2     12.79      0.00
   -7   19    2      0.99      0.00
   -5   19    2     15.08      0.00
   -3   19    2     -4.83      0.00
   -1   19    2      5.91      0.00
    1   19    2     -2.78      0.00
    3   19    2     18.99      0.00
    5   19    2     23.96      0.00
    7   19    2     13.84      0.00
    9   19    2     17.16      0.00
   11   19    2     -8.54      0.00
   13   19    2      6.07      0.00
   15   19    2     -5.71      0.00
   17   19    2     -0.33      0.00
  -20   20    2     -0.75      0.00
  -18   20    2      0.19      0.00
  -16   20    2      7.27      0.00
  -14   20    2     -0.82      0.00
  -12   20    2     12.09      0.00
  -10   20    2     -5.84      0.00
   -8   20    2     32.45      0.00
   -6   20    2      9.25      0.00
   -4   20    2     29.77      0.00
   -2   20    2    -13.98      0.00
    0   20    2     16.32      0.00
    2   20    2     10.54      0.00
    4   20    2      9.70      0.00
    6   20    2     -6.18      0.00
    8   20    2     -7.28      0.00
   10   20    2      1.57      0.00
   12   20    2      5.78      0.00
   14   20    2      0.91      0.00
   16   20    2      3.33      0.00
   18   20    2     -0.31      0.00
  -19   21    2      5.38      0.00
  -17   21    2      4.39      0.00
  -15   21    2      6.10      0.00
  -13   21    2      0.25      0.00
  -11   21    2      4.32      0.00
   -9   21    2     -0.01      0.00
   -7   21    2     -5.19      0.00
   -5   21    2     11.84      0.00
   -3   21    2      2.97      0.00
   -1   21    2     23.30      0.00
    1   21    2     -1.01      0.00
    3   21    2     -5.43      0.00
    5   21    2     -0.99      0.00
    7   21    2     -5.69      0.00
    9   21    2      5.18      0.00
   11   21    2      1.30      0.00
   13   21    2      2.06      0.00
   15   21    2      1.23      0.00
   17   21    2      2.93      0.00
  -18   22    2     -4.16      0.00
  -16   22    2     -5.53      0.00
  -14   22    2      0.16      0.00
  -12   22    2      6.80      0.00
  -10   22    2     -9.45      0.00
   -8   22    2      7.63      0.00
   -6   22    2    -18.99      0.00
   -4   22    2      2.52      0.00
   -2   22    2     13.71      0.00
    0   22    2      1.16      0.00
    2   22    2      0.16      0.00
    4   22    2    -12.32      0.00
    6   22    2     11.59      0.00
    8   22    2      6.33      0.00
   10   22    2      3.00      0.00
   12   22    2      2.36      0.00
   14   22    2      2.38      0.00
   16   22    2      3.00      0.00
  -17   23    2     -1.22      0.00
  -15   23    2      2.42      0.00
  -13   23    2    -10.36      0.00
  -11   23    2     -0.95      0.00
   -9   23    2     -3.81      0.00
   -7   23    2      0.02      0.00
   -5   23    2      4.13      0.00
   -3   23    2    -30.19      0.00
   -1   23    2    -11.45      0.00
    1   23    2    -12.73      0.00
    3   23    2     20.38      0.00
    5   23    2      7.92      0.00
    7   23    2     -6.86      0.00
    9   23    2      2.53      0.00
   11   23    2     -0.07      0.00
   13   23    2      1.07      0.00
   15   23    2      0.28      0.00
  -14   24    2     -1.69      0.00
  -12   24    2     -2.95      0.00
  -10   24    2     -4.24      0.00
   -8   24    2      1.29      0.00
   -6   24    2    -17.09      0.00
   -4   24    2     10.79      0.00
   -2   24    2     -7.69      0.00
    0   24    2     -9.83      0.00
    2   24    2      7.83      0.00
    4   24    2    -10.10      0.00
    6   24    2      0.61      0.00
    8   24    2      4.66      0.00
   10   24    2     -6.32      0.00
   12   24    2      0.34      0.00
   14   24    2     -4.26      0.00
  -15   25    2     -1.13      0.00
  -13   25    2     -2.44      0.00
  -11   25    2      9.24      0.00
   -9   25    2     -9.36      0.00
   -7   25    2      0.71      0.00
   -5   25    2     -2.46      0.00
   -3   25    2      1.94      0.00
   -1   25    2     13.32      0.00
    1   25    2     -0.64      0.00
    3   25    2    -25.75      0.00
    5   25    2      1.85      0.00
    7   25    2    -13.37      0.00
    9   25    2     -5.61      0.00
   11   25    2     -5.24      0.00
   13   25    2     -5.32      0.00
   15   25    2     -1.74      0.00
  -14   26    2      2.39      0.00
  -12   26    2     -2.90      0.00
  -10   26    2     -2.96      0.00
   -8   26    2      9.42      0.00
   -6   26    2     -0.16      0.00
   -4   26    2      4.73      0.00
   -2   26    2     -8.56      0.00
    0   26    2     12.92      0.00
    2   26    2     -7.02      0.00
    4   26    2     12.83      0.00
    6   26    2    -16.12      0.00
    8   26    2      6.71      0.00
   10   26    2     -7.18      0.00
   12   26    2      2.19      0.00
   14   26    2     -0.90      0.00
  -13   27    2     -0.16      0.00
  -11   27    2     -0.79      0.00
   -9   27    2     -5.21      0.00
   -7   27    2      9.19      0.00
   -5   27    2     -5.91      0.00
   -3   27    2      9.69      0.00
   -1   27    2    -17.71      0.00
    1   27    2      2.62      0.00
    3   27    2      1.71      0.00
    5   27    2      0.89      0.00
    7   27    2      2.60      0.00
    9   27    2      0.05      0.00
   11   27    2      4.32      0.00
  -12   28    2     -1.44      0.00
  -10   28    2      8.65      0.00
   -8   28    2     -7.49      0.00
   -6   28    2     -2.07      0.00
   -4   28    2     -3.05      0.00
   -2   28    2      1.10      0.00
    0   28    2      4.68      0.00
    2   28    2     -2.61      0.00
    4   28    2     10.88      0.00
    6   28    2      2.54      0.00
    8   28    2      9.03      0.00
   10   28    2      2.44      0.00
   -9   29    2      0.07      0.00
   -7   29    2      4.68      0.00
   -5   29    2     -5.00      0.00
   -3   29    2      8.55      0.00
   -1   29    2     -0.46      0.00
    1   29    2      6.52      0.00
    3   29    2     -3.82      0.00
    5   29    2     -0.48      0.00
    7   29    2      2.84      0.00
    9   29    2     -3.90      0.00
   -8   30    2      1.29      0.00
   -6   30    2      7.86      0.00
   -4   30    2      4.75      0.00
   -2   30    2     -4.31      0.00
    0   30    2      8.11      0.00
    2   30    2     -6.29      0.00
    4   30    2      8.66      0.00
    6   30    2     -6.27      0.00
   -5   31    2     -2.44      0.00
   -3   31    2      3.95      0.00
  -25    1    3      3.52      0.00
  -23    1    3      1.54      0.00
  -21    1    3      3.82      0.00
  -19    1    3     -2.24      0.00
  -17    1    3     -0.31      0.00
  -15    1    3     -9.32      0.00
  -13    1    3     -4.72      0.00
  -11    1    3    -34.80      0.00
   -9    1    3    -28.76      0.00
   -7    1    3     18.44      0.00
   -5    1    3    109.79      0.00
   -3    1    3    -40.01      0.00
   -1    1    3    172.28      0.00
    1    1    3   -142.72      0.00
    3    1    3    158.88      0.00
    5    1    3     25.92      0.00
    7    1    3     36.07      0.00
    9    1    3    -14.72      0.00
   11    1    3     -6.34      0.00
   13    1    3     -7.75      0.00
   15    1    3     -9.96      0.00
   17    1    3    -14.01      0.00
   19    1    3     -7.85      0.00
   21    1    3     -3.09      0.00
   23    1    3      0.75      0.00
  -26    2    3     -0.63      0.00
  -24    2    3     -3.66      0.00
  -22    2    3     -6.64      0.00
  -20    2    3      1.53      0.00
  -18    2    3     -9.23      0.00
  -16    2    3     -3.08      0.00
  -14    2    3    -36.56      0.00
  -12    2    3    -13.96      0.00
  -10    2    3    -40.35      0.00
   -8    2    3     -0.13      0.00
   -6    2    3   -111.84      0.00
   -4    2    3    -41.39      0.00
   -2    2    3    -67.22      0.00
    0    2    3     40.90      0.00
    2    2    3    -66.61      0.00
    4    2    3   -105.49      0.00
    6    2    3     31.51      0.00
    8    2    3    -30.65      0.00
   10    2    3     27.52      0.00
   12    2    3    -19.46      0.00
   14    2    3      1.02      0.00
   16    2    3     -6.05      0.00
   18    2    3      5.75      0.00
   20    2    3     -2.96      0.00
   22    2    3     -2.66      0.00
  -25    3    3     -6.53      0.00
  -23    3    3     -5.04      0.00
  -21    3    3    -16.15      0.00
  -19    3    3    -10.20      0.00
  -17    3    3    -16.56      0.00
  -15    3    3     -3.75      0.00
  -13    3    3      1.32      0.00
  -11    3    3     -4.88      0.00
   -9    3    3     -6.24      0.00
   -7    3    3    -78.88      0.00
   -5    3    3    -22.59      0.00
   -3    3    3   -201.77      0.00
   -1    3    3    -65.75      0.00
    1    3    3    -20.86      0.00
    3    3    3    -42.96      0.00
    5    3    3    -32.37      0.00
    7    3    3     -5.37      0.00
    9    3    3     -1.52      0.00
   11    3    3    -10.35      0.00
   13    3    3     14.82      0.00
   15    3    3     -3.03      0.00
   17    3    3     11.16      0.00
   19    3    3     -7.67      0.00
   21    3    3     -0.47      0.00
   23    3    3     -5.58      0.00
  -26    4    3      2.64      0.00
  -24    4    3      0.41      0.00
  -22    4    3      9.90      0.00
  -20    4    3      4.89      0.00
  -18    4    3      3.60      0.00
  -16    4    3     13.46      0.00
  -14    4    3     -9.70      0.00
  -12    4    3     21.35      0.00
  -10    4    3    -36.73      0.00
   -8    4    3     41.08      0.00
   -6    4    3    -12.17      0.00
   -4    4    3    120.34      0.00
   -2    4    3    170.71      0.00
    0    4    3   -101.85      0.00
    2    4    3    172.17      0.00
    4    4    3    -51.25      0.00
    6    4    3     -8.17      0.00
    8    4    3    -76.91      0.00
   10    4    3     -9.46      0.00
   12    4    3    -23.25      0.00
   14    4    3     -6.94      0.00
   16    4    3    -10.47      0.00
   18    4    3    -12.50      0.00
   20    4    3      1.95      0.00
   22    4    3     -3.71      0.00
  -25    5    3      1.99      0.00
  -23    5    3      5.12      0.00
  -21    5    3      2.70      0.00
  -19    5    3      8.96      0.00
  -17    5    3     -2.53      0.00
  -15    5    3     21.98      0.00
  -13    5    3     32.10      0.00
  -11    5    3     45.40      0.00
   -9    5    3     75.08      0.00
   -7    5    3     58.36      0.00
   -5    5    3    118.64      0.00
   -3    5    3    -10.97      0.00
   -1    5    3    -23.96      0.00
    1    5    3   -123.39      0.00
    3    5    3    -10.75      0.00
    5    5    3     26.28      0.00
    7    5    3    -14.75      0.00
    9    5    3     43.20      0.00
   11    5    3    -18.01      0.00
   13    5    3     16.64      0.00
   15    5    3    -13.14      0.00
   17    5    3      5.15      0.00
   19    5    3     -5.65      0.00
   21    5    3      6.94      0.00
   23    5    3      4.47      0.00
  -22    6    3      0.97      0.00
  -20    6    3      5.83      0.00
  -18    6    3      6.68      0.00
  -16    6    3     10.02      0.00
  -14    6    3    -18.65      0.00
  -12    6    3    -12.42      0.00
  -10    6    3    -19.58      0.00
   -8    6    3    -11.05      0.00
   -6    6    3    -71.98      0.00
   -4    6    3    -71.92      0.00
   -2    6    3     33.00      0.00
    0    6    3    138.98      0.00
    2    6    3     43.43      0.00
    4    6    3      5.43      0.00
    6    6    3     46.80      0.00
    8    6    3     13.05      0.00
   10    6    3     38.77      0.00
   12    6    3     -6.01      0.00
   14    6    3     12.87      0.00
   16    6    3      8.82      0.00
   18    6    3     14.34      0.00
   20    6    3      6.49      0.00
   22    6    3      1.87      0.00
  -23    7    3     -3.03      0.00
  -21    7    3     -8.46      0.00
  -19    7    3      0.74      0.00
  -17    7    3     -1.13      0.00
  -15    7    3      2.90      0.00
  -13    7    3      3.24      0.00
  -11    7    3    -20.38      0.00
   -9    7    3      8.14      0.00
   -7    7    3     26.14      0.00
   -5    7    3     73.46      0.00
   -3    7    3    -11.86      0.00
   -1    7    3      9.92      0.00
    1    7    3     35.35      0.00
    3    7    3     10.06      0.00
    5    7    3     46.04      0.00
    7    7    3     60.18      0.00
    9    7    3     12.55      0.00
   11    7    3     11.89      0.00
   13    7    3     35.78      0.00
   15    7    3      4.24      0.00
   17    7    3     22.40      0.00
   19    7    3      0.23      0.00
   21    7    3      0.67      0.00
   23    7    3      3.85      0.00
  -24    8    3     -1.54      0.00
  -22    8    3     12.09      0.00
  -20    8    3      1.61      0.00
  -18    8    3     -1.24      0.00
  -16    8    3      4.76      0.00
  -14    8    3     -4.15      0.00
  -12    8    3     30.28      0.00
  -10    8    3     -9.76      0.00
   -8    8    3    -25.62      0.00
   -6    8    3    -21.69      0.00
   -4    8    3    -31.85      0.00
   -2    8    3     59.29      0.00
    0    8    3     -5.30      0.00
    2    8    3     40.20      0.00
    4    8    3     11.26      0.00
    6    8    3     -9.45      0.00
    8    8    3    -38.75      0.00
   10    8    3     14.77      0.00
   12    8    3    -14.98      0.00
   14    8    3      0.70      0.00
   16    8    3     -4.90      0.00
   18    8    3    -14.93      0.00
   22    8    3     -5.02      0.00
  -25    9    3      2.45      0.00
  -23    9    3      1.20      0.00
  -21    9    3     -0.94      0.00
  -19    9    3      1.81      0.00
  -17    9    3     -6.28      0.00
  -15    9    3     -3.55      0.00
  -13    9    3      7.50      0.00
  -11    9    3    -10.48      0.00
   -9    9    3     43.90      0.00
   -7    9    3    -50.01      0.00
   -5    9    3     49.57      0.00
   -3    9    3    -22.24      0.00
   -1    9    3    -57.09      0.00
    1    9    3    -16.98      0.00
    3    9    3    -64.09      0.00
    5    9    3    -24.53      0.00
    7    9    3    -27.07      0.00
    9    9    3      4.85      0.00
   11    9    3    -15.33      0.00
   13    9    3     11.27      0.00
   15    9    3    -17.80      0.00
   17    9    3      6.22      0.00
   19    9    3     -6.12      0.00
   21    9    3      0.87      0.00
   23    9    3     -2.21      0.00
  -24   10    3     -2.24      0.00
  -22   10    3     -4.38      0.00
  -20   10    3     -6.01      0.00
  -18   10    3     -3.69      0.00
  -16   10    3      3.17      0.00
  -14   10    3    -26.15      0.00
  -12   10    3     -3.49      0.00
  -10   10    3    -38.83      0.00
   -8   10    3     23.14      0.00
   -6   10    3     14.29      0.00
   -4   10    3    -35.26      0.00
   -2   10    3     -7.17      0.00
    0   10    3    -91.46      0.00
    2   10    3     13.30      0.00
    4   10    3    -25.10      0.00
    6   10    3     18.11      0.00
    8   10    3    -17.32      0.00
   10   10    3     -6.94      0.00
   12   10    3    -30.08      0.00
   14   10    3    -10.13      0.00
   16   10    3     -8.21      0.00
   18   10    3     -4.11      0.00
   20   10    3     -0.28      0.00
   22   10    3     -0.40      0.00
  -23   11    3     -3.55      0.00
  -21   11    3     -2.82      0.00
  -19   11    3     -3.16      0.00
  -17   11    3     -4.59      0.00
  -15   11    3     -7.05      0.00
  -13   11    3      3.18      0.00
  -11   11    3    -13.42      0.00
   -9   11    3     10.73      0.00
   -7   11    3    -35.34      0.00
   -5   11    3    -13.19      0.00
   -3   11    3    -10.79      0.00
   -1   11    3     25.75      0.00
    1   11    3     -7.52      0.00
    3   11    3    -14.03      0.00
    5   11    3    -37.18      0.00
    7   11    3    -25.10      0.00
    9   11    3     -6.41      0.00
   11   11    3    -13.27      0.00
   13   11    3      8.89      0.00
   15   11    3     -7.04      0.00
   17   11    3      1.92      0.00
   19   11    3     -3.21      0.00
   21   11    3     -2.30      0.00
  -24   12    3      1.42      0.00
  -22   12    3     -3.55      0.00
  -20   12    3      6.78      0.00
  -18   12    3     -3.88      0.00
  -16   12    3      7.94      0.00
  -14   12    3     14.93      0.00
  -12   12    3     11.65      0.00
  -10   12    3      1.79      0.00
   -8   12    3     -9.86      0.00
   -6   12    3    -17.81      0.00
   -4   12    3      6.53      0.00
   -2   12    3     -0.02      0.00
    0   12    3     16.33      0.00
    2   12    3    -24.88      0.00
    4   12    3     10.82      0.00
    6   12    3      2.53      0.00
    8   12    3    -14.19      0.00
   10   12    3     14.75      0.00
   12   12    3     -8.62      0.00
   14   12    3      4.47      0.00
   16   12    3     -3.78      0.00
   18   12    3     -3.00      0.00
   20   12    3     -1.45      0.00
   22   12    3     -0.41      0.00
  -23   13    3      1.80      0.00
  -21   13    3     -1.14      0.00
  -19   13    3     -5.33      0.00
  -17   13    3      2.36      0.00
  -15   13    3    -20.49      0.00
  -13   13    3    -10.56      0.00
  -11   13    3    -21.64      0.00
   -9   13    3      0.84      0.00
   -7   13    3     -8.82      0.00
   -5   13    3     16.26      0.00
   -3   13    3    -29.02      0.00
   -1   13    3     24.96      0.00
    1   13    3     36.45      0.00
    3   13    3     26.15      0.00
    5   13    3     38.43      0.00
    7   13    3     13.13      0.00
    9   13    3     14.81      0.00
   11   13    3     -2.37      0.00
   13   13    3     14.28      0.00
   15   13    3      4.08      0.00
   17   13    3      7.76      0.00
   19   13    3      3.05      0.00
   21   13    3      1.36      0.00
  -22   14    3      0.70      0.00
  -20   14    3      6.84      0.00
  -18   14    3     -0.48      0.00
  -16   14    3     11.99      0.00
  -14   14    3     -4.49      0.00
  -12   14    3     13.36      0.00
  -10   14    3      2.04      0.00
   -8   14    3     30.37      0.00
   -6   14    3     17.87      0.00
   -4   14    3     18.68      0.00
   -2   14    3      2.51      0.00
    0   14    3    -28.57      0.00
    2   14    3     39.89      0.00
    4   14    3    -51.91      0.00
    6   14    3     53.18      0.00
    8   14    3      3.60      0.00
   10   14    3     21.91      0.00
   12   14    3      6.17      0.00
   14   14    3     -0.97      0.00
   16   14    3      1.56      0.00
   18   14    3      3.26      0.00
   20   14    3      0.18      0.00
  -21   15    3      5.80      0.00
  -19   15    3      2.26      0.00
  -17   15    3     10.14      0.00
  -15   15    3      4.84      0.00
  -13   15    3     28.90      0.00
  -11   15    3     11.75      0.00
   -9   15    3     19.91      0.00
   -7   15    3    -13.56      0.00
   -5   15    3     26.07      0.00
   -3   15    3     10.82      0.00
   -1   15    3     33.51      0.00
    1   15    3    -16.20      0.00
    3   15    3     14.35      0.00
    5   15    3      7.33      0.00
    7   15    3    -22.17      0.00
    9   15    3     12.30      0.00
   11   15    3     -3.35      0.00
   13   15    3      5.11      0.00
   15   15    3      5.30      0.00
   17   15    3     -3.78      0.00
   19   15    3      3.38      0.00
   21   15    3      2.94      0.00
  -22   16    3     -5.87      0.00
  -20   16    3      4.23      0.00
  -18   16    3     -0.49      0.00
  -16   16    3      7.81      0.00
  -14   16    3      6.54      0.00
  -12   16    3     -3.22      0.00
  -10   16    3     -2.15      0.00
   -8   16    3      8.89      0.00
   -6   16    3     -1.42      0.00
   -4   16    3     21.07      0.00
   -2   16    3      1.17      0.00
    0   16    3     -3.62      0.00
    2   16    3      8.55      0.00
    4   16    3     10.71      0.00
    6   16    3    -16.08      0.00
    8   16    3     -9.13      0.00
   10   16    3    -16.16      0.00
   12   16    3      2.13      0.00
   14   16    3     -1.20      0.00
   16   16    3      1.40      0.00
   18   16    3      3.79      0.00
   20   16    3     -2.66      0.00
  -21   17    3     -3.30      0.00
  -19   17    3     -7.06      0.00
  -17   17    3     -2.27      0.00
  -15   17    3    -18.87      0.00
  -13   17    3     -0.82      0.00
  -11   17    3    -11.79      0.00
   -9   17    3     -3.65      0.00
   -7   17    3     -2.05      0.00
   -5   17    3    -23.34      0.00
   -3   17    3    -19.57      0.00
   -1   17    3     10.46      0.00
    1   17    3      1.94      0.00
    3   17    3    -13.41      0.00
    5   17    3      5.10      0.00
    7   17    3     -0.30      0.00
    9   17    3      8.05      0.00
   11   17    3     -3.23      0.00
   13   17    3     -2.35      0.00
   15   17    3     -0.30      0.00
   17   17    3     -0.51      0.00
   19   17    3     -0.26      0.00
  -20   18    3      0.86      0.00
  -18   18    3     -3.03      0.00
  -16   18    3     -2.25      0.00
  -14   18    3     -5.62      0.00
  -12   18    3    -11.88      0.00
  -10   18    3     15.79      0.00
   -8   18    3     -9.59      0.00
   -6   18    3      1.74      0.00
   -4   18    3    -14.56      0.00
   -2   18    3    -16.47      0.00
    0   18    3     -6.41      0.00
    2   18    3    -15.85      0.00
    4   18    3    -25.15      0.00
    6   18    3     -1.86      0.00
    8   18    3      2.47      0.00
   10   18    3      3.72      0.00
   12   18    3     -3.64      0.00
   14   18    3     -7.25      0.00
   16   18    3     -1.95      0.00
   18   18    3     -3.69      0.00
  -21   19    3     -1.65      0.00
  -19   19    3     -0.55      0.00
  -17   19    3     -3.97      0.00
  -15   19    3      1.26      0.00
  -13   19    3     -1.52      0.00
  -11   19    3    -16.34      0.00
   -9   19    3    -20.70      0.00
   -7   19    3     -6.05      0.00
   -5   19    3      1.47      0.00
   -3   19    3     24.19      0.00
   -1   19    3    -41.95      0.00
    1   19    3     11.17      0.00
    3   19    3     -7.57      0.00
    5   19    3     32.58      0.00
    7   19    3    -12.48      0.00
    9   19    3      0.59      0.00
   11   19    3     -6.95      0.00
   13   19    3      6.00      0.00
   15   19    3     -2.80      0.00
   17   19    3     -3.20      0.00
  -20   20    3     -2.60      0.00
  -18   20    3     -1.50      0.00
  -16   20    3      1.73      0.00
  -14   20    3     -4.77      0.00
  -12   20    3      6.21      0.00
  -10   20    3     -1.21      0.00
   -8   20    3     -8.23      0.00
   -6   20    3     -8.44      0.00
   -4   20    3    -22.81      0.00
   -2   20    3      8.80      0.00
    0   20    3      4.12      0.00
    2   20    3     15.75      0.00
    4   20    3     -8.09      0.00
    6   20    3    -11.31      0.00
    8   20    3     -5.63      0.00
   10   20    3     -8.78      0.00
   12   20    3      2.23      0.00
   14   20    3     -2.11      0.00
   16   20    3      3.07      0.00
   18   20    3      0.07      0.00
  -19   21    3      4.76      0.00
  -17   21    3      1.64      0.00
  -15   21    3      1.26      0.00
  -13   21    3      0.33      0.00
  -11   21    3      3.01      0.00
   -9   21    3     12.39      0.00
   -7   21    3     -0.96      0.00
   -5   21    3     11.82      0.00
   -3   21    3     -6.33      0.00
   -1   21    3     19.21      0.00
    1   21    3     -6.14      0.00
    3   21    3    -12.19      0.00
    5   21    3     -9.51      0.00
    7   21    3     -0.38      0.00
    9   21    3      2.58      0.00
   11   21    3     -5.03      0.00
   13   21    3     -3.92      0.00
   15   21    3     -7.29      0.00
   17   21    3     -0.29      0.00
  -18   22    3      0.06      0.00
  -16   22    3      3.54      0.00
  -14   22    3      2.21      0.00
  -12   22    3     11.50      0.00
  -10   22    3     -0.53      0.00
   -8   22    3     18.80      0.00
   -6   22    3      6.34      0.00
   -4   22    3     10.18      0.00
   -2   22    3     -8.59      0.00
    0   22    3    -10.13      0.00
    2   22    3     -4.99      0.00
    4   22    3     10.27      0.00
    6   22    3      9.09      0.00
    8   22    3     -0.05      0.00
   10   22    3      9.89      0.00
   12   22    3      2.50      0.00
   14   22    3      7.65      0.00
   16   22    3      4.44      0.00
  -17   23    3     -1.57      0.00
  -15   23    3      8.46      0.00
  -13   23    3     -1.48      0.00
  -11   23    3      0.85      0.00
   -9   23    3      5.25      0.00
   -7   23    3     -1.39      0.00
   -5   23    3     18.53      0.00
   -3   23    3      6.08      0.00
   -1   23    3     19.27      0.00
    1   23    3     -5.93      0.00
    3   23    3     25.54      0.00
    5   23    3      0.58      0.00
    7   23    3      5.69      0.00
    9   23    3      4.15      0.00
   11   23    3     -1.20      0.00
   13   23    3      5.35      0.00
   15   23    3     -1.81      0.00
  -16   24    3      3.89      0.00
  -14   24    3     -5.09      0.00
  -12   24    3      7.06      0.00
  -10   24    3     -5.74      0.00
   -8   24    3      6.93      0.00
   -6   24    3    -22.48      0.00
   -4   24    3     -0.16      0.00
   -2   24    3     -1.01      0.00
    0   24    3      6.92      0.00
    2   24    3     16.22      0.00
    4   24    3    -24.71      0.00
    6   24    3     15.72      0.00
    8   24    3     -3.85      0.00
   10   24    3     12.82      0.00
   12   24    3      1.35      0.00
   14   24    3      3.75      0.00
  -15   25    3     -3.38      0.00
  -13   25    3    -10.06      0.00
  -11   25    3      1.94      0.00
   -9   25    3    -10.91      0.00
   -7   25    3     -3.04      0.00
   -5   25    3     11.54      0.00
   -3   25    3    -18.51      0.00
   -1   25    3     10.76      0.00
    1   25    3     -1.86      0.00
    3   25    3      9.18      0.00
    5   25    3      6.98      0.00
    7   25    3     -2.87      0.00
    9   25    3     -0.77      0.00
   11   25    3     -7.28      0.00
   13   25    3      1.72      0.00
  -14   26    3      1.61      0.00
  -12   26    3      4.07      0.00
  -10   26    3     -9.27      0.00
   -8   26    3      6.45      0.00
   -6   26    3     -5.83      0.00
   -4   26    3      8.11      0.00
   -2   26    3     -6.62      0.00
    0   26    3    -18.93      0.00
    2   26    3     -8.65      0.00
    4   26    3     -7.32      0.00
    6   26    3     -1.35      0.00
    8   26    3     -7.94      0.00
   10   26    3     -0.29      0.00
   12   26    3     -0.42      0.00
  -13   27    3     -2.35      0.00
  -11   27    3      4.36      0.00
   -9   27    3      3.51      0.00
   -7   27    3     -2.01      0.00
   -5   27    3     -4.07      0.00
   -3   27    3     -7.46      0.00
   -1   27    3     12.23      0.00
    1   27    3    -10.72      0.00
    3   27    3      2.17      0.00
    5   27    3    -10.08      0.00
    7   27    3     -1.45      0.00
    9   27    3     -1.55      0.00
  -12   28    3     -5.48      0.00
  -10   28    3     -1.76      0.00
   -8   28    3      1.49      0.00
   -6   28    3     -2.76      0.00
   -4   28    3      1.12      0.00
   -2   28    3     -7.41      0.00
    0   28    3      2.06      0.00
    2   28    3     -1.11      0.00
    4   28    3     -7.76      0.00
    6   28    3     -0.37      0.00
    8   28    3     -1.07      0.00
  -11   29    3      4.39      0.00
   -9   29    3     -8.83      0.00
   -7   29    3      1.65      0.00
   -5   29    3     -2.43      0.00
   -3   29    3      8.60      0.00
   -1   29    3     -1.88      0.00
    1   29    3     10.54      0.00
    3   29    3      2.99      0.00
    5   29    3      8.19      0.00
    7   29    3     -1.12      0.00
    9   29    3      1.66      0.00
   -6   30    3      2.35      0.00
   -4   30    3      0.10      0.00
   -2   30    3     -0.54      0.00
    0   30    3     -1.51      0.00
    2   30    3      1.01      0.00
    4   30    3      4.78      0.00
    6   30    3      1.40      0.00
   -5   31    3      0.24      0.00
   -3   31    3      2.96      0.00
  -26    0    4     -3.56      0.00
  -24    0    4     -0.66      0.00
  -22    0    4     -5.80      0.00
  -20    0    4      7.41      0.00
  -18    0    4      4.08      0.00
  -16    0    4     16.97      0.00
  -14    0    4     22.28      0.00
  -12    0    4     23.11      0.00
  -10    0    4     15.57      0.00
   -8    0    4    -57.41      0.00
   -6    0    4     35.76      0.00
   -4    0    4    -11.66      0.00
   -2    0    4   -315.64      0.00
    0    0    4   -225.26      0.00
    2    0    4   -372.42      0.00
    4    0    4    131.60      0.00
    6    0    4    -34.36      0.00
    8    0    4    130.47      0.00
   10    0    4     -3.21      0.00
   12    0    4     38.82      0.00
   14    0    4     -4.04      0.00
   16    0    4      0.51      0.00
   18    0    4    -12.42      0.00
   20    0    4     -3.12      0.00
   22    0    4      3.10      0.00
  -25    1    4      4.57      0.00
  -23    1    4      4.88      0.00
  -21    1    4     10.76      0.00
  -19    1    4     -4.77      0.00
  -17    1    4      6.90      0.00
  -15    1    4    -17.22      0.00
  -13    1    4      2.36      0.00
  -11    1    4    -25.31      0.00
   -9    1    4     18.81      0.00
   -7    1    4     40.85      0.00
   -5    1    4    -63.28      0.00
   -3    1    4    236.07      0.00
   -1    1    4      1.66      0.00
    1    1    4    342.95      0.00
    3    1    4    -90.10      0.00
    5    1    4     -3.28      0.00
    7    1    4    -78.51      0.00
    9    1    4    -33.29      0.00
   11    1    4     -5.02      0.00
   13    1    4    -10.20      0.00
   15    1    4     16.35      0.00
   17    1    4      3.30      0.00
   19    1    4     17.63      0.00
   21    1    4     -0.57      0.00
   23    1    4      3.14      0.00
  -26    2    4      0.96      0.00
  -24    2    4     -2.72      0.00
  -22    2    4     -3.40      0.00
  -20    2    4     -2.96      0.00
  -18    2    4      8.63      0.00
  -16    2    4      9.17      0.00
  -14    2    4     29.60      0.00
  -12    2    4     17.96      0.00
  -10    2    4     81.07      0.00
   -8    2    4     20.99      0.00
   -6    2    4     64.43      0.00
   -4    2    4    -26.44      0.00
   -2    2    4    -30.43      0.00
    0    2    4     46.74      0.00
    2    2    4      9.70      0.00
    4    2    4    102.76      0.00
    6    2    4      1.12      0.00
    8    2    4     78.94      0.00
   10    2    4     11.09      0.00
   12    2    4     15.49      0.00
   14    2    4     -7.33      0.00
   16    2    4     -7.20      0.00
   18    2    4      2.62      0.00
   20    2    4     -5.57      0.00
   22    2    4      3.73      0.00
  -25    3    4      2.55      0.00
  -23    3    4     -2.36      0.00
  -21    3    4      8.58      0.00
  -19    3    4     -9.03      0.00
  -17    3    4      6.76      0.00
  -15    3    4    -26.62      0.00
  -13    3    4     -8.58      0.00
  -11    3    4    -43.18      0.00
   -9    3    4    -65.91      0.00
   -7    3    4     -2.66      0.00
   -5    3    4    -70.27      0.00
   -3    3    4    122.93      0.00
   -1    3    4     67.25      0.00
    1    3    4     47.38      0.00
    3    3    4     42.96      0.00
    5    3    4     62.21      0.00
    7    3    4    -15.84      0.00
    9    3    4    -36.75      0.00
   11    3    4    -13.83      0.00
   13    3    4     -1.93      0.00
   15    3    4     18.32      0.00
   17    3    4      0.80      0.00
   19    3    4      1.83      0.00
   21    3    4     -3.13      0.00
   23    3    4      2.52      0.00
  -26    4    4     -4.85      0.00
  -24    4    4     -5.83      0.00
  -22    4    4     -9.74      0.00
  -20    4    4     -5.91      0.00
  -18    4    4    -19.74      0.00
  -16    4    4    -21.99      0.00
  -14    4    4    -18.35      0.00
  -12    4    4    -32.46      0.00
  -10    4    4    -24.10      0.00
   -8    4    4    -55.09      0.00
   -6    4    4    -81.38      0.00
   -4    4    4    -49.29      0.00
   -2    4    4   -162.52      0.00
    0    4    4    -65.50      0.00
    2    4    4   -205.40      0.00
    4    4    4    -18.54      0.00
    6    4    4    -24.72      0.00
    8    4    4      2.52      0.00
   10    4    4     15.11      0.00
   12    4    4      9.04      0.00
   14    4    4     -2.80      0.00
   16    4    4    -10.67      0.00
   18    4    4     -5.75      0.00
   20    4    4     -9.97      0.00
   22    4    4      0.22      0.00
  -23    5    4      3.17      0.00
  -21    5    4     -0.63      0.00
  -19    5    4      1.69      0.00
  -17    5    4      8.54      0.00
  -15    5    4     -5.11      0.00
  -13    5    4      6.56      0.00
  -11    5    4     -3.56      0.00
   -9    5    4     26.77      0.00
   -7    5    4     71.12      0.00
   -5    5    4     24.56      0.00
   -3    5    4     47.16      0.00
   -1    5    4    -59.79      0.00
    1    5    4     98.65      0.00
    3    5    4    -77.83      0.00
    5    5    4    -42.70      0.00
    7    5    4    -24.01      0.00
    9    5    4     -7.02      0.00
   11    5    4    -15.20      0.00
   13    5    4    -34.97      0.00
   15    5    4    -11.59      0.00
   17    5    4    -18.97      0.00
   19    5    4      4.53      0.00
   21    5    4     -4.57      0.00
   23    5    4     -4.11      0.00
  -24    6    4     -1.80      0.00
  -22    6    4     -1.08      0.00
  -20    6    4     -5.58      0.00
  -18    6    4     -8.18      0.00
  -16    6    4      8.44      0.00
  -14    6    4     10.39      0.00
  -12    6    4     16.08      0.00
  -10    6    4     -3.91      0.00
   -8    6    4      1.40      0.00
   -6    6    4    -59.36      0.00
   -4    6    4     36.27      0.00
   -2    6    4   -155.23      0.00
    0    6    4      1.34      0.00
    2    6    4     -5.55      0.00
    4    6    4     -0.11      0.00
    6    6    4    -63.38      0.00
    8    6    4    -11.38      0.00
   10    6    4    -28.89      0.00
   12    6    4     -0.43      0.00
   14    6    4     -0.65      0.00
   16    6    4     -2.67      0.00
   18    6    4      4.23      0.00
   20    6    4     -4.51      0.00
   22    6    4     -0.48      0.00
  -25    7    4      3.98      0.00
  -23    7    4     -3.89      0.00
  -21    7    4     10.27      0.00
  -19    7    4      6.78      0.00
  -17    7    4     10.72      0.00
  -15    7    4      9.65      0.00
  -13    7    4      2.40      0.00
  -11    7    4     18.61      0.00
   -9    7    4    -25.69      0.00
   -7    7    4     -8.19      0.00
   -5    7    4    -40.27      0.00
   -3    7    4     53.77      0.00
   -1    7    4     75.33      0.00
    1    7    4    -48.72      0.00
    3    7    4     55.86      0.00
    5    7    4     40.49      0.00
    7    7    4     36.50      0.00
    9    7    4     -4.49      0.00
   11    7    4      3.23      0.00
   13    7    4      5.24      0.00
   15    7    4     14.33      0.00
   17    7    4      7.33      0.00
   19    7    4      0.55      0.00
   21    7    4      5.50      0.00
   23    7    4      1.36      0.00
  -24    8    4     -0.92      0.00
  -22    8    4      3.26      0.00
  -20    8    4      0.05      0.00
  -18    8    4      3.40      0.00
  -16    8    4    -15.35      0.00
  -14    8    4     -4.77      0.00
  -12    8    4     -9.52      0.00
  -10    8    4     20.20      0.00
   -8    8    4     66.85      0.00
   -6    8    4     -0.77      0.00
   -4    8    4     81.44      0.00
   -2    8    4     26.90      0.00
    0    8    4    104.92      0.00
    2    8    4     29.28      0.00
    4    8    4     22.44      0.00
    6    8    4     20.33      0.00
    8    8    4      3.97      0.00
   10    8    4     36.25      0.00
   12    8    4     18.00      0.00
   14    8    4     20.16      0.00
   16    8    4      6.64      0.00
   18    8    4     11.28      0.00
   20    8    4      1.08      0.00
   22    8    4      5.44      0.00
  -25    9    4      4.01      0.00
  -23    9    4      1.77      0.00
  -21    9    4      3.57      0.00
  -19    9    4      0.56      0.00
  -17    9    4     15.79      0.00
  -15    9    4     18.29      0.00
  -13    9    4     10.64      0.00
  -11    9    4     18.94      0.00
   -9    9    4     -2.84      0.00
   -7    9    4     41.82      0.00
   -5    9    4     38.11      0.00
   -3    9    4     -1.51      0.00
   -1    9    4      7.18      0.00
    1    9    4    -13.88      0.00
    3    9    4     -2.53      0.00
    5    9    4     45.75      0.00
    7    9    4     39.40      0.00
    9    9    4     36.38      0.00
   11    9    4      7.87      0.00
   13    9    4     -2.63      0.00
   15    9    4     -9.77      0.00
   17    9    4     -4.84      0.00
   19    9    4      0.52      0.00
   21    9    4     -1.24      0.00
   23    9    4      1.16      0.00
  -24   10    4      0.41      0.00
  -22   10    4      5.73      0.00
  -20   10    4     -5.93      0.00
  -18   10    4      5.05      0.00
  -16   10    4    -11.52      0.00
  -14   10    4     -1.39      0.00
  -12   10    4    -16.80      0.00
  -10   10    4    -26.05      0.00
   -8   10    4    -34.47      0.00
   -6   10    4     18.74      0.00
   -4   10    4    -22.66      0.00
   -2   10    4     23.04      0.00
    0   10    4      7.19      0.00
    2   10    4     33.69      0.00
    4   10    4     -3.58      0.00
    6   10    4    -20.82      0.00
    8   10    4    -14.85      0.00
   10   10    4     -4.68      0.00
   12   10    4     -0.01      0.00
   14   10    4      7.89      0.00
   16   10    4      4.16      0.00
   18   10    4      2.66      0.00
   20   10    4      2.97      0.00
   22   10    4     -1.68      0.00
  -23   11    4     -7.00      0.00
  -21   11    4      0.86      0.00
  -19   11    4     -5.68      0.00
  -17   11    4     -8.98      0.00
  -15   11    4     -2.67      0.00
  -13   11    4     12.98      0.00
  -11   11    4     14.43      0.00
   -9   11    4     39.75      0.00
   -7   11    4    -51.67      0.00
   -5   11    4    -40.89      0.00
   -3   11    4    -42.05      0.00
   -1   11    4    -68.72      0.00
    1   11    4     19.94      0.00
    3   11    4    -59.12      0.00
    5   11    4     16.35      0.00
    7   11    4    -37.59      0.00
    9   11    4    -20.80      0.00
   11   11    4    -16.03      0.00
   13   11    4     -4.91      0.00
   15   11    4     -4.60      0.00
   17   11    4      3.47      0.00
   19   11    4     -3.69      0.00
   21   11    4      0.30      0.00
  -24   12    4      1.02      0.00
  -22   12    4      2.02      0.00
  -20   12    4     -5.25      0.00
  -18   12    4     10.20      0.00
  -16   12    4     -4.78      0.00
  -14   12    4     -2.19      0.00
  -12   12    4    -17.81      0.00
  -10   12    4    -31.69      0.00
   -8   12    4     -5.82      0.00
   -6   12    4      4.20      0.00
   -4   12    4      7.89      0.00
   -2   12    4     12.28      0.00
    0   12    4    -65.00      0.00
    2   12    4     -9.42      0.00
    4   12    4    -40.31      0.00
    6   12    4    -19.07      0.00
    8   12    4     -7.50      0.00
   10   12    4     -3.87      0.00
   12   12    4    -15.66      0.00
   14   12    4     -3.57      0.00
   16   12    4    -14.59      0.00
   18   12    4     -3.73      0.00
   20   12    4     -3.39      0.00
   22   12    4     -3.17      0.00
  -23   13    4     -5.83      0.00
  -21   13    4      1.71      0.00
  -19   13    4     -7.76      0.00
  -17   13    4      0.42      0.00
  -15   13    4     10.77      0.00
  -13   13    4    -12.28      0.00
  -11   13    4     18.91      0.00
   -9   13    4      7.83      0.00
   -7   13    4     -1.85      0.00
   -5   13    4     16.40      0.00
   -3   13    4    -36.12      0.00
   -1   13    4     21.03      0.00
    1   13    4    -37.78      0.00
    3   13    4     18.31      0.00
    5   13    4    -37.73      0.00
    7   13    4     18.84      0.00
    9   13    4      0.27      0.00
   11   13    4      4.95      0.00
   13   13    4      2.53      0.00
   15   13    4     -5.11      0.00
   17   13    4      2.54      0.00
   19   13    4     -4.63      0.00
   21   13    4     -1.21      0.00
  -22   14    4     -0.35      0.00
  -20   14    4     -0.82      0.00
  -18   14    4     -4.31      0.00
  -16   14    4    -23.07      0.00
  -14   14    4    -19.24      0.00
  -12   14    4    -17.87      0.00
  -10   14    4    -31.03      0.00
   -8   14    4     -2.27      0.00
   -6   14    4    -27.24      0.00
   -4   14    4     15.65      0.00
   -2   14    4     10.98      0.00
    0   14    4     29.40      0.00
    2   14    4     -1.96      0.00
    4   14    4     18.66      0.00
    6   14    4     16.56      0.00
    8   14    4    -13.19      0.00
   10   14    4      4.33      0.00
   12   14    4     -8.48      0.00
   14   14    4      1.33      0.00
   16   14    4     -3.14      0.00
   18   14    4      0.08      0.00
   20   14    4      2.90      0.00
  -23   15    4      0.48      0.00
  -21   15    4     -2.78      0.00
  -19   15    4     -0.60      0.00
  -17   15    4      7.47      0.00
  -15   15    4     14.67      0.00
  -13   15    4     21.10      0.00
  -11   15    4     20.91      0.00
   -9   15    4     10.68      0.00
   -7   15    4     -6.35      0.00
   -5   15    4      1.19      0.00
   -3   15    4    -18.80      0.00
   -1   15    4     27.82      0.00
    1   15    4     10.04      0.00
    3   15    4     14.67      0.00
    5   15    4     32.63      0.00
    7   15    4      3.19      0.00
    9   15    4      7.32      0.00
   11   15    4      3.94      0.00
   13   15    4      9.11      0.00
   15   15    4     10.13      0.00
   17   15    4      3.51      0.00
   19   15    4      0.70      0.00
  -22   16    4      3.84      0.00
  -20   16    4      6.80      0.00
  -18   16    4      4.97      0.00
  -16   16    4      7.77      0.00
  -14   16    4      0.18      0.00
  -12   16    4      4.91      0.00
  -10   16    4     -5.15      0.00
   -8   16    4     15.07      0.00
   -6   16    4     23.00      0.00
   -4   16    4     20.52      0.00
   -2   16    4     -8.52      0.00
    0   16    4     -9.78      0.00
    2   16    4     22.94      0.00
    4   16    4    -18.25      0.00
    6   16    4      9.47      0.00
    8   16    4     -5.75      0.00
   10   16    4      0.34      0.00
   12   16    4     -3.61      0.00
   14   16    4     -5.56      0.00
   16   16    4     -4.66      0.00
   18   16    4      4.38      0.00
  -21   17    4      0.91      0.00
  -19   17    4      0.12      0.00
  -17   17    4      6.83      0.00
  -15   17    4     -1.84      0.00
  -13   17    4      4.51      0.00
  -11   17    4     -3.66      0.00
   -9   17    4     19.51      0.00
   -7   17    4     -2.29      0.00
   -5   17    4     13.25      0.00
   -3   17    4    -11.26      0.00
   -1   17    4     28.36      0.00
    1   17    4    -14.14      0.00
    3   17    4     14.01      0.00
    5   17    4    -32.44      0.00
    7   17    4      5.72      0.00
    9   17    4     14.77      0.00
   11   17    4     18.71      0.00
   13   17    4      8.38      0.00
   15   17    4      6.70      0.00
   17   17    4      2.22      0.00
   19   17    4      0.62      0.00
  -20   18    4      4.37      0.00
  -18   18    4     -3.79      0.00
  -16   18    4     -6.65      0.00
  -14   18    4      6.17      0.00
  -12   18    4     -7.01      0.00
  -10   18    4     11.57      0.00
   -8   18    4     -8.92      0.00
   -6   18    4      1.25      0.00
   -4   18    4     10.95      0.00
   -2   18    4     16.21      0.00
    0   18    4    -36.40      0.00
    2   18    4     -0.55      0.00
    4   18    4    -11.08      0.00
    6   18    4     18.59      0.00
    8   18    4    -11.36      0.00
   10   18    4    -11.98      0.00
   12   18    4     -7.96      0.00
   14   18    4     -2.61      0.00
   16   18    4      1.18      0.00
   18   18    4     -0.79      0.00
  -21   19    4     -3.99      0.00
  -19   19    4     -3.77      0.00
  -17   19    4      6.85      0.00
  -15   19    4      1.00      0.00
  -13   19    4     12.04      0.00
  -11   19    4      0.83      0.00
   -9   19    4     -4.05      0.00
   -7   19    4     -4.48      0.00
   -5   19    4    -12.63      0.00
   -3   19    4    -11.57      0.00
   -1   19    4     11.15      0.00
    1   19    4      2.38      0.00
    3   19    4     15.74      0.00
    5   19    4     19.03      0.00
    7   19    4     -1.90      0.00
    9   19    4      9.26      0.00
   11   19    4     -5.92      0.00
   13   19    4      4.76      0.00
   15   19    4      4.30      0.00
   17   19    4     -1.10      0.00
  -20   20    4      1.63      0.00
  -18   20    4     -5.52      0.00
  -16   20    4     -3.11      0.00
  -14   20    4    -12.36      0.00
  -12   20    4    -10.35      0.00
  -10   20    4      8.72      0.00
   -8   20    4     -9.90      0.00
   -6   20    4     14.19      0.00
   -4   20    4    -18.24      0.00
   -2   20    4     -4.12      0.00
    0   20    4     19.85      0.00
    2   20    4     14.68      0.00
    4   20    4     -8.77      0.00
    6   20    4    -12.47      0.00
    8   20    4      3.05      0.00
   10   20    4     -0.90      0.00
   12   20    4      6.17      0.00
   14   20    4     -9.20      0.00
   16   20    4     -2.19      0.00
  -19   21    4     -1.76      0.00
  -17   21    4     -1.12      0.00
  -15   21    4     -9.16      0.00
  -13   21    4      2.75      0.00
  -11   21    4    -24.87      0.00
   -9   21    4     -5.01      0.00
   -7   21    4    -11.11      0.00
   -5   21    4      3.83      0.00
   -3   21    4     12.08      0.00
   -1   21    4    -22.81      0.00
    1   21    4     -2.09      0.00
    3   21    4    -33.73      0.00
    5   21    4     11.37      0.00
    7   21    4     -8.74      0.00
    9   21    4     -2.09      0.00
   11   21    4     -2.73      0.00
   13   21    4     -3.76      0.00
   15   21    4     -0.75      0.00
  -16   22    4      0.32      0.00
  -14   22    4     -0.15      0.00
  -12   22    4      1.18      0.00
  -10   22    4      3.86      0.00
   -8   22    4    -14.16      0.00
   -6   22    4     12.81      0.00
   -4   22    4    -24.03      0.00
   -2   22    4     16.50      0.00
    0   22    4    -30.73      0.00
    2   22    4     -7.99      0.00
    4   22    4     -0.89      0.00
    6   22    4    -10.08      0.00
    8   22    4     -3.80      0.00
   10   22    4    -11.52      0.00
   12   22    4     -4.25      0.00
   14   22    4     -4.29      0.00
   16   22    4     -0.10      0.00
  -17   23    4     -1.81      0.00
  -15   23    4      0.12      0.00
  -13   23    4      4.92      0.00
  -11   23    4     -2.25      0.00
   -9   23    4     15.56      0.00
   -7   23    4     -7.94      0.00
   -5   23    4     -7.74      0.00
   -3   23    4     -9.56      0.00
   -1   23    4     -1.76      0.00
    1   23    4     12.29      0.00
    3   23    4      8.06      0.00
    5   23    4    -10.13      0.00
    7   23    4      3.22      0.00
    9   23    4     -1.79      0.00
   11   23    4      2.29      0.00
   13   23    4     -0.07      0.00
   15   23    4     -0.58      0.00
  -16   24    4     11.95      0.00
  -14   24    4      5.03      0.00
  -12   24    4      5.91      0.00
  -10   24    4      7.82      0.00
   -8   24    4      0.19      0.00
   -6   24    4     15.17      0.00
   -4   24    4      0.95      0.00
   -2   24    4     11.70      0.00
    0   24    4     -1.50      0.00
    2   24    4     12.63      0.00
    4   24    4     -1.10      0.00
    6   24    4      6.90      0.00
    8   24    4      3.42      0.00
   10   24    4      7.28      0.00
   12   24    4      3.09      0.00
   14   24    4      5.35      0.00
  -15   25    4     -5.83      0.00
  -13   25    4      0.97      0.00
  -11   25    4     -0.52      0.00
   -9   25    4      4.91      0.00
   -7   25    4     -6.19      0.00
   -5   25    4     17.63      0.00
   -3   25    4      8.37      0.00
   -1   25    4      7.40      0.00
    1   25    4     -1.67      0.00
    3   25    4     -0.63      0.00
    5   25    4     10.56      0.00
    7   25    4      7.89      0.00
    9   25    4      1.63      0.00
   11   25    4      0.55      0.00
   13   25    4      5.08      0.00
  -14   26    4     -3.15      0.00
  -12   26    4      3.12      0.00
  -10   26    4     -9.13      0.00
   -8   26    4      8.29      0.00
   -6   26    4      1.17      0.00
   -4   26    4     -3.18      0.00
   -2   26    4      4.12      0.00
    0   26    4      9.05      0.00
    2   26    4      2.89      0.00
    4   26    4      4.66      0.00
    6   26    4      4.43      0.00
    8   26    4     -1.21      0.00
   10   26    4     10.44      0.00
   12   26    4      1.69      0.00
  -13   27    4     -0.17      0.00
  -11   27    4      0.02      0.00
   -9   27    4      3.00      0.00
   -7   27    4     -2.90      0.00
   -5   27    4      1.35      0.00
   -3   27    4    -12.28      0.00
   -1   27    4      4.18      0.00
    1   27    4     -4.21      0.00
    3   27    4     10.12      0.00
    5   27    4    -14.22      0.00
    7   27    4      3.33      0.00
    9   27    4     -4.19      0.00
   11   27    4     -4.37      0.00
  -12   28    4     -0.17      0.00
  -10   28    4     -2.89      0.00
   -8   28    4     -4.56      0.00
   -6   28    4     -8.83      0.00
   -4   28    4      1.31      0.00
   -2   28    4     -6.45      0.00
    0   28    4    -13.80      0.00
    2   28    4     -2.03      0.00
    4   28    4     -9.99      0.00
    6   28    4      5.70      0.00
    8   28    4    -11.48      0.00
  -11   29    4      1.93      0.00
   -9   29    4     -1.50      0.00
   -7   29    4     -1.40      0.00
   -5   29    4     -0.74      0.00
   -3   29    4     -4.31      0.00
   -1   29    4      9.81      0.00
    1   29    4    -13.30      0.00
    3   29    4      3.61      0.00
    5   29    4     -8.05      0.00
    7   29    4     -0.72      0.00
   -6   30    4     -0.93      0.00
   -4   30    4      5.27      0.00
   -2   30    4     -5.59      0.00
    0   30    4      2.95      0.00
    2   30    4      0.09      0.00
    4   30    4     -3.04      0.00
    6   30    4      2.10      0.00
   -5   31    4     -0.49      0.00
   -3   31    4     -0.38      0.00
    1   31    4      3.68      0.00
  -25    1    5      2.38      0.00
  -23    1    5      1.27      0.00
  -21    1    5      7.12      0.00
  -19    1    5     -6.89      0.00
  -17    1    5      6.54      0.00
  -15    1    5    -16.74      0.00
  -13    1    5     -3.15      0.00
  -11    1    5    -41.83      0.00
   -9    1    5     33.05      0.00
   -7    1    5    -43.21      0.00
   -5    1    5    -44.20      0.00
   -3    1    5   -240.61      0.00
   -1    1    5   -147.11      0.00
    1    1    5     24.28      0.00
    3    1    5     26.25      0.00
    5    1    5    -24.80      0.00
    7    1    5    -18.65      0.00
    9    1    5     -4.37      0.00
   11    1    5      4.32      0.00
   13    1    5     -5.64      0.00
   15    1    5     -4.49      0.00
   17    1    5     -6.25      0.00
   19    1    5      7.80      0.00
   21    1    5      1.82      0.00
  -26    2    5     -0.87      0.00
  -24    2    5      3.81      0.00
  -22    2    5     -3.67      0.00
  -20    2    5      3.04      0.00
  -18    2    5      3.43      0.00
  -16    2    5     18.51      0.00
  -14    2    5     25.53      0.00
  -12    2    5     19.94      0.00
  -10    2    5     33.19      0.00
   -8    2    5    -27.52      0.00
   -6    2    5     32.94      0.00
   -4    2    5    -30.16      0.00
   -2    2    5     11.19      0.00
    0    2    5    -40.51      0.00
    2    2    5    -57.18      0.00
    4    2    5     21.24      0.00
    6    2    5     14.10      0.00
    8    2    5     36.72      0.00
   10    2    5    -20.18      0.00
   12    2    5      4.04      0.00
   14    2    5     -4.63      0.00
   16    2    5      9.18      0.00
   18    2    5      4.03      0.00
   20    2    5      2.80      0.00
   22    2    5     -0.17      0.00
  -25    3    5      1.36      0.00
  -23    3    5      2.28      0.00
  -21    3    5      7.72      0.00
  -19    3    5      6.70      0.00
  -17    3    5      7.73      0.00
  -15    3    5    -11.39      0.00
  -13    3    5     15.76      0.00
  -11    3    5     15.25      0.00
   -9    3    5     31.50      0.00
   -7    3    5     30.59      0.00
   -5    3    5    116.12      0.00
   -3    3    5    203.59      0.00
   -1    3    5    165.34      0.00
    1    3    5     83.19      0.00
    3    3    5    -78.03      0.00
    5    3    5     35.10      0.00
    7    3    5     -0.05      0.00
    9    3    5     31.31      0.00
   11    3    5     16.12      0.00
   13    3    5     19.33      0.00
   15    3    5     22.76      0.00
   17    3    5      8.80      0.00
   19    3    5      5.05      0.00
   21    3    5     -0.74      0.00
   23    3    5      0.03      0.00
  -24    4    5      1.24      0.00
  -22    4    5      1.46      0.00
  -20    4    5      2.34      0.00
  -18    4    5     12.72      0.00
  -16    4    5      8.55      0.00
  -14    4    5     26.18      0.00
  -12    4    5    -16.55      0.00
  -10    4    5      6.25      0.00
   -8    4    5     -2.63      0.00
   -6    4    5      7.51      0.00
   -4    4    5    -91.46      0.00
   -2    4    5     -6.41      0.00
    0    4    5    -58.33      0.00
    2    4    5    160.17      0.00
    4    4    5     39.13      0.00
    6    4    5     -8.20      0.00
    8    4    5      0.60      0.00
   10    4    5     -7.08      0.00
   12    4    5     29.20      0.00
   14    4    5    -15.46      0.00
   16    4    5     -1.64      0.00
   18    4    5    -11.55      0.00
   20    4    5      2.58      0.00
   22    4    5      3.73      0.00
  -23    5    5      0.33      0.00
  -21    5    5     -2.06      0.00
  -19    5    5    -19.02      0.00
  -17    5    5    -16.61      0.00
  -15    5    5    -37.34      0.00
  -13    5    5    -25.44      0.00
  -11    5    5    -13.13      0.00
   -9    5    5    -30.15      0.00
   -7    5    5      3.28      0.00
   -5    5    5     25.95      0.00
   -3    5    5     99.91      0.00
   -1    5    5     -6.37      0.00
    1    5    5     -9.62      0.00
    3    5    5    -28.50      0.00
    5    5    5     43.07      0.00
    7    5    5    -32.80      0.00
    9    5    5     22.08      0.00
   11    5    5    -15.73      0.00
   13    5    5     -8.58      0.00
   15    5    5      6.65      0.00
   17    5    5     -3.53      0.00
   19    5    5     10.63      0.00
   21    5    5     -2.01      0.00
   23    5    5     -0.16      0.00
  -26    6    5     -6.09      0.00
  -24    6    5     -0.89      0.00
  -22    6    5    -12.81      0.00
  -20    6    5      4.08      0.00
  -18    6    5     -3.82      0.00
  -16    6    5      5.68      0.00
  -14    6    5     32.42      0.00
  -12    6    5     -1.00      0.00
  -10    6    5     46.38      0.00
   -8    6    5    -16.81      0.00
   -6    6    5    -36.40      0.00
   -4    6    5   -145.53      0.00
   -2    6    5   -135.27      0.00
    0    6    5    -32.69      0.00
    2    6    5   -103.40      0.00
    4    6    5     28.66      0.00
    6    6    5    -10.46      0.00
    8    6    5     27.99      0.00
   10    6    5    -47.35      0.00
   12    6    5      0.02      0.00
   14    6    5    -27.77      0.00
   16    6    5     -2.54      0.00
   18    6    5     -8.59      0.00
   20    6    5    -10.08      0.00
   22    6    5     -1.04      0.00
  -25    7    5     -0.99      0.00
  -23    7    5      2.89      0.00
  -21    7    5     -4.48      0.00
  -19    7    5     -4.26      0.00
  -17    7    5     -2.20      0.00
  -15    7    5    -37.18      0.00
  -13    7    5    -30.14      0.00
  -11    7    5    -49.98      0.00
   -9    7    5    -51.87      0.00
   -7    7    5      1.43      0.00
   -5    7    5    -30.30      0.00
   -3    7    5     23.66      0.00
   -1    7    5     20.93      0.00
    1    7    5      1.85      0.00
    3    7    5    -62.83      0.00
    5    7    5    -89.81      0.00
    7    7    5    -43.02      0.00
    9    7    5    -32.92      0.00
   11    7    5     -2.61      0.00
   13    7    5    -19.68      0.00
   15    7    5      6.44      0.00
   17    7    5    -18.32      0.00
   19    7    5      5.91      0.00
   21    7    5     -8.64      0.00
   23    7    5     -3.32      0.00
  -24    8    5     -3.45      0.00
  -22    8    5     -0.28      0.00
  -20    8    5      1.93      0.00
  -18    8    5     -0.25      0.00
  -16    8    5     18.67      0.00
  -14    8    5     25.63      0.00
  -12    8    5     -6.08      0.00
  -10    8    5     16.12      0.00
   -8    8    5    -30.73      0.00
   -6    8    5    -15.19      0.00
   -4    8    5     39.78      0.00
   -2    8    5   -106.24      0.00
    0    8    5    -14.34      0.00
    2    8    5    -21.74      0.00
    4    8    5    -14.09      0.00
    6    8    5    -10.40      0.00
    8    8    5     16.85      0.00
   10    8    5      2.21      0.00
   12    8    5     34.14      0.00
   14    8    5     -5.46      0.00
   16    8    5      9.81      0.00
   18    8    5     -4.50      0.00
   20    8    5     -0.24      0.00
   22    8    5      2.99      0.00
  -25    9    5      2.42      0.00
  -23    9    5      4.03      0.00
  -21    9    5      3.09      0.00
  -19    9    5     -2.00      0.00
  -17    9    5     -3.21      0.00
  -15    9    5     -5.69      0.00
  -13    9    5      5.48      0.00
  -11    9    5     30.52      0.00
   -9    9    5     -2.89      0.00
   -7    9    5     31.68      0.00
   -5    9    5     24.16      0.00
   -3    9    5     56.14      0.00
    1    9    5    -12.44      0.00
    3    9    5     78.16      0.00
    5    9    5     14.29      0.00
    7    9    5      7.68      0.00
    9    9    5    -10.95      0.00
   11    9    5    -11.67      0.00
   13    9    5     -8.59      0.00
   15    9    5     12.10      0.00
   17    9    5     -1.71      0.00
   19    9    5     10.70      0.00
   21    9    5      3.28      0.00
  -24   10    5     -1.05      0.00
  -22   10    5     -0.83      0.00
  -20   10    5      6.92      0.00
  -18   10    5     13.44      0.00
  -16   10    5      0.30      0.00
  -14   10    5     17.02      0.00
  -12   10    5     12.47      0.00
  -10   10    5     49.26      0.00
   -8   10    5     46.58      0.00
   -6   10    5     13.81      0.00
   -4   10    5     11.27      0.00
   -2   10    5     33.33      0.00
    0   10    5     58.65      0.00
    2   10    5     31.25      0.00
    4   10    5     56.60      0.00
    6   10    5     58.95      0.00
    8   10    5     55.91      0.00
   10   10    5     18.79      0.00
   12   10    5     28.21      0.00
   14   10    5     -5.69      0.00
   16   10    5      8.07      0.00
   18   10    5      1.26      0.00
   20   10    5     -4.52      0.00
   22   10    5      0.80      0.00
  -23   11    5      3.13      0.00
  -21   11    5      1.31      0.00
  -19   11    5     -2.82      0.00
  -17   11    5      2.40      0.00
  -15   11    5     -6.23      0.00
  -13   11    5    -11.66      0.00
  -11   11    5    -22.11      0.00
   -9   11    5    -32.20      0.00
   -7   11    5     39.63      0.00
   -5   11    5    -19.12      0.00
   -3   11    5     35.68      0.00
   -1   11    5     -0.48      0.00
    1   11    5     10.25      0.00
    3   11    5      8.47      0.00
    5   11    5      2.18      0.00
    7   11    5    -23.91      0.00
    9   11    5    -12.43      0.00
   11   11    5     -2.32      0.00
   13   11    5     -6.47      0.00
   15   11    5     11.34      0.00
   17   11    5     -3.06      0.00
   19   11    5     10.87      0.00
   21   11    5      4.88      0.00
  -24   12    5     -0.07      0.00
  -22   12    5      2.82      0.00
  -20   12    5     -4.43      0.00
  -18   12    5      2.89      0.00
  -16   12    5     -0.13      0.00
  -14   12    5     27.61      0.00
  -12   12    5    -12.68      0.00
  -10   12    5     31.09      0.00
   -8   12    5    -46.83      0.00
   -6   12    5     26.56      0.00
   -4   12    5     -2.81      0.00
   -2   12    5     -9.45      0.00
    0   12    5     18.42      0.00
    2   12    5    -57.47      0.00
    4   12    5      0.69      0.00
    6   12    5    -57.32      0.00
    8   12    5     29.13      0.00
   10   12    5      0.12      0.00
   12   12    5     23.14      0.00
   14   12    5      2.35      0.00
   16   12    5      1.86      0.00
   18   12    5      0.29      0.00
   20   12    5     -4.56      0.00
  -23   13    5     -4.70      0.00
  -21   13    5      4.89      0.00
  -19   13    5      4.66      0.00
  -17   13    5      1.50      0.00
  -15   13    5     -1.98      0.00
  -13   13    5    -10.87      0.00
  -11   13    5     -6.12      0.00
   -9   13    5     -6.08      0.00
   -7   13    5     -7.06      0.00
   -5   13    5    -44.59      0.00
   -3   13    5    -19.51      0.00
   -1   13    5    -78.71      0.00
    1   13    5     30.26      0.00
    3   13    5    -35.70      0.00
    5   13    5     10.86      0.00
    7   13    5     -8.30      0.00
    9   13    5    -25.63      0.00
   11   13    5    -10.97      0.00
   13   13    5    -17.76      0.00
   15   13    5     -5.27      0.00
   17   13    5     -2.37      0.00
   19   13    5     -5.16      0.00
   21   13    5      0.95      0.00
  -22   14    5      0.33      0.00
  -20   14    5    -14.92      0.00
  -18   14    5      1.48      0.00
  -16   14    5    -20.70      0.00
  -14   14    5      0.81      0.00
  -12   14    5      1.03      0.00
  -10   14    5     11.06      0.00
   -8   14    5    -14.55      0.00
   -6   14    5      2.78      0.00
   -4   14    5    -27.65      0.00
   -2   14    5     26.46      0.00
    0   14    5    -31.12      0.00
    2   14    5     -2.70      0.00
    4   14    5    -11.88      0.00
    6   14    5      5.81      0.00
    8   14    5     15.06      0.00
   10   14    5     -6.33      0.00
   12   14    5     -3.09      0.00
   14   14    5     -0.58      0.00
   16   14    5     -3.24      0.00
   18   14    5     -1.30      0.00
   20   14    5     -1.33      0.00
  -23   15    5     -3.38      0.00
  -21   15    5      4.60      0.00
  -19   15    5     -7.81      0.00
  -17   15    5     -5.62      0.00
  -15   15    5      5.09      0.00
  -13   15    5    -18.75      0.00
  -11   15    5      3.01      0.00
   -9   15    5    -14.11      0.00
   -7   15    5     -4.70      0.00
   -5   15    5     13.49      0.00
   -3   15    5     -8.00      0.00
   -1   15    5    -11.67      0.00
    1   15    5    -14.29      0.00
    3   15    5      5.44      0.00
    5   15    5    -10.34      0.00
    7   15    5     -1.77      0.00
    9   15    5    -19.70      0.00
   11   15    5      3.21      0.00
   13   15    5     -8.84      0.00
   15   15    5     -0.58      0.00
   17   15    5     -0.56      0.00
   19   15    5     -0.17      0.00
  -22   16    5     -0.46      0.00
  -20   16    5     -1.06      0.00
  -18   16    5     10.68      0.00
  -16   16    5     -0.49      0.00
  -14   16    5      5.20      0.00
  -12   16    5     -5.90      0.00
  -10   16    5    -13.46      0.00
   -8   16    5      8.29      0.00
   -6   16    5      9.41      0.00
   -4   16    5     13.95      0.00
   -2   16    5     20.15      0.00
    0   16    5     41.17      0.00
    2   16    5     -3.76      0.00
    4   16    5     43.62      0.00
    6   16    5    -40.82      0.00
    8   16    5      8.31      0.00
   10   16    5     -0.51      0.00
   12   16    5      5.98      0.00
   14   16    5      4.98      0.00
   16   16    5     -8.42      0.00
   18   16    5      0.09      0.00
  -21   17    5      1.63      0.00
  -19   17    5      2.13      0.00
  -17   17    5     -1.61      0.00
  -15   17    5     -0.80      0.00
  -13   17    5      2.90      0.00
  -11   17    5      6.08      0.00
   -9   17    5      1.79      0.00
   -7   17    5      0.12      0.00
   -5   17    5    -21.87      0.00
   -3   17    5      5.47      0.00
   -1   17    5      8.44      0.00
    1   17    5     -4.08      0.00
    3   17    5    -13.73      0.00
    5   17    5     -4.07      0.00
    7   17    5     29.23      0.00
    9   17    5     -6.72      0.00
   11   17    5     13.12      0.00
   13   17    5     -7.75      0.00
   15   17    5      5.62      0.00
   17   17    5      4.95      0.00
  -22   18    5      2.47      0.00
  -20   18    5     -3.02      0.00
  -18   18    5     -0.66      0.00
  -16   18    5     -5.59      0.00
  -14   18    5      4.28      0.00
  -12   18    5     -0.58      0.00
  -10   18    5      9.08      0.00
   -8   18    5      2.42      0.00
   -6   18    5      9.74      0.00
   -4   18    5      3.71      0.00
   -2   18    5    -21.39      0.00
    0   18    5      0.02      0.00
    2   18    5    -17.34      0.00
    4   18    5     16.38      0.00
    6   18    5      0.67      0.00
    8   18    5      5.16      0.00
   10   18    5     -0.35      0.00
   12   18    5    -10.77      0.00
   14   18    5      1.01      0.00
   16   18    5     -0.26      0.00
  -21   19    5      2.62      0.00
  -19   19    5      4.49      0.00
  -17   19    5      6.14      0.00
  -15   19    5     14.02      0.00
  -13   19    5     -3.03      0.00
  -11   19    5     18.04      0.00
   -9   19    5     -2.79      0.00
   -7   19    5      7.45      0.00
   -5   19    5     -5.90      0.00
   -3   19    5     -1.36      0.00
   -1   19    5    -23.55      0.00
    1   19    5     13.77      0.00
    3   19    5     13.63      0.00
    5   19    5    -15.67      0.00
    7   19    5      5.09      0.00
    9   19    5     -7.17      0.00
   11   19    5     12.84      0.00
   13   19    5      8.91      0.00
   15   19    5      4.60      0.00
   17   19    5      0.78      0.00
  -20   20    5      0.67      0.00
  -18   20    5      1.68      0.00
  -16   20    5      0.34      0.00
  -14   20    5      0.61      0.00
  -12   20    5     -2.82      0.00
  -10   20    5     -3.73      0.00
   -8   20    5      2.77      0.00
   -6   20    5      6.20      0.00
   -4   20    5     20.73      0.00
   -2   20    5     15.16      0.00
    0   20    5     16.20      0.00
    2   20    5      3.39      0.00
    4   20    5      3.65      0.00
    6   20    5     -2.82      0.00
    8   20    5      1.49      0.00
   10   20    5     -0.61      0.00
   12   20    5      4.21      0.00
   14   20    5      1.31      0.00
   16   20    5      3.78      0.00
  -19   21    5     -2.00      0.00
  -17   21    5      1.85      0.00
  -15   21    5     -5.04      0.00
  -13   21    5     11.63      0.00
  -11   21    5      0.69      0.00
   -9   21    5     -4.10      0.00
   -7   21    5     -2.59      0.00
   -5   21    5     -6.28      0.00
   -3   21    5     18.00      0.00
   -1   21    5     24.72      0.00
    1   21    5     -5.71      0.00
    3   21    5     -1.03      0.00
    5   21    5     13.98      0.00
    7   21    5     18.29      0.00
    9   21    5     11.95      0.00
   11   21    5      2.52      0.00
   13   21    5     -0.62      0.00
   15   21    5      0.63      0.00
  -18   22    5     -4.57      0.00
  -16   22    5     -4.91      0.00
  -14   22    5     -6.95      0.00
  -12   22    5    -11.26      0.00
  -10   22    5     10.17      0.00
   -8   22    5      0.87      0.00
   -6   22    5     19.33      0.00
   -4   22    5    -23.51      0.00
   -2   22    5    -21.35      0.00
    0   22    5     -5.57      0.00
    2   22    5     -7.04      0.00
    4   22    5     11.08      0.00
    6   22    5    -19.10      0.00
    8   22    5     -8.89      0.00
   10   22    5    -11.64      0.00
   12   22    5     -2.95      0.00
   14   22    5     -7.69      0.00
  -17   23    5     -0.64      0.00
  -15   23    5     -5.43      0.00
  -13   23    5      4.33      0.00
  -11   23    5    -19.94      0.00
   -9   23    5     -2.59      0.00
   -7   23    5    -18.02      0.00
   -5   23    5    -12.03      0.00
   -3   23    5     -1.91      0.00
   -1   23    5    -22.03      0.00
    1   23    5      7.07      0.00
    3   23    5    -10.09      0.00
    5   23    5     -3.21      0.00
    7   23    5    -11.98      0.00
    9   23    5     -1.16      0.00
   11   23    5     -6.00      0.00
   13   23    5     -5.06      0.00
   15   23    5     -2.73      0.00
  -16   24    5      1.39      0.00
  -14   24    5     -2.35      0.00
  -12   24    5      0.75      0.00
  -10   24    5      3.31      0.00
   -8   24    5    -13.68      0.00
   -6   24    5      6.25      0.00
   -4   24    5     -8.65      0.00
   -2   24    5     23.13      0.00
    0   24    5    -18.58      0.00
    2   24    5     -3.71      0.00
    4   24    5    -21.77      0.00
    6   24    5      1.80      0.00
    8   24    5     -1.89      0.00
   10   24    5     -6.06      0.00
   12   24    5      0.06      0.00
   14   24    5      0.70      0.00
  -15   25    5     -0.36      0.00
  -13   25    5      3.77      0.00
  -11   25    5     -3.59      0.00
   -9   25    5      4.00      0.00
   -7   25    5     -5.79      0.00
   -5   25    5     -0.64      0.00
   -3   25    5     -4.68      0.00
   -1   25    5     -8.97      0.00
    1   25    5     12.34      0.00
    3   25    5    -11.96      0.00
    5   25    5     13.40      0.00
    7   25    5     -5.40      0.00
    9   25    5      6.17      0.00
   11   25    5      3.16      0.00
   13   25    5      4.04      0.00
  -14   26    5      2.12      0.00
  -12   26    5      4.89      0.00
  -10   26    5      7.04      0.00
   -8   26    5      5.55      0.00
   -6   26    5     18.80      0.00
   -4   26    5     -3.98      0.00
   -2   26    5      9.83      0.00
    0   26    5      0.73      0.00
    2   26    5     14.77      0.00
    4   26    5     12.18      0.00
    6   26    5     -2.24      0.00
    8   26    5      8.01      0.00
   10   26    5      0.63      0.00
   12   26    5      6.04      0.00
  -13   27    5      5.90      0.00
  -11   27    5     -4.34      0.00
   -9   27    5      9.74      0.00
   -7   27    5     -3.12      0.00
   -5   27    5      6.44      0.00
   -3   27    5      6.60      0.00
   -1   27    5      3.63      0.00
    1   27    5      1.67      0.00
    3   27    5      1.82      0.00
    5   27    5     10.07      0.00
    7   27    5      3.29      0.00
    9   27    5      5.24      0.00
   11   27    5     -1.21      0.00
  -12   28    5      0.21      0.00
  -10   28    5     -0.95      0.00
   -8   28    5      1.27      0.00
   -6   28    5     -1.46      0.00
   -4   28    5      0.06      0.00
   -2   28    5     10.21      0.00
    0   28    5      7.57      0.00
    2   28    5     -1.14      0.00
    4   28    5     -2.02      0.00
    6   28    5      1.43      0.00
    8   28    5     -0.28      0.00
   10   28    5     -1.64      0.00
  -11   29    5     -0.91      0.00
   -7   29    5     -1.11      0.00
   -5   29    5     -0.11      0.00
   -3   29    5     -7.91      0.00
   -1   29    5     -8.56      0.00
    1   29    5     -3.37      0.00
    3   29    5     -3.20      0.00
    5   29    5     -4.60      0.00
    7   29    5     -6.04      0.00
   -8   30    5     -0.71      0.00
   -6   30    5     -5.43      0.00
   -4   30    5      1.80      0.00
   -2   30    5     -3.37      0.00
    0   30    5     -5.14      0.00
    2   30    5      0.01      0.00
    4   30    5     -3.07      0.00
    6   30    5      1.59      0.00
   -5   31    5     -1.30      0.00
   -3   31    5     -6.56      0.00
  -26    0    6      1.28      0.00
  -24    0    6     -7.09      0.00
  -22    0    6     -2.51      0.00
  -20    0    6    -18.30      0.00
  -18    0    6    -21.28      0.00
  -16    0    6    -14.88      0.00
  -14    0    6      1.80      0.00
  -12    0    6     23.53      0.00
  -10    0    6     -4.44      0.00
   -8    0    6    154.41      0.00
   -6    0    6    110.53      0.00
   -4    0    6    298.18      0.00
   -2    0    6    -47.91      0.00
    0    0    6   -113.35      0.00
    2    0    6    -28.44      0.00
    4    0    6     79.31      0.00
    6    0    6     24.41      0.00
    8    0    6    -12.28      0.00
   10    0    6     44.78      0.00
   12    0    6     20.52      0.00
   14    0    6     29.03      0.00
   16    0    6      4.23      0.00
   18    0    6     -3.43      0.00
   20    0    6     -2.70      0.00
   22    0    6     -5.92      0.00
  -25    1    6      0.17      0.00
  -23    1    6      4.46      0.00
  -21    1    6      0.82      0.00
  -19    1    6     18.28      0.00
  -17    1    6     -7.00      0.00
  -15    1    6     18.06      0.00
  -13    1    6    -26.32      0.00
  -11    1    6     17.59      0.00
   -9    1    6    -43.58      0.00
   -7    1    6    -32.39      0.00
   -5    1    6    -72.96      0.00
   -3    1    6   -120.53      0.00
   -1    1    6     62.77      0.00
    1    1    6    -68.06      0.00
    3    1    6     74.14      0.00
    5    1    6    -88.90      0.00
    7    1    6     34.79      0.00
    9    1    6    -37.06      0.00
   11    1    6    -24.83      0.00
   13    1    6    -28.05      0.00
   15    1    6    -27.01      0.00
   17    1    6     -5.46      0.00
   19    1    6     -8.00      0.00
   21    1    6      5.75      0.00
  -26    2    6      0.98      0.00
  -24    2    6     -3.92      0.00
  -22    2    6     -0.66      0.00
  -20    2    6    -16.97      0.00
  -18    2    6      1.40      0.00
  -16    2    6    -21.92      0.00
  -14    2    6     -7.97      0.00
  -12    2    6    -28.20      0.00
  -10    2    6      0.26      0.00
   -8    2    6    -69.23      0.00
   -6    2    6    -73.35      0.00
   -4    2    6    -38.12      0.00
   -2    2    6     84.12      0.00
    0    2    6    126.97      0.00
    2    2    6    -43.09      0.00
    4    2    6    -79.10      0.00
    6    2    6     -8.56      0.00
    8    2    6    -36.93      0.00
   10    2    6     19.87      0.00
   12    2    6    -12.71      0.00
   14    2    6     15.03      0.00
   16    2    6      3.60      0.00
   18    2    6      7.86      0.00
   20    2    6     -3.64      0.00
   22    2    6     -1.86      0.00
  -25    3    6     -0.77      0.00
  -23    3    6     -1.20      0.00
  -21    3    6      2.42      0.00
  -19    3    6     10.14      0.00
  -17    3    6     18.14      0.00
  -15    3    6     20.79      0.00
  -13    3    6      4.84      0.00
  -11    3    6     -2.91      0.00
   -9    3    6    -20.35      0.00
   -7    3    6    -17.20      0.00
   -5    3    6      2.34      0.00
   -3    3    6   -181.96      0.00
   -1    3    6    -30.52      0.00
    1    3    6    -93.91      0.00
    3    3    6    117.06      0.00
    5    3    6    -35.86      0.00
    7    3    6     40.38      0.00
    9    3    6    -24.69      0.00
   11    3    6      2.85      0.00
   13    3    6     10.75      0.00
   15    3    6     -5.28      0.00
   17    3    6      6.43      0.00
   19    3    6     -6.79      0.00
   21    3    6      4.95      0.00
  -24    4    6      2.27      0.00
  -22    4    6      7.00      0.00
  -20    4    6      0.22      0.00
  -18    4    6     -3.07      0.00
  -16    4    6    -10.82      0.00
  -14    4    6      3.74      0.00
  -12    4    6      5.51      0.00
  -10    4    6     26.86      0.00
   -8    4    6     52.25      0.00
   -6    4    6     87.91      0.00
   -4    4    6     73.39      0.00
   -2    4    6    109.95      0.00
    0    4    6    -95.60      0.00
    2    4    6     35.80      0.00
    4    4    6    -11.66      0.00
    6    4    6     66.35      0.00
    8    4    6     -5.48      0.00
   10    4    6     40.48      0.00
   12    4    6      8.38      0.00
   14    4    6     22.28      0.00
   16    4    6      3.37      0.00
   18    4    6      4.72      0.00
   20    4    6      6.89      0.00
   22    4    6     -1.49      0.00
  -25    5    6     -0.95      0.00
  -23    5    6      7.34      0.00
  -21    5    6     -0.47      0.00
  -19    5    6     12.05      0.00
  -17    5    6      1.56      0.00
  -15    5    6     17.86      0.00
  -13    5    6     13.97      0.00
  -11    5    6     27.54      0.00
   -9    5    6     34.79      0.00
   -7    5    6    -43.14      0.00
   -5    5    6     69.17      0.00
   -3    5    6    -63.37      0.00
   -1    5    6     97.72      0.00
    1    5    6     17.81      0.00
    3    5    6    -23.38      0.00
    5    5    6     24.68      0.00
    7    5    6     21.17      0.00
    9    5    6     44.81      0.00
   11    5    6     -4.66      0.00
   13    5    6     -1.85      0.00
   15    5    6     -9.62      0.00
   17    5    6      9.99      0.00
   19    5    6      0.05      0.00
   21    5    6      5.24      0.00
  -26    6    6      1.84      0.00
  -24    6    6      0.19      0.00
  -22    6    6      2.68      0.00
  -20    6    6      2.75      0.00
  -18    6    6     10.70      0.00
  -16    6    6      2.55      0.00
  -14    6    6     -7.28      0.00
  -12    6    6     15.44      0.00
  -10    6    6    -15.22      0.00
   -8    6    6     63.97      0.00
   -6    6    6     60.38      0.00
   -4    6    6     34.60      0.00
   -2    6    6     95.93      0.00
    0    6    6     10.34      0.00
    2    6    6    132.71      0.00
    4    6    6     11.40      0.00
    6    6    6    -15.79      0.00
    8    6    6    -33.94      0.00
   10    6    6    -20.05      0.00
   12    6    6      1.08      0.00
   14    6    6      5.03      0.00
   16    6    6      6.26      0.00
   18    6    6      0.03      0.00
   20    6    6      4.88      0.00
   22    6    6     -1.14      0.00
  -25    7    6     -3.20      0.00
  -23    7    6     -3.72      0.00
  -21    7    6     -7.88      0.00
  -19    7    6    -10.26      0.00
  -17    7    6     -8.44      0.00
  -15    7    6     18.19      0.00
  -13    7    6      2.55      0.00
  -11    7    6     -6.91      0.00
   -9    7    6    -22.14      0.00
   -7    7    6    -83.30      0.00
   -5    7    6    -21.51      0.00
   -3    7    6    -24.21      0.00
   -1    7    6     10.64      0.00
    1    7    6    -50.77      0.00
    3    7    6     20.49      0.00
    5    7    6    -16.73      0.00
    7    7    6      2.57      0.00
    9    7    6      7.27      0.00
   11    7    6      7.06      0.00
   13    7    6      9.67      0.00
   15    7    6     -5.46      0.00
   17    7    6     -1.06      0.00
   19    7    6    -10.19      0.00
   21    7    6     -1.96      0.00
  -24    8    6      0.53      0.00
  -22    8    6     -2.25      0.00
  -20    8    6      3.03      0.00
  -18    8    6    -10.82      0.00
  -16    8    6    -20.93      0.00
  -14    8    6    -33.54      0.00
  -12    8    6    -33.82      0.00
  -10    8    6    -21.92      0.00
   -8    8    6    -31.67      0.00
   -6    8    6    -48.53      0.00
   -4    8    6    -61.42      0.00
   -2    8    6    -51.76      0.00
    0    8    6    -73.36      0.00
    2    8    6    -71.47      0.00
    4    8    6    -36.84      0.00
    6    8    6    -11.24      0.00
    8    8    6    -15.24      0.00
   10    8    6    -22.91      0.00
   12    8    6    -25.12      0.00
   14    8    6    -18.28      0.00
   16    8    6     -8.78      0.00
   18    8    6     -3.90      0.00
   20    8    6     -2.06      0.00
   22    8    6     -0.44      0.00
  -25    9    6     -4.18      0.00
  -23    9    6      3.05      0.00
  -21    9    6    -14.53      0.00
  -19    9    6      2.43      0.00
  -17    9    6     -2.37      0.00
  -15    9    6     -5.78      0.00
  -13    9    6    -13.73      0.00
  -11    9    6      1.30      0.00
   -9    9    6      6.21      0.00
   -7    9    6     28.18      0.00
   -5    9    6      1.71      0.00
   -3    9    6    -96.69      0.00
   -1    9    6     -9.29      0.00
    1    9    6    -45.42      0.00
    3    9    6    -46.98      0.00
    5    9    6    -32.24      0.00
    7    9    6      3.24      0.00
    9    9    6      6.90      0.00
   11    9    6      1.17      0.00
   13    9    6      2.00      0.00
   15    9    6     -1.59      0.00
   17    9    6     -2.59      0.00
   19    9    6      0.03      0.00
   21    9    6     -1.93      0.00
  -24   10    6     -2.79      0.00
  -22   10    6      3.84      0.00
  -20   10    6      4.09      0.00
  -18   10    6      0.55      0.00
  -16   10    6     19.36      0.00
  -14   10    6      6.87      0.00
  -12   10    6     22.67      0.00
  -10   10    6    -14.02      0.00
   -8   10    6    -33.75      0.00
   -6   10    6     -6.79      0.00
   -4   10    6      2.17      0.00
   -2   10    6      3.45      0.00
    0   10    6     13.22      0.00
    2   10    6     41.18      0.00
    4   10    6      7.98      0.00
    6   10    6     11.23      0.00
    8   10    6    -18.91      0.00
   10   10    6     -8.26      0.00
   12   10    6      8.94      0.00
   14   10    6     -6.07      0.00
   16   10    6      8.65      0.00
   18   10    6     -7.29      0.00
   20   10    6      0.95      0.00
  -23   11    6      5.65      0.00
  -21   11    6     -2.87      0.00
  -19   11    6      6.08      0.00
  -17   11    6    -16.71      0.00
  -15   11    6      1.08      0.00
  -13   11    6      8.08      0.00
  -11   11    6     -4.24      0.00
   -9   11    6     22.67      0.00
   -7   11    6     24.65      0.00
   -5   11    6     53.46      0.00
   -3   11    6    105.04      0.00
   -1   11    6     48.43      0.00
    1   11    6     32.43      0.00
    3   11    6     40.03      0.00
    5   11    6     16.61      0.00
    7   11    6     -5.62      0.00
    9   11    6     12.50      0.00
   11   11    6     -6.78      0.00
   13   11    6      5.43      0.00
   15   11    6      4.41      0.00
   17   11    6      1.93      0.00
   19   11    6      7.26      0.00
   21   11    6      1.58      0.00
  -24   12    6     -1.51      0.00
  -22   12    6     -2.21      0.00
  -20   12    6      3.91      0.00
  -18   12    6      7.17      0.00
  -16   12    6     18.31      0.00
  -14   12    6      7.44      0.00
  -12   12    6     19.19      0.00
  -10   12    6     18.93      0.00
   -8   12    6      9.12      0.00
   -6   12    6     -7.33      0.00
   -4   12    6    -14.37      0.00
   -2   12    6     -8.74      0.00
    0   12    6      9.61      0.00
    2   12    6     17.43      0.00
    4   12    6     22.72      0.00
    6   12    6     14.21      0.00
    8   12    6     19.36      0.00
   10   12    6      8.65      0.00
   12   12    6     18.12      0.00
   14   12    6     -2.54      0.00
   16   12    6      5.68      0.00
   18   12    6     -1.42      0.00
   20   12    6     -2.71      0.00
  -23   13    6      6.87      0.00
  -21   13    6     -0.86      0.00
  -19   13    6      5.80      0.00
  -17   13    6     -1.98      0.00
  -15   13    6    -11.24      0.00
  -13   13    6    -12.40      0.00
  -11   13    6      1.80      0.00
   -9   13    6     22.09      0.00
   -7   13    6     55.33      0.00
   -5   13    6     -1.90      0.00
   -3   13    6      7.59      0.00
   -1   13    6      6.83      0.00
    1   13    6    -33.91      0.00
    3   13    6     -5.81      0.00
    5   13    6    -35.69      0.00
    7   13    6      8.12      0.00
    9   13    6      6.85      0.00
   11   13    6     -4.43      0.00
   13   13    6     -3.22      0.00
   15   13    6      1.38      0.00
   17   13    6      4.72      0.00
   19   13    6      5.75      0.00
  -22   14    6      0.79      0.00
  -20   14    6      4.18      0.00
  -18   14    6     -5.74      0.00
  -16   14    6     10.13      0.00
  -14   14    6      6.82      0.00
  -12   14    6     -0.47      0.00
  -10   14    6     -7.97      0.00
   -8   14    6    -49.89      0.00
   -6   14    6    -25.35      0.00
   -4   14    6      0.77      0.00
   -2   14    6    -21.36      0.00
    0   14    6     26.29      0.00
    2   14    6    -12.07      0.00
    4   14    6     30.26      0.00
    6   14    6     20.51      0.00
    8   14    6     17.39      0.00
   10   14    6      2.01      0.00
   12   14    6     12.32      0.00
   14   14    6     -0.83      0.00
   16   14    6      3.97      0.00
   18   14    6     -7.07      0.00
   20   14    6     -0.41      0.00
  -23   15    6     -0.39      0.00
  -21   15    6     -5.54      0.00
  -19   15    6     -3.23      0.00
  -17   15    6    -11.04      0.00
  -15   15    6     -2.33      0.00
  -13   15    6     -6.67      0.00
  -11   15    6     -8.83      0.00
   -9   15    6     -6.35      0.00
   -7   15    6     -1.95      0.00
   -5   15    6     -9.67      0.00
   -3   15    6     -6.17      0.00
   -1   15    6    -41.35      0.00
    1   15    6     19.13      0.00
    3   15    6    -37.43      0.00
    5   15    6      6.05      0.00
    7   15    6    -48.16      0.00
    9   15    6    -18.14      0.00
   11   15    6    -14.99      0.00
   13   15    6      0.52      0.00
   15   15    6      2.36      0.00
   17   15    6      1.34      0.00
   19   15    6      1.95      0.00
  -22   16    6     -0.64      0.00
  -20   16    6     -2.45      0.00
  -18   16    6     11.30      0.00
  -16   16    6      7.79      0.00
  -14   16    6     -2.18      0.00
  -12   16    6     15.65      0.00
  -10   16    6    -10.12      0.00
   -8   16    6     -4.18      0.00
   -6   16    6      5.54      0.00
   -4   16    6    -28.56      0.00
   -2   16    6     23.63      0.00
    0   16    6    -13.62      0.00
    2   16    6     19.10      0.00
    4   16    6    -12.34      0.00
    6   16    6      2.44      0.00
    8   16    6     13.84      0.00
   10   16    6      1.14      0.00
   12   16    6      5.69      0.00
   14   16    6     -4.67      0.00
   16   16    6     -6.70      0.00
   18   16    6     -3.74      0.00
  -21   17    6      4.29      0.00
  -19   17    6     -7.88      0.00
  -17   17    6     -9.74      0.00
  -15   17    6    -11.34      0.00
  -13   17    6     -7.77      0.00
  -11   17    6      2.23      0.00
   -9   17    6     17.43      0.00
   -7   17    6      7.53      0.00
   -5   17    6     11.48      0.00
   -3   17    6      6.61      0.00
   -1   17    6     -2.20      0.00
    1   17    6     -8.33      0.00
    3   17    6    -22.36      0.00
    5   17    6     -9.56      0.00
    7   17    6     -2.83      0.00
    9   17    6     -3.70      0.00
   11   17    6     -2.33      0.00
   13   17    6    -15.63      0.00
   15   17    6     -5.10      0.00
   17   17    6      2.66      0.00
  -22   18    6     -1.59      0.00
  -20   18    6     -0.64      0.00
  -18   18    6      2.87      0.00
  -16   18    6     -5.37      0.00
  -14   18    6      7.23      0.00
  -12   18    6    -20.71      0.00
  -10   18    6     -4.54      0.00
   -8   18    6     -3.60      0.00
   -6   18    6     -0.74      0.00
   -4   18    6     15.83      0.00
   -2   18    6      6.94      0.00
    0   18    6    -15.14      0.00
    2   18    6      8.98      0.00
    4   18    6     34.90      0.00
    6   18    6     -3.44      0.00
    8   18    6      8.86      0.00
   10   18    6     -4.89      0.00
   12   18    6     -1.35      0.00
   14   18    6      5.75      0.00
   16   18    6     -5.85      0.00
  -21   19    6      0.71      0.00
  -19   19    6     -3.27      0.00
  -17   19    6      0.62      0.00
  -15   19    6      7.92      0.00
  -13   19    6     -3.45      0.00
  -11   19    6     15.20      0.00
   -9   19    6    -20.41      0.00
   -7   19    6      2.65      0.00
   -5   19    6    -34.36      0.00
   -3   19    6     -7.53      0.00
   -1   19    6    -12.18      0.00
    1   19    6      7.69      0.00
    3   19    6    -11.95      0.00
    5   19    6    -11.57      0.00
    7   19    6     -6.66      0.00
    9   19    6    -15.73      0.00
   11   19    6      3.36      0.00
   13   19    6     -2.23      0.00
   15   19    6      5.09      0.00
  -20   20    6      2.15      0.00
  -18   20    6      7.54      0.00
  -16   20    6     -0.40      0.00
  -14   20    6      0.23      0.00
  -12   20    6      7.99      0.00
  -10   20    6     -1.25      0.00
   -8   20    6      3.64      0.00
   -6   20    6    -11.27      0.00
   -4   20    6      9.56      0.00
   -2   20    6     -9.93      0.00
    0   20    6     40.31      0.00
    2   20    6    -23.98      0.00
    4   20    6      1.50      0.00
    6   20    6     -9.81      0.00
    8   20    6      9.98      0.00
   10   20    6      5.94      0.00
   12   20    6      0.88      0.00
   14   20    6      3.08      0.00
   16   20    6      0.38      0.00
  -19   21    6     -1.83      0.00
  -17   21    6      0.63      0.00
  -15   21    6      5.94      0.00
  -13   21    6     -5.11      0.00
  -11   21    6     12.48      0.00
   -9   21    6     -4.79      0.00
   -7   21    6     27.65      0.00
   -5   21    6      6.85      0.00
   -3   21    6     16.76      0.00
   -1   21    6    -21.36      0.00
    1   21    6      6.57      0.00
    3   21    6      2.38      0.00
    5   21    6     14.82      0.00
    7   21    6     20.77      0.00
    9   21    6      2.27      0.00
   11   21    6     15.64      0.00
   13   21    6      3.21      0.00
   15   21    6      5.58      0.00
  -18   22    6      3.02      0.00
  -16   22    6     -4.20      0.00
  -14   22    6      8.68      0.00
  -12   22    6     -3.17      0.00
  -10   22    6      3.88      0.00
   -8   22    6     13.01      0.00
   -6   22    6      0.71      0.00
   -4   22    6     26.38      0.00
   -2   22    6    -10.85      0.00
    0   22    6     13.58      0.00
    2   22    6      2.09      0.00
    4   22    6     32.35      0.00
    6   22    6     -2.20      0.00
    8   22    6      3.66      0.00
   10   22    6     -1.04      0.00
   12   22    6      1.43      0.00
   14   22    6      2.30      0.00
  -17   23    6      3.84      0.00
  -15   23    6      2.02      0.00
  -13   23    6      0.04      0.00
  -11   23    6     11.99      0.00
   -9   23    6    -10.48      0.00
   -7   23    6      7.80      0.00
   -5   23    6    -27.79      0.00
   -3   23    6     15.90      0.00
   -1   23    6     18.19      0.00
    1   23    6     -0.35      0.00
    3   23    6      4.09      0.00
    5   23    6    -21.63      0.00
    7   23    6      5.73      0.00
    9   23    6     -4.24      0.00
   11   23    6     -0.53      0.00
   13   23    6     -9.18      0.00
  -16   24    6     -6.20      0.00
  -14   24    6     -0.14      0.00
  -12   24    6    -11.67      0.00
  -10   24    6      1.68      0.00
   -8   24    6    -10.48      0.00
   -6   24    6     -3.24      0.00
   -4   24    6     -2.83      0.00
   -2   24    6    -15.07      0.00
    0   24    6      7.85      0.00
    2   24    6    -15.07      0.00
    4   24    6     -6.51      0.00
    6   24    6     -9.02      0.00
    8   24    6     -7.66      0.00
   10   24    6     -8.10      0.00
   12   24    6     -3.88      0.00
  -15   25    6     -4.65      0.00
  -13   25    6     -3.72      0.00
  -11   25    6     -9.87      0.00
   -9   25    6     -4.02      0.00
   -7   25    6      4.31      0.00
   -5   25    6     -0.19      0.00
   -3   25    6      0.90      0.00
   -1   25    6    -27.84      0.00
    1   25    6     -2.27      0.00
    3   25    6     -7.21      0.00
    5   25    6     10.23      0.00
    7   25    6    -10.70      0.00
    9   25    6      2.21      0.00
   11   25    6     -1.18      0.00
  -14   26    6     -1.32      0.00
  -12   26    6      3.80      0.00
  -10   26    6     -4.24      0.00
   -8   26    6     -9.04      0.00
   -6   26    6     -9.21      0.00
   -4   26    6    -11.51      0.00
   -2   26    6     -0.87      0.00
    0   26    6     -8.11      0.00
    2   26    6     -8.62      0.00
    4   26    6     -6.69      0.00
    6   26    6      1.84      0.00
    8   26    6      2.12      0.00
   10   26    6      0.87      0.00
  -13   27    6      2.27      0.00
  -11   27    6      1.10      0.00
   -9   27    6      7.47      0.00
   -7   27    6      3.19      0.00
   -5   27    6      1.30      0.00
   -3   27    6      1.22      0.00
   -1   27    6      7.62      0.00
    1   27    6     15.68      0.00
    3   27    6     -1.24      0.00
    5   27    6      6.32      0.00
    7   27    6     -2.76      0.00
    9   27    6      4.76      0.00
  -12   28    6      1.45      0.00
  -10   28    6      4.64      0.00
   -8   28    6      0.92      0.00
   -6   28    6      8.21      0.00
   -4   28    6      3.19      0.00
   -2   28    6     12.10      0.00
    0   28    6     -2.61      0.00
    2   28    6     11.13      0.00
    4   28    6      0.92      0.00
    6   28    6      0.35      0.00
    8   28    6      0.78      0.00
   -9   29    6      2.38      0.00
   -7   29    6     -0.94      0.00
   -5   29    6      6.71      0.00
   -3   29    6      4.29      0.00
   -1   29    6     -0.39      0.00
    1   29    6      0.65      0.00
    3   29    6      0.16      0.00
    5   29    6      8.33      0.00
   -8   30    6      3.28      0.00
   -6   30    6     -0.01      0.00
   -4   30    6     -2.70      0.00
   -2   30    6     -0.28      0.00
    0   30    6     -1.97      0.00
    2   30    6     -1.62      0.00
    4   30    6     -2.31      0.00
  -25    1    7     -2.89      0.00
  -23    1    7     -1.67      0.00
  -21    1    7     -5.73      0.00
  -19    1    7     -5.33      0.00
  -17    1    7      5.77      0.00
  -15    1    7     12.39      0.00
  -13    1    7     24.11      0.00
  -11    1    7     29.15      0.00
   -9    1    7    105.86      0.00
   -7    1    7     18.95      0.00
   -5    1    7    -15.42      0.00
   -3    1    7   -118.41      0.00
   -1    1    7    -64.22      0.00
    1    1    7    127.14      0.00
    3    1    7     36.15      0.00
    5    1    7    -46.06      0.00
    7    1    7      0.53      0.00
    9    1    7     -6.48      0.00
   11    1    7      2.86      0.00
   13    1    7    -13.34      0.00
   15    1    7     -6.14      0.00
   17    1    7     -2.13      0.00
   19    1    7      2.67      0.00
   21    1    7     -3.45      0.00
  -26    2    7      2.08      0.00
  -24    2    7     -2.49      0.00
  -22    2    7     -0.05      0.00
  -20    2    7     -8.46      0.00
  -18    2    7    -16.53      0.00
  -16    2    7     -7.32      0.00
  -14    2    7    -11.84      0.00
  -12    2    7      1.25      0.00
  -10    2    7    -33.02      0.00
   -8    2    7    -23.61      0.00
   -6    2    7     -1.71      0.00
   -4    2    7     41.04      0.00
   -2    2    7    -24.65      0.00
    0    2    7    -21.67      0.00
    2    2    7    -85.30      0.00
    4    2    7     54.04      0.00
    6    2    7    -20.16      0.00
    8    2    7      3.41      0.00
   10    2    7    -13.74      0.00
   12    2    7    -14.92      0.00
   14    2    7      0.25      0.00
   16    2    7     -6.06      0.00
   18    2    7     -1.54      0.00
   20    2    7     -2.12      0.00
   22    2    7     -3.07      0.00
  -25    3    7      1.86      0.00
  -23    3    7     -2.41      0.00
  -21    3    7      1.35      0.00
  -19    3    7     12.83      0.00
  -17    3    7     -6.73      0.00
  -15    3    7      4.25      0.00
  -13    3    7    -30.64      0.00
  -11    3    7    -11.32      0.00
   -9    3    7    -60.21      0.00
   -7    3    7     20.49      0.00
   -5    3    7    -29.39      0.00
   -3    3    7    131.46      0.00
   -1    3    7    -11.53      0.00
    1    3    7    -77.66      0.00
    3    3    7    -30.58      0.00
    5    3    7    -85.24      0.00
    7    3    7     -7.61      0.00
    9    3    7    -55.53      0.00
   11    3    7     -8.15      0.00
   13    3    7    -18.27      0.00
   15    3    7     -7.46      0.00
   17    3    7     -7.90      0.00
   19    3    7     -9.66      0.00
   21    3    7      0.92      0.00
  -26    4    7      3.07      0.00
  -24    4    7     -4.85      0.00
  -22    4    7      3.87      0.00
  -20    4    7     -9.86      0.00
  -18    4    7      4.56      0.00
  -16    4    7    -19.05      0.00
  -14    4    7     -5.63      0.00
  -12    4    7    -13.24      0.00
  -10    4    7      6.17      0.00
   -8    4    7    -25.58      0.00
   -6    4    7    -29.44      0.00
   -4    4    7    -57.12      0.00
   -2    4    7    -46.54      0.00
    0    4    7     93.81      0.00
    2    4    7    -34.62      0.00
    4    4    7      9.13      0.00
    6    4    7     27.04      0.00
    8    4    7     15.98      0.00
   10    4    7     50.50      0.00
   12    4    7      7.54      0.00
   14    4    7     19.03      0.00
   16    4    7     -5.52      0.00
   18    4    7      5.28      0.00
   20    4    7     -3.68      0.00
   22    4    7      0.43      0.00
  -25    5    7     -1.06      0.00
  -23    5    7     -4.74      0.00
  -21    5    7     -2.73      0.00
  -19    5    7      0.72      0.00
  -17    5    7      7.33      0.00
  -15    5    7     13.85      0.00
  -13    5    7    -25.87      0.00
  -11    5    7      8.71      0.00
   -9    5    7    -42.95      0.00
   -7    5    7     -0.63      0.00
   -5    5    7    -76.02      0.00
   -3    5    7    -31.62      0.00
   -1    5    7   -106.34      0.00
    1    5    7     52.47      0.00
    3    5    7     27.00      0.00
    5    5    7     12.17      0.00
    7    5    7     21.05      0.00
    9    5    7    -17.97      0.00
   11    5    7     -0.46      0.00
   13    5    7     -4.31      0.00
   15    5    7     -2.89      0.00
   17    5    7      9.21      0.00
   19    5    7      0.54      0.00
   21    5    7      3.68      0.00
  -26    6    7      2.35      0.00
  -24    6    7      5.56      0.00
  -22    6    7      5.93      0.00
  -20    6    7      1.99      0.00
  -18    6    7     -5.37      0.00
  -16    6    7     -5.45      0.00
  -14    6    7     20.39      0.00
  -12    6    7     52.92      0.00
  -10    6    7     21.98      0.00
   -8    6    7     56.82      0.00
   -6    6    7     71.03      0.00
   -4    6    7     23.75      0.00
   -2    6    7     85.44      0.00
    0    6    7    -14.49      0.00
    2    6    7     -4.81      0.00
    4    6    7     62.56      0.00
    6    6    7      8.75      0.00
    8    6    7     -2.13      0.00
   10    6    7      9.70      0.00
   12    6    7     -7.52      0.00
   14    6    7     29.82      0.00
   16    6    7      0.62      0.00
   18    6    7     14.11      0.00
   20    6    7     -0.27      0.00
   22    6    7      1.31      0.00
  -25    7    7      2.10      0.00
  -23    7    7      4.45      0.00
  -21    7    7     14.07      0.00
  -19    7    7     20.63      0.00
  -17    7    7     16.07      0.00
  -15    7    7     26.41      0.00
  -13    7    7     12.71      0.00
  -11    7    7      7.36      0.00
   -9    7    7     60.73      0.00
   -7    7    7     -8.81      0.00
   -5    7    7     62.24      0.00
   -3    7    7     53.32      0.00
   -1    7    7     69.43      0.00
    1    7    7     57.10      0.00
    3    7    7    -12.43      0.00
    5    7    7    -18.50      0.00
    7    7    7     14.73      0.00
    9    7    7      9.99      0.00
   11    7    7     18.42      0.00
   13    7    7     -6.93      0.00
   15    7    7     -6.09      0.00
   17    7    7     -0.83      0.00
   19    7    7     -3.35      0.00
   21    7    7      4.24      0.00
  -24    8    7     -2.32      0.00
  -22    8    7     -4.64      0.00
  -20    8    7    -13.23      0.00
  -18    8    7     -2.37      0.00
  -16    8    7      0.87      0.00
  -14    8    7    -17.03      0.00
  -12    8    7      1.32      0.00
  -10    8    7    -32.02      0.00
   -8    8    7     34.65      0.00
   -6    8    7     39.58      0.00
   -4    8    7     45.23      0.00
   -2    8    7     -5.90      0.00
    0    8    7    -34.25      0.00
    2    8    7     38.46      0.00
    4    8    7    -42.75      0.00
    6    8    7      7.20      0.00
    8    8    7    -15.71      0.00
   10    8    7     22.82      0.00
   12    8    7    -11.27      0.00
   14    8    7     18.80      0.00
   16    8    7     -9.04      0.00
   18    8    7      8.17      0.00
   20    8    7     -3.20      0.00
  -25    9    7     -0.59      0.00
  -23    9    7     -3.23      0.00
  -21    9    7      3.42      0.00
  -19    9    7     -5.72      0.00
  -17    9    7     -6.16      0.00
  -15    9    7     -0.62      0.00
  -13    9    7    -25.00      0.00
  -11    9    7     -3.61      0.00
   -9    9    7    -32.69      0.00
   -7    9    7    -82.62      0.00
   -5    9    7    -24.57      0.00
   -3    9    7    -74.04      0.00
   -1    9    7      2.99      0.00
    1    9    7    -25.00      0.00
    3    9    7     37.16      0.00
    5    9    7     10.05      0.00
    7    9    7     25.92      0.00
    9    9    7    -18.95      0.00
   11    9    7     -9.87      0.00
   13    9    7     -7.49      0.00
   15    9    7     -7.84      0.00
   17    9    7      5.80      0.00
   19    9    7     -9.39      0.00
   21    9    7      5.45      0.00
  -24   10    7     -0.69      0.00
  -22   10    7     -7.28      0.00
  -20   10    7     -2.82      0.00
  -18   10    7     -8.44      0.00
  -16   10    7    -16.11      0.00
  -14   10    7     -9.37      0.00
  -12   10    7     28.28      0.00
  -10   10    7    -18.83      0.00
   -8   10    7     19.48      0.00
   -6   10    7    -68.94      0.00
   -4   10    7    -61.51      0.00
   -2   10    7      4.52      0.00
    0   10    7    -65.48      0.00
    2   10    7    -39.33      0.00
    4   10    7    -55.63      0.00
    6   10    7    -13.17      0.00
    8   10    7    -44.60      0.00
   10   10    7      6.06      0.00
   12   10    7    -20.08      0.00
   14   10    7     10.96      0.00
   16   10    7    -11.76      0.00
   18   10    7      1.52      0.00
   20   10    7     -1.56      0.00
  -23   11    7      3.83      0.00
  -21   11    7     -2.75      0.00
  -19   11    7      4.37      0.00
  -17   11    7     -0.93      0.00
  -15   11    7      2.21      0.00
  -13   11    7    -21.49      0.00
  -11   11    7    -22.81      0.00
   -9   11    7    -32.09      0.00
   -7   11    7    -15.06      0.00
   -5   11    7     10.67      0.00
   -3   11    7    -32.22      0.00
   -1   11    7      8.45      0.00
    1   11    7     -2.67      0.00
    3   11    7      7.18      0.00
    5   11    7     26.06      0.00
    7   11    7     14.24      0.00
    9   11    7     10.87      0.00
   11   11    7      0.22      0.00
   13   11    7     -1.69      0.00
   15   11    7     -5.45      0.00
   17   11    7     -1.79      0.00
   19   11    7     -4.08      0.00
   21   11    7     -2.60      0.00
  -24   12    7      0.13      0.00
  -22   12    7      1.30      0.00
  -20   12    7     -5.10      0.00
  -18   12    7     -7.40      0.00
  -16   12    7      6.93      0.00
  -14   12    7    -15.67      0.00
  -12   12    7     -0.78      0.00
  -10   12    7     -3.95      0.00
   -8   12    7     51.20      0.00
   -6   12    7     48.25      0.00
   -4   12    7     40.65      0.00
   -2   12    7    -17.42      0.00
    0   12    7     15.59      0.00
    2   12    7      2.10      0.00
    4   12    7    -27.31      0.00
    6   12    7    -33.22      0.00
    8   12    7    -28.01      0.00
   10   12    7      5.01      0.00
   12   12    7     -3.32      0.00
   14   12    7      5.23      0.00
   16   12    7     -1.64      0.00
   18   12    7      3.37      0.00
   20   12    7      2.77      0.00
  -23   13    7      1.25      0.00
  -21   13    7      0.15      0.00
  -19   13    7     20.22      0.00
  -17   13    7      0.90      0.00
  -15   13    7     26.01      0.00
  -13   13    7     25.61      0.00
  -11   13    7     23.96      0.00
   -9   13    7      1.57      0.00
   -7   13    7    -15.28      0.00
   -5   13    7    -14.92      0.00
   -3   13    7     53.50      0.00
   -1   13    7     13.94      0.00
    1   13    7     14.85      0.00
    3   13    7     16.71      0.00
    5   13    7      4.65      0.00
    7   13    7     26.42      0.00
    9   13    7     15.18      0.00
   11   13    7     -4.80      0.00
   13   13    7      0.32      0.00
   15   13    7     -8.94      0.00
   17   13    7      0.51      0.00
   19   13    7     -6.87      0.00
  -24   14    7     -0.76      0.00
  -22   14    7      2.26      0.00
  -20   14    7     -0.54      0.00
  -18   14    7     -5.96      0.00
  -16   14    7     -1.80      0.00
  -14   14    7     -6.96      0.00
  -12   14    7     12.29      0.00
  -10   14    7      6.97      0.00
   -8   14    7     22.18      0.00
   -6   14    7    -16.99      0.00
   -4   14    7     17.17      0.00
   -2   14    7    -11.59      0.00
    0   14    7    -10.19      0.00
    2   14    7     22.77      0.00
    4   14    7     -7.77      0.00
    6   14    7     37.89      0.00
    8   14    7    -22.86      0.00
   10   14    7      7.96      0.00
   12   14    7     -6.96      0.00
   14   14    7      8.91      0.00
   16   14    7      9.85      0.00
   18   14    7      2.54      0.00
   20   14    7      6.69      0.00
  -23   15    7      2.87      0.00
  -21   15    7     -6.40      0.00
  -19   15    7      0.45      0.00
  -17   15    7     -0.17      0.00
  -15   15    7      1.86      0.00
  -13   15    7    -10.77      0.00
  -11   15    7      4.27      0.00
   -9   15    7     -5.21      0.00
   -7   15    7     12.88      0.00
   -5   15    7     19.04      0.00
   -3   15    7    -22.79      0.00
   -1   15    7     36.55      0.00
    1   15    7    -17.77      0.00
    3   15    7     43.47      0.00
    5   15    7     -8.23      0.00
    7   15    7     11.49      0.00
    9   15    7     10.56      0.00
   11   15    7     -2.08      0.00
   13   15    7     15.33      0.00
   15   15    7      0.53      0.00
   17   15    7      3.71      0.00
   19   15    7      4.24      0.00
  -22   16    7      3.47      0.00
  -20   16    7      6.70      0.00
  -18   16    7     -5.37      0.00
  -16   16    7     11.67      0.00
  -14   16    7    -19.85      0.00
  -12   16    7      3.40      0.00
  -10   16    7    -25.89      0.00
   -8   16    7     -0.13      0.00
   -6   16    7    -22.14      0.00
   -4   16    7      1.10      0.00
   -2   16    7    -17.30      0.00
    0   16    7     16.29      0.00
    2   16    7    -13.09      0.00
    4   16    7    -24.64      0.00
    6   16    7     12.14      0.00
    8   16    7    -10.77      0.00
   10   16    7     24.23      0.00
   12   16    7      7.20      0.00
   14   16    7     -0.63      0.00
   16   16    7     -0.19      0.00
   18   16    7     -2.90      0.00
  -21   17    7     -4.15      0.00
  -19   17    7      9.87      0.00
  -17   17    7     -1.10      0.00
  -15   17    7      3.40      0.00
  -13   17    7     22.55      0.00
  -11   17    7    -12.57      0.00
   -9   17    7     18.30      0.00
   -7   17    7     -5.21      0.00
   -5   17    7      9.13      0.00
   -3   17    7      2.26      0.00
   -1   17    7     10.12      0.00
    1   17    7    -24.50      0.00
    3   17    7     -2.79      0.00
    5   17    7      3.35      0.00
    7   17    7    -13.95      0.00
    9   17    7      5.19      0.00
   11   17    7    -17.03      0.00
   13   17    7      1.51      0.00
   15   17    7     -4.70      0.00
   17   17    7     -0.56      0.00
  -22   18    7      1.13      0.00
  -20   18    7     -5.62      0.00
  -18   18    7     -6.95      0.00
  -16   18    7     -0.04      0.00
  -14   18    7     -2.05      0.00
  -12   18    7      4.92      0.00
  -10   18    7     -4.28      0.00
   -8   18    7     -1.71      0.00
   -6   18    7     -4.59      0.00
   -4   18    7     -2.87      0.00
   -2   18    7      1.71      0.00
    0   18    7    -23.01      0.00
    2   18    7     34.00      0.00
    4   18    7    -11.50      0.00
    6   18    7     31.31      0.00
    8   18    7    -15.44      0.00
   10   18    7     -0.47      0.00
   12   18    7     -7.71      0.00
   14   18    7     -2.12      0.00
   16   18    7     -0.53      0.00
  -21   19    7     -1.87      0.00
  -19   19    7     -2.67      0.00
  -17   19    7     -2.99      0.00
  -15   19    7     -6.00      0.00
  -13   19    7    -17.72      0.00
  -11   19    7     10.85      0.00
   -9   19    7      8.40      0.00
   -7   19    7     -0.45      0.00
   -5   19    7      3.10      0.00
   -3   19    7    -28.71      0.00
   -1   19    7      5.75      0.00
    1   19    7      5.61      0.00
    3   19    7     -2.94      0.00
    5   19    7    -23.56      0.00
    7   19    7    -20.63      0.00
    9   19    7     -0.83      0.00
   11   19    7    -11.93      0.00
   13   19    7     -3.04      0.00
   15   19    7     -6.20      0.00
  -20   20    7      3.31      0.00
  -18   20    7      0.53      0.00
  -16   20    7     -0.42      0.00
  -14   20    7      1.80      0.00
  -12   20    7     -6.61      0.00
  -10   20    7    -18.89      0.00
   -8   20    7     -4.42      0.00
   -6   20    7    -17.61      0.00
   -4   20    7     20.61      0.00
   -2   20    7      7.21      0.00
    0   20    7    -20.83      0.00
    2   20    7     -0.54      0.00
    4   20    7    -25.00      0.00
    6   20    7      9.03      0.00
    8   20    7     -3.82      0.00
   10   20    7      1.66      0.00
   12   20    7      0.59      0.00
   14   20    7     -0.74      0.00
  -19   21    7     -1.42      0.00
  -17   21    7      0.86      0.00
  -15   21    7     -1.40      0.00
  -13   21    7      2.04      0.00
  -11   21    7     -1.53      0.00
   -9   21    7    -11.34      0.00
   -7   21    7      3.52      0.00
   -5   21    7     -8.53      0.00
   -3   21    7     -5.37      0.00
   -1   21    7      3.08      0.00
    1   21    7    -28.87      0.00
    3   21    7     -1.16      0.00
    5   21    7      9.53      0.00
    7   21    7     -2.59      0.00
    9   21    7      2.49      0.00
   11   21    7      1.35      0.00
   13   21    7      4.49      0.00
   15   21    7      7.54      0.00
  -18   22    7      1.21      0.00
  -16   22    7     -0.43      0.00
  -14   22    7      6.07      0.00
  -12   22    7      2.31      0.00
  -10   22    7     11.52      0.00
   -8   22    7     11.29      0.00
   -6   22    7     -0.03      0.00
   -4   22    7      4.40      0.00
   -2   22    7    -10.74      0.00
    0   22    7     34.35      0.00
    2   22    7     10.23      0.00
    4   22    7     21.70      0.00
    6   22    7      0.83      0.00
    8   22    7     10.52      0.00
   10   22    7      5.26      0.00
   12   22    7      3.89      0.00
   14   22    7     -2.56      0.00
  -17   23    7      2.10      0.00
  -15   23    7      4.92      0.00
  -13   23    7     -2.83      0.00
  -11   23    7     12.08      0.00
   -9   23    7     -4.97      0.00
   -7   23    7      8.34      0.00
   -5   23    7     -8.23      0.00
   -3   23    7     -3.30      0.00
   -1   23    7     -1.22      0.00
    1   23    7     12.14      0.00
    3   23    7      7.19      0.00
    5   23    7     -3.17      0.00
    7   23    7      9.09      0.00
    9   23    7     -1.44      0.00
   11   23    7      9.16      0.00
   13   23    7      0.71      0.00
  -16   24    7     -2.18      0.00
  -14   24    7      7.06      0.00
  -12   24    7     -2.68      0.00
  -10   24    7      0.92      0.00
   -8   24    7      8.42      0.00
   -6   24    7      7.26      0.00
   -4   24    7     38.56      0.00
   -2   24    7      8.25      0.00
    0   24    7      0.90      0.00
    2   24    7     -8.20      0.00
    4   24    7      4.77      0.00
    6   24    7      0.68      0.00
    8   24    7     -0.13      0.00
   10   24    7     -5.70      0.00
   12   24    7     -4.82      0.00
  -15   25    7      2.64      0.00
  -13   25    7     -4.76      0.00
  -11   25    7     12.49      0.00
   -9   25    7    -10.03      0.00
   -7   25    7     11.39      0.00
   -5   25    7    -18.58      0.00
   -3   25    7      9.42      0.00
   -1   25    7     -2.45      0.00
    1   25    7     -5.66      0.00
    3   25    7     -2.39      0.00
    5   25    7    -11.68      0.00
    7   25    7      6.39      0.00
    9   25    7     -6.35      0.00
   11   25    7      5.71      0.00
  -14   26    7     -0.71      0.00
  -12   26    7     -9.73      0.00
  -10   26    7      2.36      0.00
   -8   26    7     -6.52      0.00
   -6   26    7     -6.03      0.00
   -4   26    7     -9.09      0.00
   -2   26    7    -23.08      0.00
    0   26    7     15.78      0.00
    2   26    7     -9.08      0.00
    4   26    7      8.20      0.00
    6   26    7    -14.02      0.00
    8   26    7      0.99      0.00
   10   26    7     -1.10      0.00
  -13   27    7     -1.06      0.00
  -11   27    7     -7.56      0.00
   -9   27    7     -6.10      0.00
   -7   27    7     -3.83      0.00
   -5   27    7     -7.44      0.00
   -3   27    7      0.33      0.00
   -1   27    7    -12.93      0.00
    1   27    7     -4.97      0.00
    3   27    7      0.75      0.00
    5   27    7      2.04      0.00
    7   27    7      2.90      0.00
    9   27    7     -4.38      0.00
  -10   28    7     -0.10      0.00
   -8   28    7     -4.53      0.00
   -6   28    7     -0.63      0.00
   -4   28    7     -1.31      0.00
   -2   28    7      3.61      0.00
    0   28    7      0.22      0.00
    2   28    7     -7.70      0.00
    4   28    7     -0.43      0.00
    8   28    7     -1.23      0.00
   -9   29    7      4.10      0.00
   -7   29    7      3.86      0.00
   -5   29    7      5.42      0.00
   -3   29    7      6.10      0.00
   -1   29    7      1.86      0.00
    1   29    7      3.39      0.00
    3   29    7     -1.01      0.00
    7   29    7      4.28      0.00
   -8   30    7      0.57      0.00
   -6   30    7      5.23      0.00
   -4   30    7     -1.16      0.00
   -2   30    7      2.22      0.00
    0   30    7      0.40      0.00
    2   30    7     10.52      0.00
    4   30    7     -0.64      0.00
  -24    0    8      8.01      0.00
  -22    0    8      3.48      0.00
  -20    0    8     14.13      0.00
  -18    0    8    -20.03      0.00
  -16    0    8     -4.16      0.00
  -14    0    8    -42.40      0.00
  -12    0    8     22.05      0.00
  -10    0    8    -24.53      0.00
   -8    0    8    156.58      0.00
   -6    0    8     20.95      0.00
   -4    0    8    120.78      0.00
   -2    0    8     10.46      0.00
    0    0    8    -77.18      0.00
    2    0    8     88.61      0.00
    4    0    8    -43.19      0.00
    6    0    8     14.17      0.00
    8    0    8    -14.41      0.00
   10    0    8    -11.35      0.00
   12    0    8     12.99      0.00
   14    0    8     -7.55      0.00
   16    0    8      7.64      0.00
   18    0    8      5.75      0.00
   20    0    8     10.83      0.00
  -25    1    8     -3.50      0.00
  -23    1    8     -0.19      0.00
  -21    1    8     -0.26      0.00
  -19    1    8      3.39      0.00
  -17    1    8     13.00      0.00
  -15    1    8     16.73      0.00
  -13    1    8     14.34      0.00
  -11    1    8     -8.66      0.00
   -9    1    8    -45.13      0.00
   -7    1    8    -43.91      0.00
   -5    1    8    -10.55      0.00
   -3    1    8    -24.05      0.00
   -1    1    8     12.84      0.00
    1    1    8     45.26      0.00
    3    1    8     27.11      0.00
    5    1    8    107.93      0.00
    7    1    8    -14.36      0.00
    9    1    8     56.42      0.00
   11    1    8     10.35      0.00
   13    1    8     18.30      0.00
   15    1    8      9.91      0.00
   17    1    8     -1.62      0.00
   19    1    8      0.53      0.00
   21    1    8     -2.05      0.00
  -26    2    8     -1.63      0.00
  -24    2    8      6.21      0.00
  -22    2    8     -4.53      0.00
  -20    2    8     11.90      0.00
  -18    2    8     -2.45      0.00
  -16    2    8      5.42      0.00
  -14    2    8     -6.01      0.00
  -12    2    8     21.22      0.00
  -10    2    8     32.99      0.00
   -8    2    8     -6.09      0.00
   -6    2    8     -1.76      0.00
   -4    2    8    -27.71      0.00
   -2    2    8    110.23      0.00
    0    2    8     29.37      0.00
    2    2    8    -52.75      0.00
    4    2    8    -73.31      0.00
    6    2    8     -2.57      0.00
    8    2    8      2.18      0.00
   10    2    8    -29.23      0.00
   12    2    8     -3.21      0.00
   14    2    8    -12.64      0.00
   16    2    8      7.39      0.00
   18    2    8     -0.33      0.00
   20    2    8     -0.95      0.00
  -25    3    8     -5.89      0.00
  -23    3    8     -5.38      0.00
  -21    3    8     -6.13      0.00
  -19    3    8    -11.72      0.00
  -17    3    8     10.39      0.00
  -15    3    8     -6.04      0.00
  -13    3    8     13.67      0.00
  -11    3    8    -31.65      0.00
   -9    3    8     34.89      0.00
   -7    3    8     -3.99      0.00
   -5    3    8    -12.35      0.00
   -3    3    8    -26.59      0.00
   -1    3    8   -131.09      0.00
    1    3    8     81.20      0.00
    3    3    8    -30.61      0.00
    5    3    8    -16.60      0.00
    7    3    8    -40.28      0.00
    9    3    8      5.03      0.00
   11    3    8     -2.67      0.00
   13    3    8     -1.65      0.00
   15    3    8     -2.02      0.00
   17    3    8     -8.36      0.00
   19    3    8      3.07      0.00
   21    3    8     -6.58      0.00
  -26    4    8      8.00      0.00
  -24    4    8      5.97      0.00
  -22    4    8      2.24      0.00
  -20    4    8      3.02      0.00
  -18    4    8    -12.41      0.00
  -16    4    8      6.35      0.00
  -14    4    8     -8.14      0.00
  -12    4    8     -8.62      0.00
  -10    4    8     12.68      0.00
   -8    4    8     -2.05      0.00
   -6    4    8     54.04      0.00
   -4    4    8     11.39      0.00
    0    4    8    -79.34      0.00
    2    4    8     -7.10      0.00
    4    4    8    -20.34      0.00
    6    4    8    -17.88      0.00
    8    4    8     -8.88      0.00
   10    4    8    -30.76      0.00
   12    4    8    -12.21      0.00
   14    4    8    -18.79      0.00
   16    4    8     -4.39      0.00
   18    4    8     -6.98      0.00
   20    4    8      2.38      0.00
  -25    5    8     -6.78      0.00
  -23    5    8     -7.49      0.00
  -21    5    8     -5.05      0.00
  -19    5    8     -3.55      0.00
  -17    5    8    -14.39      0.00
  -15    5    8    -18.20      0.00
  -13    5    8     -8.44      0.00
  -11    5    8      1.25      0.00
   -9    5    8    -51.55      0.00
   -7    5    8    -12.61      0.00
   -5    5    8    -84.87      0.00
   -3    5    8     46.63      0.00
   -1    5    8    -34.13      0.00
    1    5    8      5.93      0.00
    3    5    8    -59.61      0.00
    5    5    8     51.82      0.00
    7    5    8    -12.70      0.00
    9    5    8     11.46      0.00
   11    5    8     -2.55      0.00
   13    5    8      0.10      0.00
   15    5    8      3.01      0.00
   17    5    8     -5.97      0.00
   19    5    8     -1.37      0.00
   21    5    8     -5.13      0.00
  -26    6    8     -2.99      0.00
  -24    6    8     -1.22      0.00
  -22    6    8     -4.29      0.00
  -20    6    8      1.56      0.00
  -18    6    8      4.35      0.00
  -16    6    8     -8.08      0.00
  -14    6    8    -18.90      0.00
  -12    6    8    -22.28      0.00
  -10    6    8    -49.24      0.00
   -8    6    8    -40.31      0.00
   -6    6    8    -41.16      0.00
   -4    6    8    -41.71      0.00
   -2    6    8     -1.67      0.00
    0    6    8     90.48      0.00
    2    6    8    -15.99      0.00
    4    6    8     68.19      0.00
    6    6    8     -9.12      0.00
    8    6    8     15.44      0.00
   10    6    8     -2.33      0.00
   12    6    8     15.49      0.00
   14    6    8     -1.27      0.00
   16    6    8      8.45      0.00
   18    6    8     -1.99      0.00
   20    6    8      2.49      0.00
  -25    7    8      6.93      0.00
  -23    7    8      1.89      0.00
  -21    7    8      6.56      0.00
  -19    7    8    -10.05      0.00
  -17    7    8      2.64      0.00
  -15    7    8      5.78      0.00
  -13    7    8     22.71      0.00
  -11    7    8     11.32      0.00
   -9    7    8     38.40      0.00
   -7    7    8     56.06      0.00
   -5    7    8    -16.42      0.00
   -3    7    8     98.34      0.00
   -1    7    8   -101.33      0.00
    1    7    8     51.63      0.00
    3    7    8    -40.65      0.00
    5    7    8    -43.46      0.00
    7    7    8    -14.10      0.00
    9    7    8     -2.35      0.00
   11    7    8     15.36      0.00
   13    7    8      4.54      0.00
   15    7    8      4.40      0.00
   17    7    8     -2.01      0.00
   19    7    8      4.73      0.00
   21    7    8     -2.27      0.00
  -26    8    8     -2.25      0.00
  -24    8    8      4.49      0.00
  -22    8    8      1.36      0.00
  -20    8    8     13.06      0.00
  -18    8    8      9.70      0.00
  -16    8    8     30.80      0.00
  -14    8    8     27.36      0.00
  -12    8    8      4.41      0.00
  -10    8    8     38.49      0.00
   -8    8    8    -12.73      0.00
   -6    8    8     56.72      0.00
   -4    8    8     14.15      0.00
   -2    8    8      8.12      0.00
    0    8    8      7.73      0.00
    2    8    8    -10.62      0.00
    4    8    8     73.18      0.00
    6    8    8     18.00      0.00
    8    8    8     38.01      0.00
   10    8    8     -5.46      0.00
   12    8    8     -8.88      0.00
   14    8    8     -2.77      0.00
   16    8    8     -2.35      0.00
   18    8    8      6.97      0.00
   20    8    8     -2.67      0.00
  -25    9    8      1.52      0.00
  -23    9    8     -0.26      0.00
  -21    9    8      3.94      0.00
  -19    9    8     -2.88      0.00
  -17    9    8     -0.61      0.00
  -15    9    8    -28.58      0.00
  -13    9    8      5.39      0.00
  -11    9    8     10.59      0.00
   -9    9    8     40.39      0.00
   -7    9    8     23.11      0.00
   -5    9    8     -8.09      0.00
   -3    9    8      0.90      0.00
   -1    9    8     25.48      0.00
    1    9    8     51.33      0.00
    3    9    8    -31.85      0.00
    5    9    8     -4.96      0.00
    7    9    8     -4.95      0.00
    9    9    8     -9.91      0.00
   11    9    8      9.21      0.00
   13    9    8     -0.77      0.00
   15    9    8     12.05      0.00
   17    9    8      0.82      0.00
   19    9    8      1.96      0.00
   21    9    8      3.53      0.00
  -24   10    8     -0.23      0.00
  -22   10    8     -4.95      0.00
  -20   10    8      1.80      0.00
  -18   10    8      5.66      0.00
  -16   10    8     12.82      0.00
  -14   10    8     18.67      0.00
  -12   10    8     14.39      0.00
  -10   10    8      9.70      0.00
   -8   10    8      2.00      0.00
   -6   10    8     17.32      0.00
   -4   10    8     19.53      0.00
   -2   10    8     17.19      0.00
    0   10    8    -13.55      0.00
    2   10    8     21.63      0.00
    4   10    8    -10.66      0.00
    6   10    8     22.84      0.00
    8   10    8     -2.58      0.00
   10   10    8     10.34      0.00
   12   10    8      1.58      0.00
   14   10    8      7.62      0.00
   16   10    8     -1.17      0.00
   18   10    8      2.54      0.00
   20   10    8      1.49      0.00
  -25   11    8     -0.25      0.00
  -23   11    8     -2.26      0.00
  -21   11    8      8.63      0.00
  -19   11    8    -13.62      0.00
  -17   11    8      3.10      0.00
  -15   11    8    -12.29      0.00
  -13   11    8    -14.98      0.00
  -11   11    8    -55.17      0.00
   -9   11    8    -61.14      0.00
   -7   11    8    -52.89      0.00
   -5   11    8      5.60      0.00
   -3   11    8     -5.65      0.00
   -1   11    8    -22.66      0.00
    1   11    8    -10.32      0.00
    3   11    8     -0.59      0.00
    5   11    8      5.11      0.00
    7   11    8    -13.19      0.00
    9   11    8     -8.91      0.00
   11   11    8      0.50      0.00
   13   11    8     -6.29      0.00
   15   11    8     -2.70      0.00
   17   11    8     -6.74      0.00
   19   11    8     -0.53      0.00
  -24   12    8      2.22      0.00
  -22   12    8    -10.29      0.00
  -20   12    8     -5.24      0.00
  -18   12    8     -9.81      0.00
  -16   12    8    -22.18      0.00
  -14   12    8     -8.23      0.00
  -12   12    8      2.23      0.00
  -10   12    8     23.48      0.00
   -8   12    8     17.02      0.00
   -6   12    8    -25.57      0.00
   -4   12    8    -61.00      0.00
   -2   12    8      3.40      0.00
    0   12    8    -31.31      0.00
    2   12    8     -4.77      0.00
    4   12    8     -6.91      0.00
    6   12    8    -10.11      0.00
    8   12    8      2.45      0.00
   10   12    8      2.57      0.00
   12   12    8     -2.97      0.00
   14   12    8      5.28      0.00
   16   12    8     -5.75      0.00
   18   12    8      4.36      0.00
   20   12    8     -3.82      0.00
  -23   13    8     -0.30      0.00
  -21   13    8      3.01      0.00
  -19   13    8     -3.09      0.00
  -17   13    8      7.47      0.00
  -15   13    8    -15.73      0.00
  -13   13    8     -2.31      0.00
  -11   13    8    -17.27      0.00
   -9   13    8     -6.82      0.00
   -7   13    8     -0.68      0.00
   -5   13    8    -14.54      0.00
   -3   13    8    -11.19      0.00
   -1   13    8     17.94      0.00
    1   13    8     -7.68      0.00
    3   13    8     -4.77      0.00
    5   13    8     -9.41      0.00
    7   13    8      3.33      0.00
    9   13    8    -11.22      0.00
   11   13    8      2.24      0.00
   13   13    8    -15.46      0.00
   15   13    8     -1.61      0.00
   17   13    8     -3.26      0.00
   19   13    8     -2.25      0.00
  -24   14    8      0.53      0.00
  -22   14    8      2.29      0.00
  -20   14    8      4.96      0.00
  -18   14    8      2.07      0.00
  -16   14    8     15.58      0.00
  -14   14    8     21.76      0.00
  -12   14    8      3.24      0.00
  -10   14    8     26.34      0.00
   -8   14    8     10.40      0.00
   -6   14    8     12.37      0.00
   -4   14    8     41.84      0.00
   -2   14    8    -40.09      0.00
    0   14    8     -8.71      0.00
    2   14    8    -32.27      0.00
    4   14    8     -4.16      0.00
    6   14    8    -12.85      0.00
    8   14    8      1.25      0.00
   10   14    8    -12.51      0.00
   12   14    8    -12.14      0.00
   14   14    8     -1.54      0.00
   16   14    8     -3.36      0.00
   18   14    8     -3.68      0.00
  -23   15    8     -1.39      0.00
  -21   15    8     -0.02      0.00
  -19   15    8      1.59      0.00
  -17   15    8     -1.92      0.00
  -15   15    8      5.14      0.00
  -13   15    8     -9.58      0.00
  -11   15    8     -7.36      0.00
   -9   15    8    -21.64      0.00
   -7   15    8      5.64      0.00
   -5   15    8      7.16      0.00
   -3   15    8     21.61      0.00
   -1   15    8      4.43      0.00
    1   15    8     51.64      0.00
    3   15    8     13.36      0.00
    5   15    8     -1.24      0.00
    7   15    8     -5.82      0.00
    9   15    8    -10.02      0.00
   11   15    8      9.29      0.00
   13   15    8      7.18      0.00
   15   15    8      1.58      0.00
   17   15    8      0.66      0.00
   19   15    8      3.33      0.00
  -22   16    8     -0.03      0.00
  -20   16    8     -5.34      0.00
  -18   16    8      3.44      0.00
  -16   16    8     -7.63      0.00
  -14   16    8     -4.16      0.00
  -12   16    8     22.78      0.00
  -10   16    8     11.02      0.00
   -8   16    8      6.64      0.00
   -6   16    8     -7.05      0.00
   -4   16    8    -15.96      0.00
   -2   16    8     15.57      0.00
    0   16    8     -1.96      0.00
    2   16    8    -14.97      0.00
    4   16    8     -5.90      0.00
    6   16    8     15.38      0.00
    8   16    8      5.83      0.00
   10   16    8     17.01      0.00
   12   16    8      5.48      0.00
   14   16    8      8.85      0.00
   16   16    8      8.23      0.00
   18   16    8      2.96      0.00
  -23   17    8      1.85      0.00
  -21   17    8      1.92      0.00
  -19   17    8      1.21      0.00
  -17   17    8      1.10      0.00
  -15   17    8     -4.14      0.00
  -13   17    8      8.67      0.00
  -11   17    8    -14.51      0.00
   -9   17    8     10.58      0.00
   -7   17    8      1.93      0.00
   -5   17    8     17.46      0.00
   -3   17    8      2.05      0.00
   -1   17    8     16.61      0.00
    1   17    8    -13.30      0.00
    3   17    8     33.32      0.00
    5   17    8      9.40      0.00
    7   17    8     20.54      0.00
    9   17    8      3.06      0.00
   11   17    8     -5.34      0.00
   13   17    8     -0.98      0.00
   15   17    8     -4.15      0.00
   17   17    8     -0.85      0.00
  -22   18    8      3.54      0.00
  -20   18    8      1.29      0.00
  -18   18    8      0.00      0.00
  -16   18    8     10.85      0.00
  -14   18    8      1.26      0.00
  -12   18    8     -8.31      0.00
  -10   18    8      8.36      0.00
   -8   18    8     -2.71      0.00
   -6   18    8     -0.45      0.00
   -4   18    8     -4.73      0.00
   -2   18    8    -10.91      0.00
    0   18    8      0.93      0.00
    2   18    8     12.24      0.00
    4   18    8      7.76      0.00
    6   18    8      7.35      0.00
    8   18    8     -1.10      0.00
   10   18    8     17.32      0.00
   12   18    8      4.27      0.00
   14   18    8      3.64      0.00
   16   18    8      2.00      0.00
  -19   19    8      7.77      0.00
  -17   19    8     -5.61      0.00
  -15   19    8      3.13      0.00
  -13   19    8      5.48      0.00
  -11   19    8     -5.70      0.00
   -9   19    8     12.91      0.00
   -7   19    8     -6.41      0.00
   -5   19    8     17.29      0.00
   -3   19    8     -1.82      0.00
   -1   19    8     21.70      0.00
    1   19    8     -3.17      0.00
    3   19    8      4.87      0.00
    5   19    8    -21.56      0.00
    7   19    8    -11.32      0.00
    9   19    8     -2.29      0.00
   11   19    8     -8.40      0.00
   13   19    8      5.52      0.00
   15   19    8     -4.97      0.00
  -20   20    8     -4.16      0.00
  -18   20    8     -1.63      0.00
  -16   20    8      1.72      0.00
  -14   20    8    -15.25      0.00
  -12   20    8     16.72      0.00
  -10   20    8    -22.87      0.00
   -8   20    8     -4.03      0.00
   -6   20    8    -15.43      0.00
   -4   20    8     -7.38      0.00
   -2   20    8      5.28      0.00
    0   20    8    -12.38      0.00
    2   20    8    -12.66      0.00
    4   20    8    -28.23      0.00
    6   20    8     18.09      0.00
    8   20    8    -19.38      0.00
   10   20    8     -2.09      0.00
   12   20    8    -13.42      0.00
   14   20    8     -4.16      0.00
  -19   21    8     -0.19      0.00
  -17   21    8     -8.45      0.00
  -15   21    8      0.35      0.00
  -13   21    8     -3.94      0.00
  -11   21    8     -3.26      0.00
   -9   21    8     15.24      0.00
   -7   21    8    -14.20      0.00
   -5   21    8     24.13      0.00
   -3   21    8    -37.84      0.00
   -1   21    8     -1.86      0.00
    1   21    8    -18.29      0.00
    3   21    8      3.76      0.00
    5   21    8     -7.07      0.00
    7   21    8    -10.70      0.00
    9   21    8     -0.06      0.00
   11   21    8     -9.42      0.00
   13   21    8      3.60      0.00
  -18   22    8      0.01      0.00
  -16   22    8      2.33      0.00
  -14   22    8     -4.96      0.00
  -12   22    8     -2.47      0.00
  -10   22    8    -10.01      0.00
   -8   22    8     13.04      0.00
   -6   22    8    -15.79      0.00
   -4   22    8      5.62      0.00
   -2   22    8     -6.85      0.00
    0   22    8    -18.62      0.00
    2   22    8     27.15      0.00
    4   22    8     -8.24      0.00
    6   22    8     13.12      0.00
    8   22    8     -2.58      0.00
   10   22    8      7.41      0.00
   12   22    8      1.12      0.00
  -17   23    8     -1.26      0.00
  -15   23    8      1.49      0.00
  -13   23    8      1.58      0.00
  -11   23    8     -2.60      0.00
   -9   23    8     -9.49      0.00
   -7   23    8    -17.72      0.00
   -5   23    8      7.12      0.00
   -3   23    8     -9.06      0.00
   -1   23    8     40.92      0.00
    1   23    8    -23.55      0.00
    3   23    8     10.12      0.00
    5   23    8     -5.95      0.00
    7   23    8      2.51      0.00
    9   23    8      5.62      0.00
   11   23    8     -1.53      0.00
   13   23    8      3.31      0.00
  -16   24    8      1.79      0.00
  -14   24    8      0.07      0.00
  -12   24    8      2.65      0.00
  -10   24    8      3.57      0.00
   -8   24    8      8.18      0.00
   -6   24    8      4.60      0.00
   -4   24    8     -0.40      0.00
   -2   24    8      8.77      0.00
    0   24    8      4.09      0.00
    2   24    8      7.98      0.00
    4   24    8     -2.98      0.00
    6   24    8      5.04      0.00
    8   24    8      1.39      0.00
   10   24    8      2.57      0.00
   12   24    8      1.40      0.00
  -15   25    8      3.12      0.00
  -13   25    8      0.46      0.00
  -11   25    8      3.72      0.00
   -9   25    8      8.49      0.00
   -7   25    8      7.17      0.00
   -5   25    8     12.24      0.00
   -3   25    8     -7.45      0.00
   -1   25    8     -6.38      0.00
    1   25    8      6.58      0.00
    3   25    8      3.98      0.00
    5   25    8      5.73      0.00
    7   25    8     -0.97      0.00
    9   25    8     -0.65      0.00
   11   25    8      2.88      0.00
  -14   26    8      3.35      0.00
  -12   26    8      7.07      0.00
  -10   26    8      3.02      0.00
   -8   26    8      6.64      0.00
   -6   26    8      2.26      0.00
   -4   26    8     12.85      0.00
   -2   26    8      1.95      0.00
    0   26    8     -1.71      0.00
    2   26    8      1.60      0.00
    4   26    8      1.35      0.00
    6   26    8      2.68      0.00
    8   26    8      2.06      0.00
   10   26    8     -2.54      0.00
  -13   27    8     -2.49      0.00
  -11   27    8      0.54      0.00
   -9   27    8     -9.53      0.00
   -7   27    8     -5.89      0.00
   -5   27    8    -11.80      0.00
   -3   27    8      1.61      0.00
   -1   27    8      6.04      0.00
    1   27    8     -5.74      0.00
    3   27    8     -3.76      0.00
    5   27    8     -4.82      0.00
    7   27    8      2.96      0.00
    9   27    8     -2.07      0.00
  -10   28    8      3.88      0.00
   -8   28    8     -4.89      0.00
   -6   28    8      2.48      0.00
   -4   28    8     -5.12      0.00
   -2   28    8     -5.65      0.00
    0   28    8      7.34      0.00
    2   28    8     -4.07      0.00
    6   28    8     -9.29      0.00
    8   28    8      1.87      0.00
  -11   29    8     -4.68      0.00
   -9   29    8     -2.79      0.00
   -7   29    8     -0.41      0.00
   -5   29    8     -3.61      0.00
   -3   29    8      1.46      0.00
    1   29    8     -5.11      0.00
    3   29    8      1.20      0.00
   -6   30    8      1.66      0.00
   -4   30    8     -1.34      0.00
   -2   30    8     -1.84      0.00
    0   30    8      3.65      0.00
    2   30    8     -1.82      0.00
  -25    1    9     -1.68      0.00
  -23    1    9      4.13      0.00
  -21    1    9     -1.66      0.00
  -19    1    9      1.63      0.00
  -17    1    9     10.09      0.00
  -15    1    9      7.75      0.00
  -13    1    9     29.96      0.00
  -11    1    9     11.60      0.00
   -9    1    9     48.96      0.00
   -7    1    9    -30.53      0.00
   -5    1    9     57.66      0.00
   -3    1    9    -45.75      0.00
   -1    1    9    125.96      0.00
    1    1    9     39.47      0.00
    3    1    9     33.14      0.00
    5    1    9     23.32      0.00
    7    1    9     11.30      0.00
    9    1    9     26.90      0.00
   11    1    9     11.29      0.00
   13    1    9     12.50      0.00
   15    1    9     10.51      0.00
   17    1    9      9.89      0.00
   19    1    9      5.08      0.00
   21    1    9     -1.19      0.00
  -26    2    9      2.24      0.00
  -24    2    9      4.18      0.00
  -22    2    9      2.77      0.00
  -20    2    9      9.48      0.00
  -18    2    9     -6.27      0.00
  -16    2    9      6.62      0.00
  -14    2    9    -12.74      0.00
  -12    2    9     12.64      0.00
  -10    2    9    -45.49      0.00
   -8    2    9     81.21      0.00
   -6    2    9    -25.68      0.00
   -4    2    9     87.48      0.00
   -2    2    9     19.08      0.00
    0    2    9      0.77      0.00
    2    2    9     98.09      0.00
    4    2    9      9.45      0.00
    6    2    9     18.61      0.00
    8    2    9     -2.14      0.00
   10    2    9     11.83      0.00
   12    2    9     13.97      0.00
   14    2    9      4.60      0.00
   16    2    9      5.43      0.00
   18    2    9      1.21      0.00
   20    2    9      3.67      0.00
  -27    3    9     -2.57      0.00
  -25    3    9     -0.96      0.00
  -23    3    9      3.43      0.00
  -21    3    9      3.68      0.00
  -19    3    9      1.52      0.00
  -17    3    9      2.26      0.00
  -15    3    9      4.88      0.00
  -13    3    9      1.66      0.00
  -11    3    9    -11.32      0.00
   -9    3    9    -23.53      0.00
   -7    3    9    -21.02      0.00
   -5    3    9     29.18      0.00
   -3    3    9    -22.76      0.00
   -1    3    9     63.53      0.00
    1    3    9   -110.96      0.00
    3    3    9     72.58      0.00
    5    3    9     17.78      0.00
    7    3    9     12.69      0.00
    9    3    9     24.57      0.00
   11    3    9      1.74      0.00
   13    3    9      6.25      0.00
   15    3    9     -1.50      0.00
   17    3    9     -1.99      0.00
   19    3    9      0.17      0.00
   21    3    9      5.13      0.00
  -26    4    9      1.01      0.00
  -24    4    9      1.19      0.00
  -22    4    9     -4.79      0.00
  -20    4    9      4.02      0.00
  -18    4    9      3.16      0.00
  -16    4    9      0.26      0.00
  -14    4    9      2.60      0.00
  -12    4    9      8.43      0.00
  -10    4    9     63.99      0.00
   -8    4    9     23.82      0.00
   -6    4    9      4.97      0.00
   -4    4    9     38.78      0.00
   -2    4    9    -63.49      0.00
    0    4    9     22.73      0.00
    2    4    9    -43.36      0.00
    4    4    9   -102.33      0.00
    6    4    9     27.32      0.00
    8    4    9    -20.55      0.00
   10    4    9    -15.27      0.00
   12    4    9     -9.58      0.00
   14    4    9     -8.30      0.00
   16    4    9      7.87      0.00
   18    4    9      1.48      0.00
   20    4    9     -1.40      0.00
  -25    5    9     -4.18      0.00
  -23    5    9      2.18      0.00
  -21    5    9     -5.39      0.00
  -19    5    9      1.32      0.00
  -17    5    9     19.88      0.00
  -15    5    9      8.32      0.00
  -13    5    9     10.71      0.00
  -11    5    9     13.27      0.00
   -9    5    9    -25.30      0.00
   -7    5    9     -9.58      0.00
   -5    5    9    -65.11      0.00
   -3    5    9    -89.12      0.00
   -1    5    9      4.13      0.00
    1    5    9      5.95      0.00
    3    5    9    -15.82      0.00
    5    5    9      1.01      0.00
    7    5    9    -27.76      0.00
    9    5    9      8.21      0.00
   11    5    9    -17.70      0.00
   13    5    9      5.09      0.00
   15    5    9    -10.68      0.00
   17    5    9     -5.28      0.00
   19    5    9     -5.77      0.00
   21    5    9     -3.44      0.00
  -26    6    9     -1.72      0.00
  -24    6    9     -1.15      0.00
  -22    6    9     -1.91      0.00
  -20    6    9     -4.75      0.00
  -18    6    9    -20.07      0.00
  -16    6    9    -25.18      0.00
  -14    6    9    -27.65      0.00
  -12    6    9    -27.62      0.00
  -10    6    9    -47.72      0.00
   -8    6    9     -6.22      0.00
   -6    6    9      0.54      0.00
   -4    6    9     45.54      0.00
   -2    6    9     14.39      0.00
    0    6    9    -39.01      0.00
    2    6    9     29.32      0.00
    4    6    9      2.74      0.00
    6    6    9    -29.81      0.00
    8    6    9    -21.77      0.00
   10    6    9    -24.12      0.00
   12    6    9      6.72      0.00
   14    6    9     -7.11      0.00
   16    6    9      8.78      0.00
   18    6    9     -5.19      0.00
   20    6    9      6.89      0.00
  -25    7    9     -3.85      0.00
  -23    7    9     -3.79      0.00
  -21    7    9     -2.77      0.00
  -19    7    9     -1.15      0.00
  -17    7    9     -6.63      0.00
  -15    7    9     12.02      0.00
  -13    7    9     25.55      0.00
  -11    7    9    -18.77      0.00
   -9    7    9      6.42      0.00
   -7    7    9    -33.93      0.00
   -5    7    9    -14.62      0.00
   -3    7    9     15.45      0.00
   -1    7    9     17.11      0.00
    1    7    9    -32.31      0.00
    3    7    9      1.72      0.00
    5    7    9     31.48      0.00
    7    7    9     -2.95      0.00
   11    7    9      4.28      0.00
   13    7    9      8.88      0.00
   15    7    9     -8.28      0.00
   17    7    9     -6.22      0.00
   19    7    9     -0.50      0.00
   21    7    9     -3.01      0.00
  -24    8    9      1.32      0.00
  -22    8    9      3.77      0.00
  -20    8    9     -4.23      0.00
  -18    8    9      0.38      0.00
  -16    8    9    -15.98      0.00
  -14    8    9    -32.23      0.00
  -12    8    9    -33.10      0.00
  -10    8    9     12.87      0.00
   -8    8    9     -1.95      0.00
   -6    8    9     28.58      0.00
   -4    8    9      1.25      0.00
   -2    8    9    -40.10      0.00
    0    8    9     33.22      0.00
    2    8    9    -17.90      0.00
    4    8    9     -0.16      0.00
    6    8    9     -3.59      0.00
    8    8    9      7.91      0.00
   10    8    9    -22.85      0.00
   12    8    9     -0.16      0.00
   14    8    9    -17.84      0.00
   16    8    9     11.21      0.00
   18    8    9     -3.96      0.00
   20    8    9      3.06      0.00
  -25    9    9      1.91      0.00
  -23    9    9     -1.44      0.00
  -21    9    9      2.52      0.00
  -19    9    9      4.64      0.00
  -17    9    9     22.84      0.00
  -15    9    9     10.67      0.00
  -13    9    9     26.77      0.00
  -11    9    9      5.99      0.00
   -9    9    9      8.57      0.00
   -7    9    9      0.66      0.00
   -5    9    9    -49.56      0.00
   -3    9    9      0.92      0.00
   -1    9    9    -34.83      0.00
    1    9    9     24.84      0.00
    3    9    9      0.81      0.00
    5    9    9     -5.93      0.00
    7    9    9      4.08      0.00
    9    9    9      4.24      0.00
   11    9    9     -2.58      0.00
   13    9    9      7.64      0.00
   15    9    9     -4.40      0.00
   17    9    9      1.17      0.00
   19    9    9     -4.47      0.00
  -24   10    9      3.08      0.00
  -22   10    9      1.69      0.00
  -20   10    9      3.27      0.00
  -18   10    9    -11.27      0.00
  -16   10    9     -2.70      0.00
  -14   10    9     11.93      0.00
  -12   10    9      4.55      0.00
  -10   10    9     23.05      0.00
   -8   10    9    -31.49      0.00
   -6   10    9     38.03      0.00
   -4   10    9     40.56      0.00
   -2   10    9     58.89      0.00
    0   10    9     22.94      0.00
    2   10    9    -19.19      0.00
    4   10    9     14.62      0.00
    6   10    9    -21.45      0.00
    8   10    9      2.11      0.00
   10   10    9    -13.21      0.00
   12   10    9     12.20      0.00
   14   10    9      4.14      0.00
   16   10    9     12.95      0.00
   18   10    9     -0.65      0.00
  -25   11    9     -2.69      0.00
  -23   11    9      0.06      0.00
  -21   11    9      4.58      0.00
  -19   11    9     10.06      0.00
  -17   11    9     24.44      0.00
  -15   11    9     12.60      0.00
  -13   11    9     32.32      0.00
  -11   11    9     16.91      0.00
   -9   11    9     45.64      0.00
   -7   11    9     22.40      0.00
   -5   11    9      7.19      0.00
   -3   11    9    -31.67      0.00
   -1   11    9    -23.40      0.00
    1   11    9     14.11      0.00
    3   11    9    -17.23      0.00
    5   11    9     38.20      0.00
    7   11    9      4.02      0.00
    9   11    9     23.29      0.00
   11   11    9      6.36      0.00
   13   11    9      7.40      0.00
   15   11    9      1.50      0.00
   17   11    9     -1.99      0.00
   19   11    9      3.19      0.00
  -24   12    9      3.56      0.00
  -22   12    9      0.10      0.00
  -20   12    9      0.47      0.00
  -18   12    9     -3.63      0.00
  -16   12    9    -12.16      0.00
  -14   12    9    -25.38      0.00
  -12   12    9    -30.80      0.00
  -10   12    9    -18.05      0.00
   -8   12    9     -4.17      0.00
   -6   12    9     32.83      0.00
   -4   12    9      0.78      0.00
   -2   12    9     19.90      0.00
    0   12    9     29.29      0.00
    2   12    9     18.09      0.00
    4   12    9     17.44      0.00
    6   12    9    -11.96      0.00
    8   12    9      5.01      0.00
   10   12    9    -16.44      0.00
   12   12    9      7.23      0.00
   14   12    9    -11.81      0.00
   16   12    9      4.08      0.00
   18   12    9      2.50      0.00
  -23   13    9     -4.13      0.00
  -21   13    9     -4.11      0.00
  -19   13    9    -14.47      0.00
  -17   13    9     -4.57      0.00
  -15   13    9     -7.51      0.00
  -13   13    9     18.23      0.00
  -11   13    9    -12.29      0.00
   -9   13    9     -5.81      0.00
   -7   13    9    -29.41      0.00
   -5   13    9    -25.16      0.00
   -3   13    9     24.20      0.00
   -1   13    9    -24.90      0.00
    1   13    9     -3.52      0.00
    3   13    9    -16.75      0.00
    5   13    9     13.36      0.00
    7   13    9      2.27      0.00
    9   13    9     23.56      0.00
   11   13    9      8.36      0.00
   13   13    9      0.78      0.00
   15   13    9      2.22      0.00
   17   13    9     -2.99      0.00
   19   13    9     -0.26      0.00
  -24   14    9      1.35      0.00
  -22   14    9     -3.68      0.00
  -20   14    9      7.26      0.00
  -18   14    9      0.61      0.00
  -16   14    9     -2.99      0.00
  -14   14    9     12.36      0.00
  -12   14    9    -19.01      0.00
  -10   14    9      6.67      0.00
   -8   14    9    -30.59      0.00
   -6   14    9     -6.66      0.00
   -4   14    9    -14.74      0.00
   -2   14    9      9.13      0.00
    0   14    9    -26.39      0.00
    2   14    9     12.66      0.00
    4   14    9      3.91      0.00
    6   14    9    -22.69      0.00
    8   14    9     -1.61      0.00
   10   14    9    -28.38      0.00
   12   14    9      0.67      0.00
   14   14    9     -4.26      0.00
   16   14    9     -0.07      0.00
   18   14    9     -2.00      0.00
  -23   15    9      1.12      0.00
  -21   15    9      2.00      0.00
  -19   15    9     -9.06      0.00
  -17   15    9     11.20      0.00
  -15   15    9    -20.42      0.00
  -13   15    9     -6.78      0.00
  -11   15    9      2.77      0.00
   -9   15    9     12.42      0.00
   -7   15    9      2.91      0.00
   -5   15    9     -0.65      0.00
   -3   15    9    -43.03      0.00
   -1   15    9     -2.04      0.00
    1   15    9      0.13      0.00
    3   15    9    -28.07      0.00
    5   15    9     -5.08      0.00
    7   15    9    -12.58      0.00
    9   15    9    -12.35      0.00
   11   15    9     -3.77      0.00
   13   15    9    -11.69      0.00
   15   15    9     -2.14      0.00
   17   15    9     -6.33      0.00
  -22   16    9     -2.94      0.00
  -20   16    9      5.33      0.00
  -18   16    9     -3.04      0.00
  -16   16    9      5.21      0.00
  -14   16    9      1.41      0.00
  -12   16    9      2.12      0.00
  -10   16    9      3.50      0.00
   -8   16    9     -8.19      0.00
   -6   16    9     12.31      0.00
   -4   16    9     -2.69      0.00
   -2   16    9      1.00      0.00
    0   16    9      2.33      0.00
    2   16    9    -37.11      0.00
    4   16    9     -1.07      0.00
    6   16    9    -21.83      0.00
    8   16    9     19.16      0.00
   10   16    9    -11.50      0.00
   12   16    9      5.20      0.00
   14   16    9     -7.87      0.00
   16   16    9      2.01      0.00
  -23   17    9      0.95      0.00
  -21   17    9      0.01      0.00
  -19   17    9     -5.05      0.00
  -17   17    9     -2.06      0.00
  -15   17    9     -4.38      0.00
  -13   17    9     11.89      0.00
  -11   17    9    -22.88      0.00
   -9   17    9      2.79      0.00
   -7   17    9     -2.09      0.00
   -5   17    9      1.40      0.00
   -3   17    9     18.82      0.00
   -1   17    9    -34.70      0.00
    1   17    9     16.82      0.00
    3   17    9    -13.73      0.00
    5   17    9     24.90      0.00
    7   17    9     -9.32      0.00
    9   17    9      3.56      0.00
   11   17    9      8.88      0.00
   13   17    9      3.94      0.00
   15   17    9      6.99      0.00
   17   17    9      0.33      0.00
  -20   18    9      0.92      0.00
  -18   18    9     10.09      0.00
  -16   18    9      0.83      0.00
  -14   18    9     14.60      0.00
  -12   18    9     -1.11      0.00
  -10   18    9     22.99      0.00
   -8   18    9    -13.66      0.00
   -6   18    9     18.64      0.00
   -4   18    9    -19.72      0.00
   -2   18    9     31.04      0.00
    0   18    9     10.86      0.00
    2   18    9     24.47      0.00
    4   18    9     31.33      0.00
    6   18    9    -14.77      0.00
    8   18    9     13.06      0.00
   10   18    9    -10.82      0.00
   12   18    9      8.29      0.00
   14   18    9      0.62      0.00
   16   18    9      1.12      0.00
  -21   19    9      0.76      0.00
  -19   19    9     -2.67      0.00
  -17   19    9      3.37      0.00
  -15   19    9     -2.40      0.00
  -13   19    9     -3.25      0.00
  -11   19    9     10.51      0.00
   -9   19    9      6.39      0.00
   -7   19    9      7.49      0.00
   -5   19    9      7.08      0.00
   -3   19    9     23.41      0.00
   -1   19    9      4.58      0.00
    1   19    9     40.24      0.00
    3   19    9    -10.87      0.00
    5   19    9     16.64      0.00
    7   19    9     20.26      0.00
    9   19    9     11.73      0.00
   11   19    9      8.03      0.00
   13   19    9     -2.52      0.00
   15   19    9      0.61      0.00
  -20   20    9      3.47      0.00
  -18   20    9     -0.85      0.00
  -16   20    9      0.84      0.00
  -14   20    9     -2.29      0.00
  -12   20    9     -2.57      0.00
  -10   20    9      2.30      0.00
   -8   20    9     -8.09      0.00
   -6   20    9     10.57      0.00
   -4   20    9    -13.29      0.00
   -2   20    9      5.73      0.00
    0   20    9    -15.48      0.00
    2   20    9    -13.86      0.00
    4   20    9      9.66      0.00
    6   20    9     -7.87      0.00
    8   20    9     11.67      0.00
   10   20    9      0.14      0.00
   12   20    9      4.73      0.00
   14   20    9      3.30      0.00
  -19   21    9      2.17      0.00
  -17   21    9     -3.37      0.00
  -15   21    9      2.38      0.00
  -13   21    9      6.27      0.00
  -11   21    9    -13.15      0.00
   -9   21    9     14.80      0.00
   -7   21    9      1.12      0.00
   -5   21    9      9.62      0.00
   -3   21    9      2.09      0.00
   -1   21    9    -19.55      0.00
    1   21    9     -5.97      0.00
    3   21    9    -10.76      0.00
    5   21    9     -8.35      0.00
    7   21    9    -17.41      0.00
    9   21    9    -13.38      0.00
   11   21    9     -6.46      0.00
   13   21    9     -3.67      0.00
  -18   22    9     -1.32      0.00
  -16   22    9      2.77      0.00
  -14   22    9     -9.55      0.00
  -12   22    9      9.65      0.00
  -10   22    9    -14.90      0.00
   -8   22    9    -11.30      0.00
   -6   22    9    -15.22      0.00
   -4   22    9    -19.09      0.00
   -2   22    9      0.47      0.00
    0   22    9      6.78      0.00
    2   22    9     -8.86      0.00
    4   22    9     -1.50      0.00
    6   22    9     -1.76      0.00
    8   22    9     -3.54      0.00
   10   22    9      1.09      0.00
   12   22    9     -3.49      0.00
  -17   23    9     -2.95      0.00
  -15   23    9      3.01      0.00
  -13   23    9     -1.48      0.00
  -11   23    9      4.50      0.00
   -9   23    9     14.81      0.00
   -7   23    9    -16.80      0.00
   -5   23    9     21.93      0.00
   -3   23    9    -23.06      0.00
   -1   23    9     12.54      0.00
    1   23    9      3.18      0.00
    3   23    9      2.16      0.00
    5   23    9     -2.76      0.00
    7   23    9      0.22      0.00
    9   23    9     -1.07      0.00
   11   23    9     -3.32      0.00
  -16   24    9     -0.94      0.00
  -14   24    9     -9.13      0.00
  -12   24    9     -3.78      0.00
  -10   24    9    -23.17      0.00
   -8   24    9      6.39      0.00
   -6   24    9     -7.09      0.00
   -4   24    9      3.11      0.00
   -2   24    9      2.51      0.00
    0   24    9    -28.62      0.00
    2   24    9     14.07      0.00
    4   24    9    -12.38      0.00
    6   24    9     11.61      0.00
    8   24    9     -4.86      0.00
   10   24    9      4.73      0.00
  -15   25    9      0.94      0.00
  -13   25    9     -1.05      0.00
  -11   25    9      5.72      0.00
   -9   25    9      3.28      0.00
   -7   25    9     -1.91      0.00
   -5   25    9      8.18      0.00
   -3   25    9     -3.40      0.00
   -1   25    9     17.37      0.00
    1   25    9    -14.96      0.00
    3   25    9      9.58      0.00
    5   25    9     -4.26      0.00
    7   25    9      3.27      0.00
    9   25    9      4.94      0.00
  -14   26    9      0.86      0.00
  -12   26    9      6.58      0.00
  -10   26    9      0.12      0.00
   -8   26    9      7.02      0.00
   -6   26    9     -7.14      0.00
   -4   26    9     -0.57      0.00
   -2   26    9      0.49      0.00
    0   26    9     10.26      0.00
    2   26    9      6.57      0.00
    4   26    9     -4.94      0.00
    6   26    9      7.81      0.00
    8   26    9     -5.82      0.00
  -11   27    9     -0.26      0.00
   -9   27    9      5.49      0.00
   -7   27    9      1.84      0.00
   -5   27    9     10.57      0.00
   -3   27    9     -7.49      0.00
   -1   27    9      6.63      0.00
    1   27    9      2.43      0.00
    3   27    9      0.94      0.00
    5   27    9      0.86      0.00
    7   27    9     -6.05      0.00
  -12   28    9      1.40      0.00
  -10   28    9     -3.14      0.00
   -8   28    9      1.64      0.00
   -6   28    9      0.78      0.00
   -4   28    9      7.08      0.00
   -2   28    9      2.72      0.00
    0   28    9    -10.76      0.00
    2   28    9      3.36      0.00
    4   28    9      2.85      0.00
    6   28    9      7.69      0.00
   -9   29    9     -4.20      0.00
   -7   29    9      1.66      0.00
   -5   29    9     -3.98      0.00
   -3   29    9      1.22      0.00
   -1   29    9      2.73      0.00
    1   29    9     -2.50      0.00
    5   29    9     -3.14      0.00
   -2   30    9     -5.32      0.00
    0   30    9      1.66      0.00
    2   30    9      2.12      0.00
  -26    0   10      0.10      0.00
  -24    0   10     -6.52      0.00
  -22    0   10     -0.61      0.00
  -20    0   10    -10.99      0.00
  -18    0   10     11.07      0.00
  -16    0   10    -16.60      0.00
  -14    0   10    -31.67      0.00
  -12    0   10    -57.65      0.00
  -10    0   10    -56.58      0.00
   -8    0   10    -87.77      0.00
   -6    0   10    -73.70      0.00
   -4    0   10   -115.65      0.00
   -2    0   10    -88.71      0.00
    0    0   10     47.65      0.00
    2    0   10    -78.29      0.00
    4    0   10    -30.92      0.00
    6    0   10    -66.32      0.00
    8    0   10    -15.54      0.00
   10    0   10    -20.21      0.00
   12    0   10    -23.53      0.00
   14    0   10    -13.50      0.00
   16    0   10    -13.08      0.00
   18    0   10     -1.79      0.00
   20    0   10      3.19      0.00
  -25    1   10     -0.63      0.00
  -23    1   10     -6.07      0.00
  -21    1   10     -1.54      0.00
  -19    1   10    -12.73      0.00
  -17    1   10    -13.83      0.00
  -15    1   10     -4.87      0.00
  -13    1   10     16.40      0.00
  -11    1   10     30.91      0.00
   -9    1   10     12.34      0.00
   -7    1   10     16.20      0.00
   -5    1   10     -0.63      0.00
   -3    1   10     14.09      0.00
   -1    1   10    -66.11      0.00
    1    1   10    -29.80      0.00
    3    1   10     -3.00      0.00
    5    1   10      3.15      0.00
    7    1   10      8.37      0.00
    9    1   10    -31.13      0.00
   11    1   10      0.72      0.00
   13    1   10     -2.36      0.00
   15    1   10      0.15      0.00
   17    1   10      1.17      0.00
   19    1   10     -5.31      0.00
  -26    2   10     -0.55      0.00
  -24    2   10      1.36      0.00
  -22    2   10      7.33      0.00
  -20    2   10      7.14      0.00
  -18    2   10     27.29      0.00
  -16    2   10     10.36      0.00
  -14    2   10     27.88      0.00
  -12    2   10    -18.57      0.00
  -10    2   10     -0.90      0.00
   -8    2   10    -24.51      0.00
   -6    2   10     49.85      0.00
   -4    2   10    -25.09      0.00
   -2    2   10     50.98      0.00
    0    2   10     21.23      0.00
    2    2   10    -43.48      0.00
    4    2   10     47.14      0.00
    6    2   10    -18.52      0.00
    8    2   10     23.97      0.00
   10    2   10     14.32      0.00
   12    2   10      5.12      0.00
   14    2   10      6.56      0.00
   16    2   10     -5.69      0.00
   18    2   10     -3.05      0.00
   20    2   10     -4.43      0.00
  -25    3   10      3.04      0.00
  -23    3   10      3.09      0.00
  -21    3   10     -4.50      0.00
  -19    3   10    -16.20      0.00
  -17    3   10    -17.72      0.00
  -15    3   10    -19.94      0.00
  -13    3   10      2.15      0.00
  -11    3   10    -15.28      0.00
   -9    3   10     81.53      0.00
   -7    3   10    -22.29      0.00
   -5    3   10     74.43      0.00
   -3    3   10     51.46      0.00
   -1    3   10     44.58      0.00
    1    3   10     45.45      0.00
    3    3   10     44.21      0.00
    5    3   10    -29.09      0.00
    7    3   10     39.43      0.00
    9    3   10      3.63      0.00
   11    3   10     16.29      0.00
   13    3   10     -1.46      0.00
   15    3   10      7.38      0.00
   17    3   10     10.07      0.00
   19    3   10      7.99      0.00
  -26    4   10      1.42      0.00
  -24    4   10     -1.91      0.00
  -22    4   10      7.06      0.00
  -20    4   10      0.86      0.00
  -18    4   10     15.40      0.00
  -16    4   10     14.51      0.00
  -14    4   10     13.79      0.00
  -12    4   10     -6.51      0.00
  -10    4   10      6.83      0.00
   -8    4   10      6.57      0.00
   -6    4   10      8.78      0.00
   -4    4   10     18.01      0.00
   -2    4   10    -25.98      0.00
    0    4   10     36.93      0.00
    2    4   10     60.34      0.00
    4    4   10      5.73      0.00
    6    4   10     21.99      0.00
    8    4   10      4.91      0.00
   10    4   10     11.95      0.00
   12    4   10     -4.83      0.00
   14    4   10      6.71      0.00
   16    4   10     -2.59      0.00
   18    4   10      4.82      0.00
   20    4   10     -0.31      0.00
  -25    5   10     -1.52      0.00
  -23    5   10      1.51      0.00
  -21    5   10      3.07      0.00
  -19    5   10      9.40      0.00
  -17    5   10      5.07      0.00
  -15    5   10     13.06      0.00
  -13    5   10      1.48      0.00
  -11    5   10     46.97      0.00
   -9    5   10    -34.91      0.00
   -7    5   10     30.03      0.00
   -5    5   10      4.13      0.00
   -3    5   10    -52.89      0.00
   -1    5   10     64.26      0.00
    1    5   10   -104.14      0.00
    3    5   10     63.16      0.00
    5    5   10     -0.72      0.00
    7    5   10      2.63      0.00
    9    5   10    -19.71      0.00
   11    5   10      3.19      0.00
   13    5   10      5.59      0.00
   15    5   10      7.33      0.00
   17    5   10      2.50      0.00
   19    5   10     -2.99      0.00
  -26    6   10      1.61      0.00
  -24    6   10     -0.43      0.00
  -22    6   10      0.23      0.00
  -20    6   10      0.12      0.00
  -18    6   10      5.28      0.00
  -16    6   10    -15.86      0.00
  -14    6   10      6.66      0.00
  -12    6   10     14.97      0.00
  -10    6   10    -25.12      0.00
   -8    6   10      1.05      0.00
   -6    6   10    -98.80      0.00
   -4    6   10     39.76      0.00
   -2    6   10    -49.11      0.00
    0    6   10     30.29      0.00
    2    6   10    -86.62      0.00
    4    6   10    -37.58      0.00
    6    6   10     15.05      0.00
    8    6   10    -15.16      0.00
   10    6   10      3.88      0.00
   12    6   10     -6.75      0.00
   14    6   10     -1.89      0.00
   16    6   10     -8.22      0.00
   18    6   10     -2.47      0.00
   20    6   10     -1.64      0.00
  -25    7   10     -0.70      0.00
  -23    7   10      1.64      0.00
  -21    7   10     -3.97      0.00
  -19    7   10     -0.64      0.00
  -17    7   10     -3.35      0.00
  -15    7   10      2.36      0.00
  -13    7   10    -30.51      0.00
  -11    7   10     -7.71      0.00
   -9    7   10      9.01      0.00
   -7    7   10     43.33      0.00
   -5    7   10     29.35      0.00
   -3    7   10    -49.24      0.00
   -1    7   10      8.73      0.00
    1    7   10    -21.10      0.00
    3    7   10     37.66      0.00
    5    7   10    -50.13      0.00
    7    7   10      3.65      0.00
   11    7   10      4.47      0.00
   13    7   10      2.05      0.00
   15    7   10     -2.08      0.00
   17    7   10      4.22      0.00
   19    7   10      0.97      0.00
  -26    8   10     -0.99      0.00
  -24    8   10     -5.42      0.00
  -22    8   10      0.93      0.00
  -20    8   10    -14.82      0.00
  -18    8   10     -4.38      0.00
  -16    8   10      1.36      0.00
  -14    8   10      7.54      0.00
  -12    8   10     -2.43      0.00
  -10    8   10     -4.48      0.00
   -8    8   10      0.71      0.00
   -6    8   10    -19.34      0.00
   -4    8   10     33.36      0.00
   -2    8   10    -12.56      0.00
    0    8   10     -5.49      0.00
    2    8   10     17.50      0.00
    4    8   10      6.38      0.00
    6    8   10      3.66      0.00
    8    8   10      4.28      0.00
   10    8   10      0.25      0.00
   12    8   10     -4.33      0.00
   14    8   10     -0.52      0.00
   16    8   10     -4.23      0.00
   18    8   10      2.87      0.00
   20    8   10     -2.58      0.00
  -25    9   10      0.15      0.00
  -23    9   10      0.61      0.00
  -21    9   10      1.83      0.00
  -19    9   10      9.69      0.00
  -17    9   10    -14.51      0.00
  -15    9   10      0.80      0.00
  -13    9   10    -12.81      0.00
  -11    9   10      4.83      0.00
   -9    9   10    -19.36      0.00
   -7    9   10    -28.87      0.00
   -5    9   10    -19.52      0.00
   -3    9   10    -15.07      0.00
   -1    9   10     52.15      0.00
    1    9   10     -7.83      0.00
    3    9   10     41.31      0.00
    5    9   10      5.36      0.00
    7    9   10    -10.45      0.00
    9    9   10     -9.99      0.00
   11    9   10    -14.29      0.00
   13    9   10     -7.72      0.00
   15    9   10     -5.15      0.00
   17    9   10     -0.26      0.00
   19    9   10     -6.85      0.00
  -24   10   10     -5.01      0.00
  -22   10   10      0.91      0.00
  -20   10   10    -16.48      0.00
  -18   10   10     -1.38      0.00
  -16   10   10    -26.60      0.00
  -14   10   10     -9.69      0.00
  -12   10   10    -17.00      0.00
  -10   10   10     -6.70      0.00
   -8   10   10      4.55      0.00
   -6   10   10     -9.45      0.00
   -4   10   10     21.07      0.00
   -2   10   10    -14.28      0.00
    0   10   10    -17.08      0.00
    2   10   10    -32.63      0.00
    4   10   10    -46.00      0.00
    6   10   10      3.04      0.00
    8   10   10    -10.03      0.00
   10   10   10      2.41      0.00
   12   10   10     -1.81      0.00
   14   10   10      1.37      0.00
   16   10   10      0.22      0.00
   18   10   10     -2.16      0.00
  -25   11   10      0.52      0.00
  -23   11   10     -0.28      0.00
  -21   11   10      5.97      0.00
  -19   11   10      9.90      0.00
  -17   11   10     20.09      0.00
  -15   11   10     27.01      0.00
  -13   11   10     -2.57      0.00
  -11   11   10     17.86      0.00
   -9   11   10    -13.65      0.00
   -7   11   10     17.62      0.00
   -5   11   10      9.07      0.00
   -3   11   10    -30.90      0.00
   -1   11   10    -30.39      0.00
    1   11   10     -1.95      0.00
    3   11   10      3.12      0.00
    5   11   10      7.60      0.00
    7   11   10     10.42      0.00
    9   11   10      8.74      0.00
   11   11   10      0.31      0.00
   13   11   10      9.06      0.00
   15   11   10     -7.99      0.00
   17   11   10      1.03      0.00
   19   11   10     -2.63      0.00
  -24   12   10      2.21      0.00
  -22   12   10      7.20      0.00
  -20   12   10     -3.04      0.00
  -18   12   10      4.26      0.00
  -16   12   10     -8.91      0.00
  -14   12   10      4.60      0.00
  -12   12   10     13.50      0.00
  -10   12   10      8.90      0.00
   -8   12   10      7.23      0.00
   -6   12   10      5.51      0.00
   -4   12   10    -16.80      0.00
   -2   12   10     40.20      0.00
    0   12   10     12.09      0.00
    2   12   10     -6.51      0.00
    4   12   10      3.57      0.00
    6   12   10    -13.05      0.00
    8   12   10     -6.62      0.00
   10   12   10      5.56      0.00
   12   12   10      5.52      0.00
   14   12   10      8.34      0.00
   16   12   10      6.18      0.00
   18   12   10      5.26      0.00
  -23   13   10      0.85      0.00
  -21   13   10      1.57      0.00
  -19   13   10      7.89      0.00
  -17   13   10     -4.05      0.00
  -15   13   10     15.41      0.00
  -13   13   10     12.71      0.00
  -11   13   10     17.32      0.00
   -9   13   10     14.22      0.00
   -7   13   10     -6.19      0.00
   -5   13   10     12.00      0.00
   -3   13   10     13.14      0.00
   -1   13   10     24.30      0.00
    1   13   10     13.34      0.00
    3   13   10     30.61      0.00
    5   13   10     28.05      0.00
    7   13   10      8.51      0.00
    9   13   10      6.65      0.00
   11   13   10     -5.47      0.00
   13   13   10     -2.01      0.00
   15   13   10     -0.60      0.00
   17   13   10      1.73      0.00
  -24   14   10     -1.87      0.00
  -22   14   10     -6.20      0.00
  -20   14   10     -7.39      0.00
  -18   14   10      0.04      0.00
  -16   14   10      2.43      0.00
  -14   14   10     -8.60      0.00
  -12   14   10    -15.98      0.00
  -10   14   10     -9.29      0.00
   -8   14   10     35.34      0.00
   -6   14   10     10.45      0.00
   -4   14   10     36.26      0.00
   -2   14   10    -18.52      0.00
    0   14   10     10.65      0.00
    2   14   10      4.93      0.00
    4   14   10     -3.27      0.00
    6   14   10     -5.52      0.00
    8   14   10     12.11      0.00
   10   14   10      6.48      0.00
   12   14   10      7.97      0.00
   14   14   10      4.93      0.00
   16   14   10      2.35      0.00
   18   14   10      4.88      0.00
  -23   15   10      4.66      0.00
  -21   15   10      4.83      0.00
  -19   15   10      7.16      0.00
  -17   15   10     -3.79      0.00
  -15   15   10     10.38      0.00
  -13   15   10    -15.95      0.00
  -11   15   10     13.76      0.00
   -9   15   10    -35.56      0.00
   -7   15   10    -11.43      0.00
   -5   15   10    -12.85      0.00
   -3   15   10      1.73      0.00
   -1   15   10     -2.74      0.00
    1   15   10     17.59      0.00
    3   15   10      2.77      0.00
    5   15   10      7.60      0.00
    7   15   10      9.86      0.00
    9   15   10      6.43      0.00
   11   15   10      3.31      0.00
   13   15   10     -1.01      0.00
   15   15   10     -5.22      0.00
   17   15   10     -3.19      0.00
  -22   16   10     -3.78      0.00
  -20   16   10     -2.47      0.00
  -18   16   10     -8.42      0.00
  -16   16   10    -13.97      0.00
  -14   16   10     -4.79      0.00
  -12   16   10      5.43      0.00
  -10   16   10      0.13      0.00
   -8   16   10      9.04      0.00
   -6   16   10     -6.03      0.00
   -4   16   10     -1.64      0.00
   -2   16   10      8.13      0.00
    0   16   10    -19.92      0.00
    2   16   10    -24.39      0.00
    4   16   10    -26.76      0.00
    6   16   10    -15.70      0.00
    8   16   10    -22.19      0.00
   10   16   10    -15.14      0.00
   12   16   10     -8.87      0.00
   14   16   10     -4.50      0.00
   16   16   10     -0.36      0.00
  -21   17   10     -0.52      0.00
  -19   17   10     -4.37      0.00
  -17   17   10      7.47      0.00
  -15   17   10     -9.37      0.00
  -13   17   10      2.69      0.00
  -11   17   10    -13.15      0.00
   -9   17   10    -17.76      0.00
   -7   17   10    -15.52      0.00
   -5   17   10    -23.40      0.00
   -3   17   10    -33.06      0.00
   -1   17   10    -14.34      0.00
    1   17   10    -21.92      0.00
    3   17   10      7.79      0.00
    5   17   10     16.11      0.00
    7   17   10     -4.12      0.00
    9   17   10     -3.04      0.00
   11   17   10     -6.71      0.00
   13   17   10     -3.28      0.00
   15   17   10      2.00      0.00
   17   17   10     -7.90      0.00
  -22   18   10     -5.42      0.00
  -20   18   10      1.35      0.00
  -18   18   10     -6.90      0.00
  -16   18   10      5.61      0.00
  -14   18   10      6.10      0.00
  -12   18   10    -16.49      0.00
  -10   18   10     22.09      0.00
   -8   18   10     -7.00      0.00
   -6   18   10      5.70      0.00
   -4   18   10    -14.47      0.00
   -2   18   10    -12.05      0.00
    0   18   10     -4.06      0.00
    2   18   10     -6.08      0.00
    4   18   10    -24.68      0.00
    6   18   10    -26.32      0.00
    8   18   10      2.57      0.00
   10   18   10     -6.19      0.00
   12   18   10      6.89      0.00
   14   18   10     -3.97      0.00
   16   18   10      0.62      0.00
  -21   19   10      2.51      0.00
  -19   19   10      4.31      0.00
  -17   19   10      3.78      0.00
  -15   19   10     -5.15      0.00
  -13   19   10      3.77      0.00
  -11   19   10     -2.65      0.00
   -9   19   10     -6.59      0.00
   -7   19   10     13.15      0.00
   -5   19   10      2.38      0.00
   -3   19   10     35.55      0.00
   -1   19   10     -3.47      0.00
    1   19   10     26.51      0.00
    3   19   10     -8.92      0.00
    5   19   10     19.88      0.00
    7   19   10      0.42      0.00
    9   19   10     13.95      0.00
   11   19   10      5.91      0.00
   13   19   10     -1.09      0.00
   15   19   10      2.51      0.00
  -20   20   10      3.28      0.00
  -18   20   10     -0.18      0.00
  -16   20   10      1.99      0.00
  -14   20   10      8.60      0.00
  -12   20   10      2.88      0.00
  -10   20   10     13.06      0.00
   -8   20   10     -5.52      0.00
   -6   20   10     33.44      0.00
   -4   20   10     -1.42      0.00
   -2   20   10     31.14      0.00
    0   20   10      3.87      0.00
    2   20   10     10.03      0.00
    4   20   10     28.09      0.00
    6   20   10      7.71      0.00
    8   20   10     13.00      0.00
   10   20   10     -9.53      0.00
   12   20   10      8.80      0.00
   14   20   10      0.77      0.00
  -19   21   10     -2.55      0.00
  -17   21   10      6.00      0.00
  -15   21   10     -6.17      0.00
  -13   21   10      5.99      0.00
  -11   21   10      4.57      0.00
   -9   21   10      2.85      0.00
   -7   21   10      4.54      0.00
   -5   21   10    -23.19      0.00
   -3   21   10     16.67      0.00
   -1   21   10    -26.17      0.00
    1   21   10     37.38      0.00
    3   21   10    -15.93      0.00
    5   21   10     15.01      0.00
    7   21   10     -2.54      0.00
    9   21   10      3.49      0.00
   11   21   10      3.70      0.00
   13   21   10     -2.02      0.00
  -18   22   10     -6.39      0.00
  -16   22   10      1.95      0.00
  -14   22   10      2.51      0.00
  -12   22   10    -10.11      0.00
  -10   22   10     14.38      0.00
   -8   22   10    -11.72      0.00
   -6   22   10     10.85      0.00
   -4   22   10    -12.83      0.00
   -2   22   10      1.49      0.00
    0   22   10     -6.27      0.00
    2   22   10    -11.16      0.00
    4   22   10     -1.56      0.00
    6   22   10    -16.02      0.00
    8   22   10      8.87      0.00
   10   22   10     -5.95      0.00
   12   22   10      1.29      0.00
  -17   23   10      3.97      0.00
  -15   23   10     -3.77      0.00
  -13   23   10      6.42      0.00
  -11   23   10    -10.62      0.00
   -9   23   10      1.25      0.00
   -7   23   10      2.35      0.00
   -5   23   10     -0.31      0.00
   -3   23   10     12.71      0.00
   -1   23   10    -16.40      0.00
    1   23   10      2.26      0.00
    3   23   10     -9.94      0.00
    5   23   10      3.16      0.00
    7   23   10     -8.20      0.00
    9   23   10     -5.80      0.00
   11   23   10      0.11      0.00
  -16   24   10      1.89      0.00
  -14   24   10     -3.00      0.00
  -12   24   10      0.40      0.00
  -10   24   10     -2.22      0.00
   -8   24   10    -16.89      0.00
   -6   24   10     10.77      0.00
   -4   24   10    -19.04      0.00
   -2   24   10     13.60      0.00
    0   24   10      0.54      0.00
    2   24   10     -9.59      0.00
    4   24   10      7.79      0.00
    6   24   10     -5.13      0.00
    8   24   10      6.89      0.00
   10   24   10      4.39      0.00
  -15   25   10     -2.84      0.00
  -13   25   10     -2.57      0.00
  -11   25   10      0.76      0.00
   -9   25   10      7.19      0.00
   -7   25   10     -1.11      0.00
   -5   25   10     -7.91      0.00
   -3   25   10     -4.15      0.00
   -1   25   10    -17.14      0.00
    1   25   10     17.45      0.00
    3   25   10    -10.02      0.00
    5   25   10      1.45      0.00
    7   25   10     -0.51      0.00
    9   25   10     -6.82      0.00
  -12   26   10      3.03      0.00
  -10   26   10     -9.70      0.00
   -8   26   10      2.88      0.00
   -6   26   10     -4.74      0.00
   -4   26   10      5.89      0.00
   -2   26   10     -1.79      0.00
    0   26   10     -4.51      0.00
    2   26   10      8.83      0.00
    4   26   10     -2.20      0.00
    6   26   10      4.65      0.00
    8   26   10     -3.19      0.00
  -13   27   10      1.63      0.00
  -11   27   10      1.32      0.00
   -9   27   10     -2.69      0.00
   -7   27   10     -0.88      0.00
   -5   27   10      4.08      0.00
   -3   27   10      4.28      0.00
   -1   27   10     10.81      0.00
    1   27   10    -11.64      0.00
    3   27   10      0.28      0.00
    5   27   10     -2.78      0.00
    7   27   10     -1.95      0.00
  -12   28   10     -1.04      0.00
  -10   28   10      2.23      0.00
   -8   28   10      1.70      0.00
   -6   28   10     -3.81      0.00
   -4   28   10     -0.88      0.00
   -2   28   10     -2.33      0.00
    0   28   10      3.21      0.00
    2   28   10     -2.91      0.00
    4   28   10     -1.39      0.00
    6   28   10      3.08      0.00
   -9   29   10      4.30      0.00
   -7   29   10      9.08      0.00
   -5   29   10      4.93      0.00
   -3   29   10     -2.69      0.00
   -1   29   10     -0.06      0.00
    1   29   10      3.39      0.00
    3   29   10      7.42      0.00
   -2   30   10     -0.36      0.00
    0   30   10     -0.20      0.00
  -25    1   11     -4.03      0.00
  -23    1   11     -8.19      0.00
  -21    1   11     -5.27      0.00
  -19    1   11    -10.20      0.00
  -17    1   11    -13.03      0.00
  -15    1   11    -26.43      0.00
  -13    1   11    -11.73      0.00
  -11    1   11    -48.25      0.00
   -9    1   11    -52.45      0.00
   -7    1   11    -55.84      0.00
   -5    1   11     13.59      0.00
   -3    1   11     -3.62      0.00
   -1    1   11     24.41      0.00
    1    1   11    -52.51      0.00
    3    1   11    -70.24      0.00
    5    1   11     -5.89      0.00
    7    1   11    -35.32      0.00
    9    1   11    -20.46      0.00
   11    1   11     -5.69      0.00
   13    1   11      2.78      0.00
   15    1   11      4.12      0.00
   17    1   11      2.19      0.00
   19    1   11     -0.58      0.00
  -26    2   11     -4.01      0.00
  -24    2   11     -1.44      0.00
  -22    2   11      3.05      0.00
  -20    2   11      3.85      0.00
  -18    2   11      8.52      0.00
  -16    2   11      0.43      0.00
  -14    2   11     -6.25      0.00
  -12    2   11      6.83      0.00
  -10    2   11    -42.97      0.00
   -8    2   11    -11.96      0.00
   -6    2   11    -50.84      0.00
   -4    2   11   -116.02      0.00
   -2    2   11     -7.40      0.00
    0    2   11    -63.75      0.00
    2    2   11     -6.18      0.00
    4    2   11     -4.06      0.00
    6    2   11    -34.37      0.00
    8    2   11     -1.19      0.00
   10    2   11     -5.79      0.00
   12    2   11     -5.68      0.00
   14    2   11    -13.06      0.00
   16    2   11    -12.92      0.00
   18    2   11     -8.20      0.00
  -25    3   11      3.90      0.00
  -23    3   11     -5.47      0.00
  -21    3   11     -2.60      0.00
  -19    3   11    -15.14      0.00
  -17    3   11    -10.12      0.00
  -15    3   11      0.45      0.00
  -13    3   11     -3.13      0.00
  -11    3   11    -13.86      0.00
   -9    3   11     47.06      0.00
   -7    3   11     -8.68      0.00
   -5    3   11     22.82      0.00
   -3    3   11      6.31      0.00
   -1    3   11    -65.78      0.00
    1    3   11     51.74      0.00
    3    3   11     -2.40      0.00
    5    3   11      9.28      0.00
    7    3   11     -1.62      0.00
    9    3   11     -3.53      0.00
   11    3   11      5.24      0.00
   13    3   11     -3.38      0.00
   15    3   11     -0.50      0.00
   17    3   11      0.51      0.00
   19    3   11     -1.39      0.00
  -26    4   11     -2.24      0.00
  -24    4   11      1.60      0.00
  -22    4   11     -1.31      0.00
  -20    4   11     -0.35      0.00
  -18    4   11      3.92      0.00
  -16    4   11      1.71      0.00
  -14    4   11      5.65      0.00
  -12    4   11     -2.48      0.00
  -10    4   11     53.92      0.00
   -8    4   11    -53.73      0.00
   -6    4   11     86.07      0.00
   -4    4   11    -36.23      0.00
   -2    4   11     47.87      0.00
    0    4   11    -37.46      0.00
    2    4   11    -19.20      0.00
    4    4   11     12.09      0.00
    6    4   11     14.66      0.00
    8    4   11     18.99      0.00
   10    4   11    -14.23      0.00
   12    4   11    -14.14      0.00
   14    4   11     -0.44      0.00
   16    4   11      0.57      0.00
   18    4   11      4.15      0.00
   20    4   11     -0.27      0.00
  -25    5   11      2.27      0.00
  -23    5   11      2.25      0.00
  -21    5   11     -2.84      0.00
  -19    5   11      1.83      0.00
  -17    5   11     -2.64      0.00
  -15    5   11     -1.65      0.00
  -13    5   11     -0.40      0.00
  -11    5   11     17.34      0.00
   -9    5   11     31.56      0.00
   -7    5   11     27.46      0.00
   -5    5   11     13.56      0.00
   -3    5   11     70.13      0.00
   -1    5   11     35.18      0.00
    1    5   11    113.94      0.00
    3    5   11    -35.56      0.00
    5    5   11      7.51      0.00
    7    5   11      1.45      0.00
    9    5   11     -1.05      0.00
   11    5   11     21.11      0.00
   13    5   11     11.58      0.00
   15    5   11     14.87      0.00
   17    5   11      3.80      0.00
   19    5   11      0.76      0.00
  -26    6   11     -0.70      0.00
  -24    6   11      2.74      0.00
  -22    6   11      9.23      0.00
  -20    6   11     14.61      0.00
  -18    6   11     19.03      0.00
  -16    6   11     18.71      0.00
  -14    6   11      5.34      0.00
  -12    6   11      1.75      0.00
  -10    6   11    -46.19      0.00
   -8    6   11    -10.49      0.00
   -6    6   11     -4.29      0.00
   -4    6   11     -1.80      0.00
   -2    6   11     37.33      0.00
    0    6   11    -26.95      0.00
    2    6   11     30.56      0.00
    4    6   11     20.38      0.00
    6    6   11    -11.04      0.00
    8    6   11     11.24      0.00
   10    6   11      7.67      0.00
   12    6   11     -4.51      0.00
   14    6   11     -6.33      0.00
   16    6   11    -12.72      0.00
   18    6   11     -1.55      0.00
   20    6   11      0.26      0.00
  -25    7   11     -1.77      0.00
  -23    7   11     -4.66      0.00
  -21    7   11     -8.77      0.00
  -19    7   11    -12.75      0.00
  -17    7   11    -22.24      0.00
  -15    7   11      6.56      0.00
  -13    7   11      1.11      0.00
  -11    7   11      8.03      0.00
   -9    7   11     -0.38      0.00
   -7    7   11     10.33      0.00
   -5    7   11      8.24      0.00
   -3    7   11    -43.29      0.00
   -1    7   11    -25.79      0.00
    1    7   11    -61.66      0.00
    3    7   11     14.01      0.00
    5    7   11     -0.77      0.00
    7    7   11     -2.38      0.00
    9    7   11    -13.40      0.00
   11    7   11     15.49      0.00
   13    7   11      5.97      0.00
   15    7   11     16.20      0.00
   17    7   11      3.19      0.00
   19    7   11      8.46      0.00
  -26    8   11     -0.48      0.00
  -24    8   11      1.39      0.00
  -22    8   11      4.78      0.00
  -20    8   11     11.41      0.00
  -18    8   11     12.73      0.00
  -16    8   11      5.46      0.00
  -14    8   11     -2.19      0.00
  -12    8   11     14.40      0.00
  -10    8   11     10.84      0.00
   -8    8   11      3.03      0.00
   -6    8   11    -53.12      0.00
   -4    8   11    -22.80      0.00
   -2    8   11    -21.16      0.00
    0    8   11     29.37      0.00
    2    8   11    -17.68      0.00
    4    8   11     10.12      0.00
    6    8   11     31.99      0.00
    8    8   11      3.84      0.00
   10    8   11      4.48      0.00
   12    8   11    -11.48      0.00
   14    8   11     -6.21      0.00
   16    8   11     -5.51      0.00
   18    8   11      2.42      0.00
  -25    9   11      2.07      0.00
  -23    9   11      1.50      0.00
  -21    9   11     -9.41      0.00
  -19    9   11     -1.55      0.00
  -17    9   11     -7.74      0.00
  -15    9   11     -3.77      0.00
  -13    9   11     -8.45      0.00
  -11    9   11     13.65      0.00
   -9    9   11      5.94      0.00
   -7    9   11     37.63      0.00
   -5    9   11     11.19      0.00
   -3    9   11     12.15      0.00
   -1    9   11     15.88      0.00
    1    9   11    -14.71      0.00
    3    9   11     12.84      0.00
    5    9   11    -52.80      0.00
    7    9   11     13.61      0.00
    9    9   11    -11.64      0.00
   11    9   11     11.42      0.00
   13    9   11     -2.55      0.00
   15    9   11      8.22      0.00
   17    9   11      0.58      0.00
   19    9   11     -1.37      0.00
  -24   10   11     -1.89      0.00
  -22   10   11      2.87      0.00
  -20   10   11      1.13      0.00
  -18   10   11      0.48      0.00
  -16   10   11     17.14      0.00
  -14   10   11      0.99      0.00
  -12   10   11    -24.98      0.00
  -10   10   11    -31.60      0.00
   -8   10   11    -22.66      0.00
   -6   10   11      1.28      0.00
   -4   10   11     59.16      0.00
   -2   10   11     13.01      0.00
    0   10   11     26.34      0.00
    2   10   11     36.08      0.00
    4   10   11      0.35      0.00
    6   10   11     -2.10      0.00
    8   10   11    -11.08      0.00
   10   10   11      1.42      0.00
   12   10   11    -10.53      0.00
   14   10   11      2.97      0.00
   16   10   11     -8.70      0.00
   18   10   11     -1.57      0.00
  -25   11   11     -3.23      0.00
  -23   11   11     -5.48      0.00
  -21   11   11     -7.79      0.00
  -19   11   11     -7.69      0.00
  -17   11   11    -24.24      0.00
  -15   11   11     -2.93      0.00
  -13   11   11     -9.54      0.00
  -11   11   11     30.93      0.00
   -9   11   11      4.14      0.00
   -7   11   11      7.30      0.00
   -5   11   11    -16.55      0.00
   -3   11   11    -41.48      0.00
   -1   11   11    -21.26      0.00
    1   11   11    -49.91      0.00
    3   11   11    -19.14      0.00
    5   11   11    -18.63      0.00
    7   11   11     -2.48      0.00
    9   11   11    -15.05      0.00
   11   11   11     -0.23      0.00
   13   11   11     -8.76      0.00
   15   11   11     -1.53      0.00
   17   11   11     -2.76      0.00
  -24   12   11     -1.29      0.00
  -22   12   11      4.29      0.00
  -20   12   11     -1.36      0.00
  -18   12   11     13.68      0.00
  -16   12   11    -16.32      0.00
  -14   12   11     -7.46      0.00
  -12   12   11     -7.44      0.00
  -10   12   11    -25.49      0.00
   -8   12   11     -8.59      0.00
   -6   12   11    -44.61      0.00
   -4   12   11    -26.26      0.00
   -2   12   11    -13.13      0.00
    0   12   11      9.31      0.00
    2   12   11      2.19      0.00
    4   12   11     12.55      0.00
    6   12   11     28.64      0.00
    8   12   11     -8.36      0.00
   10   12   11      4.65      0.00
   12   12   11    -11.19      0.00
   14   12   11     -1.62      0.00
   16   12   11     -4.25      0.00
   18   12   11      1.71      0.00
  -23   13   11      1.09      0.00
  -21   13   11     -0.02      0.00
  -19   13   11     -3.96      0.00
  -17   13   11     -4.03      0.00
  -15   13   11     14.48      0.00
  -13   13   11     -8.47      0.00
  -11   13   11     10.15      0.00
   -9   13   11    -15.17      0.00
   -7   13   11     29.14      0.00
   -5   13   11     -2.77      0.00
   -3   13   11     16.05      0.00
   -1   13   11    -18.64      0.00
    1   13   11    -27.33      0.00
    3   13   11     -5.94      0.00
    5   13   11    -28.08      0.00
    7   13   11     -7.40      0.00
    9   13   11     -3.65      0.00
   11   13   11      8.28      0.00
   13   13   11      3.40      0.00
   15   13   11      4.29      0.00
   17   13   11      2.13      0.00
  -24   14   11      0.80      0.00
  -22   14   11      5.65      0.00
  -20   14   11     -1.66      0.00
  -18   14   11     13.93      0.00
  -16   14   11      3.94      0.00
  -14   14   11     18.47      0.00
  -12   14   11     -1.12      0.00
  -10   14   11      9.59      0.00
   -8   14   11     -3.69      0.00
   -6   14   11      9.12      0.00
   -4   14   11      8.68      0.00
   -2   14   11     19.50      0.00
    0   14   11     12.25      0.00
    2   14   11     31.37      0.00
    4   14   11      5.94      0.00
    6   14   11      6.46      0.00
    8   14   11      0.92      0.00
   10   14   11     12.14      0.00
   12   14   11      1.03      0.00
   14   14   11     13.62      0.00
   16   14   11     -3.03      0.00
  -23   15   11     -6.22      0.00
  -21   15   11      5.19      0.00
  -19   15   11      9.32      0.00
  -17   15   11      0.60      0.00
  -15   15   11     11.50      0.00
  -13   15   11     -7.12      0.00
  -11   15   11     30.81      0.00
   -9   15   11     14.76      0.00
   -7   15   11     10.22      0.00
   -5   15   11     16.29      0.00
   -3   15   11      3.51      0.00
   -1   15   11     34.75      0.00
    1   15   11      5.11      0.00
    3   15   11     15.62      0.00
    5   15   11     -7.86      0.00
    7   15   11     28.31      0.00
    9   15   11     -5.19      0.00
   11   15   11     10.28      0.00
   13   15   11     -5.84      0.00
   15   15   11     -0.40      0.00
   17   15   11      4.39      0.00
  -22   16   11      0.86      0.00
  -20   16   11     -6.44      0.00
  -18   16   11     -1.40      0.00
  -16   16   11     -2.49      0.00
  -14   16   11     -4.04      0.00
  -12   16   11     14.69      0.00
  -10   16   11    -18.43      0.00
   -8   16   11     31.75      0.00
   -6   16   11    -10.57      0.00
   -4   16   11     32.23      0.00
   -2   16   11    -19.18      0.00
    0   16   11     19.01      0.00
    2   16   11     -7.41      0.00
    4   16   11     16.09      0.00
    6   16   11     25.96      0.00
    8   16   11      0.05      0.00
   10   16   11     11.69      0.00
   12   16   11     -8.79      0.00
   14   16   11      7.09      0.00
   16   16   11     -0.16      0.00
  -23   17   11      3.88      0.00
  -21   17   11      1.65      0.00
  -19   17   11     -0.08      0.00
  -17   17   11     -8.47      0.00
  -15   17   11      7.90      0.00
  -13   17   11    -14.67      0.00
  -11   17   11      6.12      0.00
   -9   17   11    -17.28      0.00
   -7   17   11     12.90      0.00
   -5   17   11     -2.88      0.00
   -3   17   11     -1.60      0.00
   -1   17   11     -0.88      0.00
    1   17   11    -14.71      0.00
    3   17   11     26.39      0.00
    5   17   11    -26.38      0.00
    7   17   11     -1.42      0.00
    9   17   11    -15.26      0.00
   11   17   11      0.78      0.00
   13   17   11     -3.85      0.00
   15   17   11     -1.48      0.00
  -22   18   11     -3.38      0.00
  -20   18   11     -4.84      0.00
  -18   18   11      3.14      0.00
  -16   18   11    -11.88      0.00
  -14   18   11      0.87      0.00
  -12   18   11    -11.62      0.00
  -10   18   11    -11.39      0.00
   -8   18   11     -6.81      0.00
   -6   18   11    -40.57      0.00
   -4   18   11     -1.06      0.00
   -2   18   11    -24.07      0.00
    0   18   11     -0.01      0.00
    2   18   11    -17.02      0.00
    4   18   11    -23.07      0.00
    6   18   11     -7.34      0.00
    8   18   11    -19.78      0.00
   10   18   11      6.06      0.00
   12   18   11     -4.73      0.00
   14   18   11      3.26      0.00
  -21   19   11     -0.81      0.00
  -19   19   11     -1.45      0.00
  -17   19   11      2.22      0.00
  -15   19   11      0.19      0.00
  -13   19   11    -11.17      0.00
  -11   19   11      9.19      0.00
   -9   19   11    -34.51      0.00
   -7   19   11      2.75      0.00
   -5   19   11    -18.01      0.00
   -3   19   11     -7.52      0.00
   -1   19   11      4.15      0.00
    1   19   11    -33.50      0.00
    3   19   11      2.34      0.00
    5   19   11    -14.46      0.00
    7   19   11     10.94      0.00
    9   19   11     -6.17      0.00
   11   19   11     -2.27      0.00
   13   19   11     -3.61      0.00
   15   19   11     -0.62      0.00
  -20   20   11      1.20      0.00
  -18   20   11     -3.47      0.00
  -16   20   11     -0.47      0.00
  -14   20   11      4.41      0.00
  -12   20   11     -1.26      0.00
  -10   20   11     17.61      0.00
   -8   20   11     13.31      0.00
   -6   20   11      3.48      0.00
   -4   20   11      2.79      0.00
   -2   20   11    -22.95      0.00
    0   20   11      3.40      0.00
    2   20   11     -1.29      0.00
    4   20   11     -2.17      0.00
    6   20   11      7.30      0.00
    8   20   11     -2.50      0.00
   10   20   11      0.51      0.00
   12   20   11     -3.21      0.00
   14   20   11     -0.92      0.00
  -19   21   11      1.95      0.00
  -17   21   11      2.04      0.00
  -15   21   11     -3.78      0.00
  -13   21   11      1.10      0.00
  -11   21   11     -5.52      0.00
   -9   21   11     -2.64      0.00
   -7   21   11     22.33      0.00
   -5   21   11     -7.40      0.00
   -3   21   11     23.04      0.00
   -1   21   11      8.55      0.00
    1   21   11     16.73      0.00
    3   21   11     24.48      0.00
    5   21   11      2.87      0.00
    7   21   11      4.50      0.00
    9   21   11      7.05      0.00
   11   21   11      6.77      0.00
   13   21   11      0.79      0.00
  -18   22   11      1.95      0.00
  -16   22   11      2.27      0.00
  -14   22   11      8.99      0.00
  -12   22   11      5.13      0.00
  -10   22   11      5.98      0.00
   -8   22   11     -9.09      0.00
   -6   22   11      1.96      0.00
   -4   22   11     14.96      0.00
   -2   22   11      5.69      0.00
    0   22   11     12.43      0.00
    2   22   11     -9.32      0.00
    4   22   11     -1.09      0.00
    6   22   11      0.30      0.00
    8   22   11     -4.96      0.00
   10   22   11     -4.52      0.00
   12   22   11     -0.15      0.00
  -17   23   11      3.88      0.00
  -15   23   11     -4.98      0.00
  -13   23   11      2.90      0.00
  -11   23   11     -3.19      0.00
   -9   23   11      2.35      0.00
   -7   23   11     -1.44      0.00
   -5   23   11     -0.21      0.00
   -3   23   11      2.65      0.00
   -1   23   11     -5.14      0.00
    1   23   11      2.80      0.00
    3   23   11     -8.08      0.00
    5   23   11      8.30      0.00
    7   23   11     -0.59      0.00
    9   23   11      1.69      0.00
   11   23   11      0.30      0.00
  -16   24   11     -0.34      0.00
  -14   24   11      3.93      0.00
  -12   24   11     -5.10      0.00
  -10   24   11     17.35      0.00
   -8   24   11     -7.24      0.00
   -6   24   11     16.92      0.00
   -4   24   11    -17.79      0.00
   -2   24   11      5.50      0.00
    0   24   11     -9.17      0.00
    2   24   11      9.79      0.00
    4   24   11     -1.48      0.00
    6   24   11     -6.06      0.00
    8   24   11      7.44      0.00
  -13   25   11     -0.57      0.00
  -11   25   11     -9.37      0.00
   -9   25   11     -3.42      0.00
   -7   25   11      3.84      0.00
   -5   25   11    -10.79      0.00
   -3   25   11      9.14      0.00
   -1   25   11    -16.76      0.00
    1   25   11      3.55      0.00
    3   25   11     -1.14      0.00
    5   25   11      6.49      0.00
    7   25   11      3.12      0.00
  -14   26   11     -0.14      0.00
  -12   26   11      4.38      0.00
  -10   26   11      3.47      0.00
   -8   26   11    -10.14      0.00
   -6   26   11      2.27      0.00
   -4   26   11     -7.26      0.00
   -2   26   11      7.59      0.00
    0   26   11      6.32      0.00
    2   26   11    -10.86      0.00
    4   26   11      3.15      0.00
    6   26   11     -6.44      0.00
  -13   27   11      0.09      0.00
  -11   27   11     -6.97      0.00
   -9   27   11      6.21      0.00
   -7   27   11     -3.75      0.00
   -5   27   11      1.52      0.00
   -3   27   11      1.62      0.00
   -1   27   11     -4.60      0.00
    1   27   11     14.55      0.00
    3   27   11    -12.02      0.00
    5   27   11      0.53      0.00
  -10   28   11     -4.48      0.00
   -8   28   11     -2.00      0.00
   -6   28   11      5.49      0.00
   -4   28   11     -0.24      0.00
   -2   28   11      0.10      0.00
    0   28   11    -10.25      0.00
    2   28   11     -0.76      0.00
    4   28   11      4.58      0.00
   -3   29   11     -1.56      0.00
   -1   29   11     -3.19      0.00
    3   29   11      2.28      0.00
   -2   30   11      1.74      0.00
  -26    0   12     -0.16      0.00
  -24    0   12      5.51      0.00
  -22    0   12     -2.88      0.00
  -20    0   12      1.80      0.00
  -18    0   12     -3.65      0.00
  -16    0   12     24.21      0.00
  -14    0   12     13.68      0.00
  -12    0   12     45.16      0.00
  -10    0   12     31.49      0.00
   -8    0   12    -11.84      0.00
   -6    0   12    -25.11      0.00
   -4    0   12     96.59      0.00
   -2    0   12     16.93      0.00
    0    0   12    163.40      0.00
    2    0   12     51.37      0.00
    4    0   12      1.98      0.00
    6    0   12     46.97      0.00
    8    0   12      6.33      0.00
   10    0   12      2.55      0.00
   12    0   12      3.42      0.00
   14    0   12      4.89      0.00
   16    0   12      7.58      0.00
   18    0   12      1.51      0.00
  -25    1   12      0.18      0.00
  -23    1   12      1.61      0.00
  -21    1   12      3.91      0.00
  -19    1   12     18.91      0.00
  -17    1   12      8.08      0.00
  -15    1   12     11.17      0.00
  -13    1   12    -10.36      0.00
  -11    1   12     45.59      0.00
   -9    1   12     -6.55      0.00
   -7    1   12     82.25      0.00
   -5    1   12    -29.43      0.00
   -3    1   12     -3.78      0.00
   -1    1   12    -11.18      0.00
    1    1   12    -36.60      0.00
    3    1   12      1.73      0.00
    5    1   12      2.34      0.00
    7    1   12     -2.84      0.00
    9    1   12      3.14      0.00
   11    1   12     -7.32      0.00
   13    1   12     -0.23      0.00
   15    1   12      0.64      0.00
   17    1   12      1.16      0.00
   19    1   12      2.58      0.00
  -26    2   12     -3.69      0.00
  -24    2   12      2.45      0.00
  -22    2   12     -2.89      0.00
  -20    2   12     -6.43      0.00
  -18    2   12    -20.04      0.00
  -16    2   12    -10.01      0.00
  -14    2   12     -0.33      0.00
  -12    2   12    -17.75      0.00
  -10    2   12    -34.97      0.00
   -8    2   12     19.92      0.00
   -6    2   12      3.99      0.00
   -4    2   12     30.49      0.00
   -2    2   12     -5.93      0.00
    0    2   12    -56.10      0.00
    2    2   12     29.40      0.00
    4    2   12     -1.16      0.00
    6    2   12     -4.40      0.00
    8    2   12     -1.76      0.00
   10    2   12     19.52      0.00
   12    2   12     18.48      0.00
   14    2   12      5.89      0.00
   16    2   12      3.24      0.00
   18    2   12     -0.68      0.00
  -25    3   12      1.25      0.00
  -23    3   12      0.63      0.00
  -21    3   12      4.87      0.00
  -19    3   12      4.88      0.00
  -17    3   12     -2.64      0.00
  -15    3   12     -9.56      0.00
  -13    3   12    -10.23      0.00
  -11    3   12    -48.65      0.00
   -9    3   12     -3.22      0.00
   -7    3   12    -73.46      0.00
   -5    3   12    -18.33      0.00
   -3    3   12     -3.99      0.00
   -1    3   12      2.09      0.00
    1    3   12    -32.72      0.00
    3    3   12    -29.65      0.00
    5    3   12      5.67      0.00
    7    3   12    -12.36      0.00
    9    3   12      2.95      0.00
   11    3   12    -19.16      0.00
   13    3   12    -14.61      0.00
   15    3   12    -11.24      0.00
   17    3   12     -5.75      0.00
   19    3   12     -0.71      0.00
  -26    4   12     -6.72      0.00
  -24    4   12     -2.68      0.00
  -22    4   12     -9.25      0.00
  -20    4   12     -7.44      0.00
  -18    4   12     -9.00      0.00
  -16    4   12     -1.65      0.00
  -14    4   12    -12.91      0.00
  -12    4   12     -0.28      0.00
  -10    4   12      2.08      0.00
   -8    4   12    -29.73      0.00
   -6    4   12    -14.85      0.00
   -4    4   12    -92.97      0.00
   -2    4   12     11.78      0.00
    0    4   12    -29.58      0.00
    2    4   12     55.63      0.00
    4    4   12    -44.37      0.00
    6    4   12      1.81      0.00
    8    4   12     -6.75      0.00
   10    4   12     -1.76      0.00
   12    4   12     -0.87      0.00
   14    4   12     -1.78      0.00
   16    4   12      4.20      0.00
   18    4   12     -1.23      0.00
  -25    5   12      1.20      0.00
  -23    5   12     -4.02      0.00
  -21    5   12      1.77      0.00
  -19    5   12     -3.87      0.00
  -17    5   12      5.87      0.00
  -15    5   12      2.39      0.00
  -13    5   12      6.59      0.00
  -11    5   12     14.90      0.00
   -9    5   12     -6.36      0.00
   -7    5   12     17.13      0.00
   -5    5   12     17.52      0.00
   -3    5   12     -2.72      0.00
   -1    5   12    -27.86      0.00
    1    5   12     12.55      0.00
    3    5   12    -30.41      0.00
    5    5   12     27.52      0.00
    7    5   12    -37.02      0.00
    9    5   12     -8.81      0.00
   11    5   12     -9.88      0.00
   13    5   12      6.03      0.00
   15    5   12     -0.62      0.00
   17    5   12     -0.51      0.00
   19    5   12     -1.70      0.00
  -26    6   12     -0.19      0.00
  -24    6   12      7.78      0.00
  -22    6   12     -4.80      0.00
  -20    6   12     10.39      0.00
  -18    6   12     -9.98      0.00
  -16    6   12      7.39      0.00
  -14    6   12     -6.34      0.00
  -12    6   12     21.83      0.00
  -10    6   12      8.16      0.00
   -8    6   12      6.43      0.00
   -6    6   12     30.15      0.00
   -4    6   12      1.33      0.00
   -2    6   12     52.05      0.00
    0    6   12    -29.31      0.00
    2    6   12     -1.24      0.00
    4    6   12    -11.49      0.00
    6    6   12     13.23      0.00
    8    6   12     14.45      0.00
   10    6   12     -2.68      0.00
   12    6   12     -3.65      0.00
   14    6   12     -7.21      0.00
   16    6   12     -2.45      0.00
   18    6   12     -5.80      0.00
  -25    7   12     -0.33      0.00
  -23    7   12      0.79      0.00
  -21    7   12     -0.99      0.00
  -19    7   12      2.26      0.00
  -17    7   12      1.41      0.00
  -15    7   12     -8.27      0.00
  -13    7   12     -0.82      0.00
  -11    7   12    -21.41      0.00
   -9    7   12     39.07      0.00
   -7    7   12      6.12      0.00
   -5    7   12     56.24      0.00
   -3    7   12     26.85      0.00
   -1    7   12     -9.06      0.00
    1    7   12     55.28      0.00
    3    7   12    -36.09      0.00
    5    7   12     25.40      0.00
    7    7   12     -3.29      0.00
    9    7   12      7.43      0.00
   11    7   12     -0.85      0.00
   13    7   12      3.76      0.00
   15    7   12      0.43      0.00
   17    7   12      2.01      0.00
   19    7   12      2.81      0.00
  -26    8   12     -4.34      0.00
  -24    8   12      1.27      0.00
  -22    8   12     -1.82      0.00
  -20    8   12      7.07      0.00
  -18    8   12     -0.76      0.00
  -16    8   12     18.89      0.00
  -14    8   12    -11.06      0.00
  -12    8   12     10.42      0.00
  -10    8   12    -12.42      0.00
   -8    8   12     -1.37      0.00
   -6    8   12    -19.47      0.00
   -4    8   12    -80.08      0.00
   -2    8   12     20.52      0.00
    0    8   12    -20.16      0.00
    2    8   12     37.65      0.00
    4    8   12      5.60      0.00
    6    8   12    -17.37      0.00
    8    8   12     10.20      0.00
   10    8   12      8.00      0.00
   12    8   12     11.08      0.00
   14    8   12      1.30      0.00
   16    8   12      5.07      0.00
   18    8   12      2.51      0.00
  -25    9   12     -0.56      0.00
  -23    9   12      5.08      0.00
  -21    9   12     -1.80      0.00
  -19    9   12     -0.43      0.00
  -17    9   12     -6.67      0.00
  -15    9   12     10.99      0.00
  -13    9   12     23.06      0.00
  -11    9   12    -19.66      0.00
   -9    9   12    -23.46      0.00
   -7    9   12    -42.65      0.00
   -5    9   12      9.73      0.00
   -3    9   12     33.02      0.00
   -1    9   12    -14.84      0.00
    1    9   12     -5.06      0.00
    3    9   12     14.99      0.00
    5    9   12     30.42      0.00
    7    9   12     -7.40      0.00
    9    9   12      4.50      0.00
   11    9   12      2.04      0.00
   13    9   12      5.31      0.00
   15    9   12      6.88      0.00
   17    9   12      1.99      0.00
  -24   10   12      3.09      0.00
  -22   10   12     -2.08      0.00
  -20   10   12     11.79      0.00
  -18   10   12     -7.56      0.00
  -16   10   12      2.96      0.00
  -14   10   12    -14.46      0.00
  -12   10   12      7.21      0.00
  -10   10   12     26.46      0.00
   -8   10   12     23.41      0.00
   -6   10   12     24.68      0.00
   -4   10   12    -12.00      0.00
   -2   10   12      3.52      0.00
    0   10   12      6.03      0.00
    2   10   12     -0.37      0.00
    4   10   12    -14.85      0.00
    6   10   12      9.83      0.00
    8   10   12     -0.06      0.00
   10   10   12     -5.24      0.00
   12   10   12     -2.82      0.00
   14   10   12     -6.75      0.00
   16   10   12      1.95      0.00
   18   10   12     -4.26      0.00
  -25   11   12     -4.89      0.00
  -23   11   12      0.61      0.00
  -21   11   12     -7.69      0.00
  -19   11   12      7.73      0.00
  -17   11   12     16.39      0.00
  -15   11   12    -10.21      0.00
  -13   11   12      9.12      0.00
  -11   11   12      5.82      0.00
   -9   11   12     24.53      0.00
   -7   11   12     28.35      0.00
   -5   11   12      4.70      0.00
   -3   11   12     12.94      0.00
   -1   11   12     -5.18      0.00
    1   11   12      9.28      0.00
    3   11   12    -21.91      0.00
    5   11   12     -9.21      0.00
    7   11   12     19.73      0.00
    9   11   12     11.35      0.00
   11   11   12      8.66      0.00
   13   11   12      7.40      0.00
   15   11   12     -0.40      0.00
   17   11   12     -1.24      0.00
  -24   12   12      3.49      0.00
  -22   12   12      3.90      0.00
  -20   12   12      4.28      0.00
  -18   12   12    -16.53      0.00
  -16   12   12     13.74      0.00
  -14   12   12     -6.07      0.00
  -12   12   12     -1.07      0.00
  -10   12   12    -16.14      0.00
   -8   12   12    -31.67      0.00
   -6   12   12     14.11      0.00
   -4   12   12     -2.63      0.00
   -2   12   12      2.38      0.00
    0   12   12     12.26      0.00
    2   12   12      0.29      0.00
    4   12   12      8.67      0.00
    6   12   12     -9.45      0.00
    8   12   12    -22.34      0.00
   10   12   12    -14.78      0.00
   12   12   12    -12.90      0.00
   14   12   12     -9.72      0.00
   16   12   12      0.22      0.00
   18   12   12     -4.59      0.00
  -23   13   12     -8.42      0.00
  -21   13   12    -10.23      0.00
  -19   13   12     -5.07      0.00
  -17   13   12    -12.45      0.00
  -15   13   12     -7.52      0.00
  -13   13   12     10.56      0.00
  -11   13   12    -24.14      0.00
   -9   13   12      5.24      0.00
   -7   13   12    -39.24      0.00
   -5   13   12    -17.22      0.00
   -3   13   12    -12.13      0.00
   -1   13   12    -21.28      0.00
    1   13   12    -27.89      0.00
    3   13   12      3.73      0.00
    5   13   12     -9.73      0.00
    7   13   12    -15.16      0.00
    9   13   12     -5.78      0.00
   11   13   12     -7.81      0.00
   13   13   12      0.13      0.00
   15   13   12     -0.96      0.00
   17   13   12     -1.25      0.00
  -22   14   12     -0.54      0.00
  -20   14   12     -1.86      0.00
  -18   14   12     -7.20      0.00
  -16   14   12     -6.45      0.00
  -14   14   12    -25.85      0.00
  -12   14   12    -13.68      0.00
  -10   14   12    -18.86      0.00
   -8   14   12      5.05      0.00
   -6   14   12    -12.35      0.00
   -4   14   12    -14.04      0.00
   -2   14   12    -10.50      0.00
    0   14   12      3.77      0.00
    2   14   12      2.78      0.00
    4   14   12     -8.08      0.00
    6   14   12     -7.47      0.00
    8   14   12      3.33      0.00
   10   14   12      2.97      0.00
   12   14   12      4.88      0.00
   14   14   12     -0.97      0.00
   16   14   12      0.12      0.00
  -23   15   12     -1.61      0.00
  -21   15   12      2.93      0.00
  -19   15   12      7.56      0.00
  -17   15   12      7.86      0.00
  -15   15   12      6.62      0.00
  -13   15   12      8.98      0.00
  -11   15   12     15.34      0.00
   -9   15   12      4.11      0.00
   -7   15   12      4.09      0.00
   -5   15   12    -10.37      0.00
   -3   15   12     -0.12      0.00
   -1   15   12    -21.23      0.00
    1   15   12    -11.55      0.00
    3   15   12    -21.15      0.00
    5   15   12      0.74      0.00
    7   15   12     15.49      0.00
    9   15   12      8.55      0.00
   11   15   12      5.34      0.00
   13   15   12      1.84      0.00
   15   15   12     -2.83      0.00
  -22   16   12      9.17      0.00
  -20   16   12      2.42      0.00
  -18   16   12      2.19      0.00
  -16   16   12      6.34      0.00
  -14   16   12      3.66      0.00
  -12   16   12      5.61      0.00
  -10   16   12     -3.35      0.00
   -8   16   12     -1.48      0.00
   -6   16   12     29.83      0.00
   -4   16   12     19.82      0.00
   -2   16   12     35.55      0.00
    0   16   12     17.54      0.00
    2   16   12     23.24      0.00
    4   16   12     21.88      0.00
    6   16   12     12.62      0.00
    8   16   12     -3.93      0.00
   10   16   12      1.80      0.00
   12   16   12     -3.48      0.00
   14   16   12      4.05      0.00
   16   16   12      1.60      0.00
  -23   17   12     -4.36      0.00
  -21   17   12      1.43      0.00
  -19   17   12      0.36      0.00
  -17   17   12      9.39      0.00
  -15   17   12      6.41      0.00
  -13   17   12     18.52      0.00
  -11   17   12     10.24      0.00
   -9   17   12     36.58      0.00
   -7   17   12     -2.85      0.00
   -5   17   12     16.57      0.00
   -3   17   12    -11.63      0.00
   -1   17   12     15.70      0.00
    1   17   12      3.27      0.00
    3   17   12     14.36      0.00
    5   17   12     -4.40      0.00
    7   17   12      3.28      0.00
    9   17   12     -4.93      0.00
   11   17   12      5.67      0.00
   13   17   12      4.27      0.00
   15   17   12      2.50      0.00
  -22   18   12     -0.04      0.00
  -20   18   12     -5.04      0.00
  -18   18   12      2.60      0.00
  -16   18   12     -6.08      0.00
  -14   18   12     -3.60      0.00
  -12   18   12     -0.65      0.00
  -10   18   12    -12.60      0.00
   -8   18   12      8.89      0.00
   -6   18   12    -11.98      0.00
   -4   18   12     14.41      0.00
   -2   18   12      3.55      0.00
    0   18   12     22.62      0.00
    2   18   12      5.28      0.00
    4   18   12     -1.50      0.00
    6   18   12      5.17      0.00
    8   18   12      3.35      0.00
   10   18   12      6.07      0.00
   12   18   12     -5.32      0.00
   14   18   12      2.70      0.00
  -21   19   12      1.44      0.00
  -19   19   12     -2.61      0.00
  -17   19   12     -8.83      0.00
  -15   19   12      4.25      0.00
  -13   19   12    -16.08      0.00
  -11   19   12      7.83      0.00
   -9   19   12     -9.42      0.00
   -7   19   12     -0.80      0.00
   -5   19   12     11.07      0.00
   -3   19   12    -14.24      0.00
   -1   19   12    -11.83      0.00
    1   19   12    -33.90      0.00
    3   19   12     -3.90      0.00
    5   19   12    -16.41      0.00
    7   19   12      2.71      0.00
    9   19   12     -6.73      0.00
   11   19   12      0.51      0.00
   13   19   12     -2.70      0.00
  -20   20   12     -3.25      0.00
  -18   20   12      6.92      0.00
  -16   20   12     -8.19      0.00
  -14   20   12      0.48      0.00
  -12   20   12     -5.75      0.00
  -10   20   12    -24.81      0.00
   -8   20   12      6.63      0.00
   -6   20   12    -27.39      0.00
   -4   20   12      3.97      0.00
   -2   20   12    -27.33      0.00
    0   20   12      3.30      0.00
    2   20   12     -6.86      0.00
    4   20   12      7.72      0.00
    6   20   12     -4.27      0.00
    8   20   12     -5.27      0.00
   10   20   12      4.47      0.00
   12   20   12     -0.97      0.00
  -19   21   12     -3.34      0.00
  -17   21   12     -0.52      0.00
  -15   21   12      3.21      0.00
  -13   21   12    -10.02      0.00
  -11   21   12     22.22      0.00
   -9   21   12    -19.84      0.00
   -7   21   12      7.06      0.00
   -5   21   12    -24.01      0.00
   -3   21   12     -1.28      0.00
   -1   21   12     10.51      0.00
    1   21   12    -10.61      0.00
    3   21   12     11.45      0.00
    5   21   12    -11.27      0.00
    7   21   12     11.05      0.00
    9   21   12    -10.45      0.00
   11   21   12      0.08      0.00
  -18   22   12      2.18      0.00
  -16   22   12     -4.99      0.00
  -14   22   12      6.20      0.00
  -12   22   12     -1.88      0.00
  -10   22   12     -2.89      0.00
   -8   22   12     15.02      0.00
   -6   22   12    -25.65      0.00
   -4   22   12     29.22      0.00
   -2   22   12    -19.89      0.00
    0   22   12     24.52      0.00
    2   22   12    -12.56      0.00
    4   22   12     -4.78      0.00
    6   22   12     -1.12      0.00
    8   22   12     -2.60      0.00
   10   22   12      1.45      0.00
  -17   23   12      1.78      0.00
  -15   23   12      1.23      0.00
  -13   23   12     -4.20      0.00
  -11   23   12     -0.78      0.00
   -9   23   12      3.00      0.00
   -7   23   12     14.31      0.00
   -5   23   12     18.05      0.00
   -3   23   12     -5.29      0.00
   -1   23   12     10.02      0.00
    1   23   12    -17.21      0.00
    3   23   12     19.67      0.00
    5   23   12     -7.66      0.00
    7   23   12      2.78      0.00
    9   23   12     -1.61      0.00
  -14   24   12      8.29      0.00
  -12   24   12      0.86      0.00
  -10   24   12      2.75      0.00
   -8   24   12     -1.89      0.00
   -6   24   12     -0.44      0.00
   -4   24   12      5.31      0.00
   -2   24   12     -6.84      0.00
    0   24   12      2.68      0.00
    2   24   12     -6.18      0.00
    4   24   12      3.75      0.00
    6   24   12     -2.36      0.00
    8   24   12     -4.98      0.00
  -15   25   12     -0.31      0.00
  -13   25   12     -1.04      0.00
  -11   25   12      6.34      0.00
   -9   25   12     -2.99      0.00
   -7   25   12      1.14      0.00
   -5   25   12     -4.90      0.00
   -3   25   12      5.59      0.00
   -1   25   12      9.73      0.00
    1   25   12      6.10      0.00
    3   25   12      3.12      0.00
    5   25   12      3.60      0.00
    7   25   12     13.86      0.00
  -14   26   12      0.23      0.00
  -12   26   12     -1.81      0.00
  -10   26   12     -0.42      0.00
   -8   26   12      3.24      0.00
   -6   26   12     -5.39      0.00
   -4   26   12     -3.43      0.00
   -2   26   12     -5.89      0.00
    0   26   12     -2.26      0.00
    2   26   12      9.69      0.00
    4   26   12     -3.76      0.00
    6   26   12     -1.06      0.00
  -13   27   12      3.63      0.00
  -11   27   12     -2.72      0.00
   -9   27   12      0.24      0.00
   -7   27   12     -3.58      0.00
   -5   27   12      7.20      0.00
   -3   27   12      0.29      0.00
   -1   27   12      3.73      0.00
    1   27   12     -6.29      0.00
    3   27   12      0.12      0.00
    5   27   12      2.72      0.00
  -10   28   12      2.90      0.00
   -8   28   12      1.96      0.00
   -6   28   12      5.55      0.00
   -4   28   12     -1.23      0.00
   -2   28   12      4.88      0.00
    0   28   12     -3.94      0.00
    2   28   12     -7.26      0.00
    1   29   12      8.21      0.00
  -25    1   13      1.04      0.00
  -23    1   13      2.52      0.00
  -21    1   13     11.54      0.00
  -19    1   13     12.12      0.00
  -17    1   13      9.98      0.00
  -15    1   13     -2.27      0.00
  -13    1   13     18.87      0.00
  -11    1   13      8.04      0.00
   -9    1   13    -36.07      0.00
   -7    1   13     50.58      0.00
   -5    1   13     31.72      0.00
   -3    1   13     50.73      0.00
   -1    1   13     50.62      0.00
    1    1   13    -40.27      0.00
    3    1   13      8.65      0.00
    5    1   13      9.62      0.00
    7    1   13     -6.18      0.00
    9    1   13    -19.47      0.00
   11    1   13     -3.06      0.00
   13    1   13      0.70      0.00
   15    1   13     -0.26      0.00
   17    1   13     -1.50      0.00
  -26    2   13      0.29      0.00
  -24    2   13     -1.83      0.00
  -22    2   13     -0.03      0.00
  -20    2   13      3.03      0.00
  -18    2   13      8.52      0.00
  -16    2   13     13.69      0.00
  -14    2   13     12.79      0.00
  -12    2   13     30.96      0.00
  -10    2   13     17.88      0.00
   -8    2   13     46.97      0.00
   -6    2   13    -19.03      0.00
   -4    2   13     42.86      0.00
   -2    2   13    -27.18      0.00
    0    2   13     62.92      0.00
    2    2   13    -35.81      0.00
    4    2   13     11.50      0.00
    6    2   13      4.79      0.00
    8    2   13     17.31      0.00
   10    2   13     17.07      0.00
   12    2   13     11.84      0.00
   14    2   13      5.44      0.00
   16    2   13      5.35      0.00
   18    2   13      0.48      0.00
  -25    3   13      4.40      0.00
  -23    3   13      4.15      0.00
  -21    3   13      1.57      0.00
  -19    3   13     -1.30      0.00
  -17    3   13     -0.46      0.00
  -15    3   13      2.53      0.00
  -13    3   13      3.17      0.00
  -11    3   13     15.29      0.00
   -9    3   13      9.81      0.00
   -7    3   13     19.11      0.00
   -5    3   13    -38.07      0.00
   -3    3   13    -23.43      0.00
   -1    3   13    -25.65      0.00
    1    3   13     21.58      0.00
    3    3   13     41.97      0.00
    5    3   13    -14.19      0.00
    7    3   13     15.05      0.00
    9    3   13     -6.61      0.00
   11    3   13     -6.28      0.00
   13    3   13     -4.44      0.00
   15    3   13     -0.43      0.00
   17    3   13      2.64      0.00
  -26    4   13     -1.51      0.00
  -24    4   13     -4.84      0.00
  -22    4   13     -4.07      0.00
  -20    4   13     -7.73      0.00
  -18    4   13     -1.22      0.00
  -16    4   13     -0.12      0.00
  -14    4   13      3.33      0.00
  -12    4   13    -42.15      0.00
  -10    4   13     17.09      0.00
   -8    4   13    -26.12      0.00
   -6    4   13     19.43      0.00
   -4    4   13     48.76      0.00
   -2    4   13     -9.19      0.00
    0    4   13     21.92      0.00
    2    4   13     -0.58      0.00
    4    4   13     19.78      0.00
    6    4   13      2.21      0.00
    8    4   13      6.42      0.00
   10    4   13     12.62      0.00
   12    4   13      8.16      0.00
   14    4   13      5.19      0.00
   16    4   13      1.73      0.00
   18    4   13      0.30      0.00
  -25    5   13      2.40      0.00
  -23    5   13      5.02      0.00
  -21    5   13      5.43      0.00
  -19    5   13     -2.00      0.00
  -17    5   13    -16.37      0.00
  -15    5   13    -17.87      0.00
  -13    5   13     -6.39      0.00
  -11    5   13     -9.60      0.00
   -9    5   13    -43.93      0.00
   -7    5   13    -10.05      0.00
   -5    5   13    -50.35      0.00
   -3    5   13     30.50      0.00
   -1    5   13    -13.67      0.00
    1    5   13    -12.99      0.00
    3    5   13    -15.01      0.00
    5    5   13     -4.68      0.00
    7    5   13     -6.80      0.00
    9    5   13     -5.87      0.00
   11    5   13    -13.45      0.00
   13    5   13     -3.83      0.00
   15    5   13     -0.52      0.00
   17    5   13      1.27      0.00
  -26    6   13     -1.66      0.00
  -24    6   13     -2.50      0.00
  -22    6   13     -6.06      0.00
  -20    6   13     -2.02      0.00
  -18    6   13      9.37      0.00
  -16    6   13      7.67      0.00
  -14    6   13      1.65      0.00
  -12    6   13     -7.52      0.00
  -10    6   13    -16.05      0.00
   -8    6   13      3.88      0.00
   -6    6   13    -32.63      0.00
   -4    6   13    -11.58      0.00
   -2    6   13    -22.27      0.00
    0    6   13     -0.71      0.00
    2    6   13    -15.90      0.00
    4    6   13    -22.25      0.00
    6    6   13     -8.16      0.00
    8    6   13      8.37      0.00
   10    6   13     12.77      0.00
   12    6   13      5.58      0.00
   14    6   13     -4.17      0.00
   16    6   13     -6.00      0.00
   18    6   13     -4.49      0.00
  -25    7   13      1.18      0.00
  -23    7   13     -3.58      0.00
  -21    7   13      6.76      0.00
  -19    7   13    -14.36      0.00
  -17    7   13      8.49      0.00
  -15    7   13    -16.75      0.00
  -13    7   13      8.92      0.00
  -11    7   13      4.07      0.00
   -9    7   13     12.67      0.00
   -7    7   13     28.81      0.00
   -5    7   13     32.40      0.00
   -3    7   13    -37.25      0.00
   -1    7   13    -11.14      0.00
    1    7   13     -9.81      0.00
    3    7   13     -7.21      0.00
    5    7   13      4.12      0.00
    7    7   13    -32.18      0.00
    9    7   13    -24.99      0.00
   11    7   13    -27.25      0.00
   13    7   13     -7.39      0.00
   15    7   13     -4.87      0.00
   17    7   13      0.58      0.00
  -26    8   13     -4.05      0.00
  -24    8   13     -1.75      0.00
  -22    8   13     -8.25      0.00
  -20    8   13      3.06      0.00
  -18    8   13     -7.20      0.00
  -16    8   13      2.67      0.00
  -14    8   13     17.60      0.00
  -12    8   13     28.73      0.00
  -10    8   13     21.79      0.00
   -8    8   13     -2.68      0.00
   -6    8   13    -24.57      0.00
   -4    8   13    -16.82      0.00
   -2    8   13     19.44      0.00
    0    8   13    -10.77      0.00
    2    8   13     -1.45      0.00
    4    8   13      6.59      0.00
    6    8   13     18.66      0.00
    8    8   13      3.58      0.00
   10    8   13      4.45      0.00
   12    8   13      5.12      0.00
   14    8   13      1.27      0.00
   16    8   13     -2.24      0.00
   18    8   13     -2.15      0.00
  -25    9   13      3.07      0.00
  -23    9   13      3.33      0.00
  -21    9   13      4.11      0.00
  -19    9   13     -2.33      0.00
  -17    9   13      3.49      0.00
  -15    9   13    -23.99      0.00
  -13    9   13    -10.63      0.00
  -11    9   13    -35.86      0.00
   -9    9   13     16.02      0.00
   -7    9   13    -16.89      0.00
   -5    9   13     55.41      0.00
   -3    9   13     12.42      0.00
   -1    9   13     25.70      0.00
    1    9   13     12.22      0.00
    3    9   13    -13.99      0.00
    5    9   13     -2.80      0.00
    7    9   13     -6.12      0.00
    9    9   13     15.34      0.00
   11    9   13     -1.67      0.00
   13    9   13      6.42      0.00
   15    9   13      1.46      0.00
   17    9   13      7.36      0.00
  -24   10   13      3.70      0.00
  -22   10   13     -1.39      0.00
  -20   10   13      3.71      0.00
  -18   10   13      2.70      0.00
  -16   10   13     23.87      0.00
  -14   10   13     -4.63      0.00
  -12   10   13     -9.74      0.00
  -10   10   13    -23.49      0.00
   -8   10   13     -2.54      0.00
   -6   10   13     -6.96      0.00
   -4   10   13    -28.79      0.00
   -2   10   13     -7.77      0.00
    0   10   13    -19.27      0.00
    2   10   13     43.87      0.00
    4   10   13      2.32      0.00
    6   10   13     -4.79      0.00
    8   10   13     16.04      0.00
   10   10   13      2.85      0.00
   12   10   13      6.25      0.00
   14   10   13     -0.64      0.00
   16   10   13     -1.14      0.00
   18   10   13     -0.24      0.00
  -25   11   13     -2.78      0.00
  -23   11   13      0.27      0.00
  -21   11   13      0.99      0.00
  -19   11   13     -5.22      0.00
  -17   11   13     -7.00      0.00
  -15   11   13     -8.12      0.00
  -13   11   13     12.80      0.00
  -11   11   13      6.85      0.00
   -9   11   13     16.87      0.00
   -7   11   13     -3.66      0.00
   -5   11   13     22.07      0.00
   -3   11   13     23.98      0.00
   -1   11   13     10.94      0.00
    1   11   13     20.12      0.00
    3   11   13    -17.10      0.00
    5   11   13     25.22      0.00
    7   11   13    -10.15      0.00
    9   11   13     10.50      0.00
   11   11   13      0.25      0.00
   13   11   13      8.94      0.00
   15   11   13      4.49      0.00
   17   11   13      5.52      0.00
  -24   12   13      0.78      0.00
  -22   12   13      0.49      0.00
  -20   12   13     12.16      0.00
  -18   12   13      4.04      0.00
  -16   12   13      8.00      0.00
  -14   12   13     20.69      0.00
  -12   12   13     35.78      0.00
  -10   12   13     16.61      0.00
   -8   12   13      4.61      0.00
   -6   12   13    -18.87      0.00
   -4   12   13     -9.37      0.00
   -2   12   13     -2.29      0.00
    0   12   13     -9.29      0.00
    2   12   13    -14.44      0.00
    4   12   13     22.97      0.00
    6   12   13     25.28      0.00
    8   12   13      9.99      0.00
   10   12   13     -2.38      0.00
   12   12   13     -0.36      0.00
   14   12   13     -5.33      0.00
   16   12   13      0.46      0.00
  -23   13   13      7.05      0.00
  -21   13   13     -3.33      0.00
  -19   13   13      3.15      0.00
  -17   13   13     10.24      0.00
  -15   13   13    -11.75      0.00
  -13   13   13     -9.16      0.00
  -11   13   13    -18.58      0.00
   -9   13   13      9.83      0.00
   -7   13   13     37.88      0.00
   -5   13   13     17.82      0.00
   -3   13   13     12.36      0.00
   -1   13   13      8.18      0.00
    1   13   13     24.48      0.00
    3   13   13     -6.66      0.00
    5   13   13     -6.43      0.00
    7   13   13    -30.76      0.00
    9   13   13     -0.13      0.00
   11   13   13    -13.27      0.00
   13   13   13      7.52      0.00
   15   13   13     -2.64      0.00
   17   13   13     -3.13      0.00
  -24   14   13     -6.31      0.00
  -22   14   13     -4.28      0.00
  -20   14   13     -3.58      0.00
  -18   14   13    -12.38      0.00
  -16   14   13      9.85      0.00
  -14   14   13    -10.42      0.00
  -12   14   13     -3.63      0.00
  -10   14   13      4.63      0.00
   -8   14   13    -28.94      0.00
   -6   14   13      8.23      0.00
   -4   14   13    -23.19      0.00
   -2   14   13     -7.68      0.00
    0   14   13    -21.54      0.00
    2   14   13    -15.01      0.00
    4   14   13    -27.89      0.00
    6   14   13    -17.65      0.00
    8   14   13     -2.60      0.00
   10   14   13     -4.45      0.00
   12   14   13     -0.71      0.00
   14   14   13     -8.07      0.00
   16   14   13      0.79      0.00
  -23   15   13     -3.84      0.00
  -21   15   13     -6.58      0.00
  -19   15   13     -2.44      0.00
  -17   15   13    -14.52      0.00
  -15   15   13    -13.67      0.00
  -13   15   13      3.10      0.00
  -11   15   13    -36.78      0.00
   -9   15   13      4.63      0.00
   -7   15   13    -48.55      0.00
   -5   15   13     -1.32      0.00
   -3   15   13     -4.84      0.00
   -1   15   13     -7.81      0.00
    1   15   13     -1.18      0.00
    3   15   13     -7.93      0.00
    5   15   13     13.94      0.00
    7   15   13     -0.01      0.00
    9   15   13     12.28      0.00
   11   15   13     -7.37      0.00
   13   15   13      6.71      0.00
   15   15   13     -3.41      0.00
  -22   16   13      1.69      0.00
  -20   16   13      4.44      0.00
  -18   16   13     -8.29      0.00
  -16   16   13      9.74      0.00
  -14   16   13    -17.51      0.00
  -12   16   13     19.03      0.00
  -10   16   13    -16.50      0.00
   -8   16   13      9.61      0.00
   -6   16   13    -12.72      0.00
   -4   16   13    -19.28      0.00
   -2   16   13    -12.73      0.00
    0   16   13    -14.45      0.00
    2   16   13      4.60      0.00
    4   16   13      4.92      0.00
    6   16   13      2.35      0.00
    8   16   13     -6.34      0.00
   10   16   13     -6.17      0.00
   12   16   13     -2.39      0.00
  -21   17   13     -1.35      0.00
  -19   17   13      4.47      0.00
  -17   17   13      5.17      0.00
  -15   17   13     -2.15      0.00
  -13   17   13      9.49      0.00
  -11   17   13    -10.98      0.00
   -9   17   13     21.17      0.00
   -7   17   13     -3.23      0.00
   -5   17   13     15.98      0.00
   -3   17   13     -1.21      0.00
   -1   17   13      9.91      0.00
    1   17   13     14.60      0.00
    3   17   13      0.69      0.00
    5   17   13     11.74      0.00
    7   17   13    -10.19      0.00
    9   17   13     12.50      0.00
   11   17   13     -5.57      0.00
  -22   18   13      1.27      0.00
  -20   18   13      3.37      0.00
  -18   18   13      1.70      0.00
  -16   18   13      8.94      0.00
  -14   18   13      0.74      0.00
  -12   18   13     12.09      0.00
  -10   18   13      9.16      0.00
   -8   18   13      3.84      0.00
   -6   18   13     20.67      0.00
   -4   18   13      8.55      0.00
   -2   18   13     35.17      0.00
    0   18   13     -6.49      0.00
    2   18   13      9.35      0.00
    4   18   13    -17.39      0.00
    6   18   13      6.87      0.00
    8   18   13      2.49      0.00
   10   18   13      8.16      0.00
   12   18   13      3.41      0.00
   14   18   13      0.33      0.00
  -21   19   13      1.32      0.00
  -19   19   13      3.58      0.00
  -17   19   13      0.72      0.00
  -15   19   13      5.65      0.00
  -13   19   13      9.70      0.00
  -11   19   13    -10.71      0.00
   -9   19   13     15.41      0.00
   -7   19   13    -21.69      0.00
   -5   19   13     26.36      0.00
   -3   19   13     -9.42      0.00
   -1   19   13      5.27      0.00
    1   19   13      0.10      0.00
    3   19   13     -6.05      0.00
    5   19   13     19.93      0.00
    7   19   13    -12.23      0.00
    9   19   13      4.27      0.00
   11   19   13     -6.17      0.00
   13   19   13      7.31      0.00
  -20   20   13     -4.19      0.00
  -18   20   13     -2.46      0.00
  -16   20   13      1.88      0.00
  -14   20   13     -6.89      0.00
  -12   20   13      8.01      0.00
  -10   20   13      5.61      0.00
   -8   20   13     10.87      0.00
   -6   20   13     13.20      0.00
   -4   20   13    -20.76      0.00
   -2   20   13      5.98      0.00
    0   20   13     -9.88      0.00
    2   20   13     17.41      0.00
    4   20   13     -2.66      0.00
    6   20   13      2.04      0.00
    8   20   13      4.92      0.00
   10   20   13     -3.01      0.00
   12   20   13     -0.67      0.00
  -19   21   13      1.70      0.00
  -17   21   13     -3.94      0.00
  -15   21   13      1.93      0.00
  -13   21   13     -5.91      0.00
  -11   21   13     -1.40      0.00
   -9   21   13     -5.58      0.00
   -7   21   13    -12.83      0.00
   -5   21   13     -6.32      0.00
   -3   21   13     -7.21      0.00
   -1   21   13      0.51      0.00
    1   21   13      8.39      0.00
    3   21   13     -4.78      0.00
    5   21   13      1.33      0.00
    7   21   13     -1.45      0.00
    9   21   13      5.60      0.00
   11   21   13      0.64      0.00
  -18   22   13      0.19      0.00
  -16   22   13     -6.45      0.00
  -14   22   13     -4.48      0.00
  -12   22   13     -0.68      0.00
  -10   22   13    -22.64      0.00
   -8   22   13     12.94      0.00
   -6   22   13    -19.71      0.00
   -4   22   13     20.45      0.00
   -2   22   13     -6.10      0.00
    0   22   13     -0.54      0.00
    2   22   13     -4.61      0.00
    4   22   13      5.98      0.00
    6   22   13      0.97      0.00
    8   22   13     -0.94      0.00
   10   22   13     -0.69      0.00
  -15   23   13      5.30      0.00
  -13   23   13     -4.15      0.00
  -11   23   13      5.32      0.00
   -9   23   13     -7.77      0.00
   -7   23   13     -6.60      0.00
   -5   23   13      5.43      0.00
   -3   23   13     -7.34      0.00
   -1   23   13     -2.36      0.00
    1   23   13    -17.38      0.00
    3   23   13    -10.77      0.00
    5   23   13     -8.70      0.00
    7   23   13     -4.86      0.00
    9   23   13     -6.38      0.00
  -16   24   13     -2.84      0.00
  -14   24   13      1.26      0.00
  -12   24   13     -3.21      0.00
  -10   24   13      9.88      0.00
   -8   24   13      4.50      0.00
   -6   24   13     -4.77      0.00
   -4   24   13     -4.08      0.00
   -2   24   13     -4.33      0.00
    0   24   13     10.41      0.00
    2   24   13      1.06      0.00
    4   24   13      1.62      0.00
    6   24   13     -3.19      0.00
  -15   25   13      3.97      0.00
  -13   25   13     -3.28      0.00
  -11   25   13      6.90      0.00
   -9   25   13     -7.09      0.00
   -7   25   13     14.57      0.00
   -5   25   13     -5.52      0.00
   -3   25   13      0.32      0.00
   -1   25   13     -2.99      0.00
    1   25   13     -3.11      0.00
    3   25   13     12.43      0.00
    5   25   13     -6.09      0.00
  -14   26   13      0.36      0.00
  -12   26   13      1.67      0.00
  -10   26   13     -4.05      0.00
   -8   26   13      1.39      0.00
   -6   26   13     -5.45      0.00
   -4   26   13     14.97      0.00
   -2   26   13     -4.37      0.00
    0   26   13      8.72      0.00
    2   26   13     -7.30      0.00
    4   26   13      1.56      0.00
  -11   27   13     -0.19      0.00
   -9   27   13     -2.31      0.00
   -7   27   13      1.94      0.00
   -5   27   13     -2.20      0.00
   -3   27   13      2.37      0.00
   -1   27   13      4.89      0.00
    1   27   13      0.82      0.00
    3   27   13      0.27      0.00
   -8   28   13      2.01      0.00
   -6   28   13      0.97      0.00
   -4   28   13     -0.53      0.00
   -2   28   13     -1.66      0.00
    0   28   13      0.82      0.00
    2   28   13      6.27      0.00
   -1   29   13      0.63      0.00
  -26    0   14      1.61      0.00
  -24    0   14     -6.38      0.00
  -22    0   14     -7.39      0.00
  -20    0   14     -4.87      0.00
  -18    0   14    -10.30      0.00
  -16    0   14     -3.15      0.00
  -14    0   14    -27.61      0.00
  -12    0   14      5.54      0.00
  -10    0   14    -14.14      0.00
   -8    0   14    -47.10      0.00
   -6    0   14    -29.64      0.00
   -4    0   14     -6.65      0.00
   -2    0   14      1.56      0.00
    0    0   14     31.76      0.00
    2    0   14      2.36      0.00
    4    0   14      1.14      0.00
    6    0   14      2.68      0.00
    8    0   14     -3.41      0.00
   10    0   14    -11.26      0.00
   12    0   14     -4.67      0.00
   14    0   14      5.04      0.00
   16    0   14      0.88      0.00
  -25    1   14      0.94      0.00
  -23    1   14      0.80      0.00
  -21    1   14     -5.85      0.00
  -19    1   14     -2.20      0.00
  -17    1   14      2.29      0.00
  -15    1   14      1.48      0.00
  -13    1   14     -5.87      0.00
  -11    1   14     -7.72      0.00
   -9    1   14      0.21      0.00
   -7    1   14    -17.40      0.00
   -5    1   14      3.45      0.00
   -3    1   14    -20.04      0.00
   -1    1   14      2.67      0.00
    1    1   14      4.71      0.00
    3    1   14    -14.85      0.00
    5    1   14     -5.66      0.00
    7    1   14      6.84      0.00
    9    1   14      4.93      0.00
   11    1   14      2.27      0.00
   13    1   14     -2.45      0.00
   15    1   14     -2.83      0.00
   17    1   14     -0.63      0.00
  -26    2   14      1.48      0.00
  -24    2   14     -2.77      0.00
  -22    2   14      9.32      0.00
  -20    2   14     -2.46      0.00
  -18    2   14     -4.58      0.00
  -16    2   14    -15.00      0.00
  -14    2   14     -6.95      0.00
  -12    2   14     -5.77      0.00
  -10    2   14     -6.71      0.00
   -8    2   14     47.83      0.00
   -6    2   14     17.03      0.00
   -4    2   14     17.81      0.00
   -2    2   14    -24.24      0.00
    0    2   14    -35.76      0.00
    2    2   14     -4.04      0.00
    4    2   14      7.05      0.00
    6    2   14    -28.29      0.00
    8    2   14    -11.32      0.00
   10    2   14     -3.60      0.00
   12    2   14     -3.79      0.00
   14    2   14     -2.60      0.00
   16    2   14     -1.58      0.00
  -25    3   14      1.19      0.00
  -23    3   14      0.11      0.00
  -21    3   14      4.29      0.00
  -19    3   14      6.07      0.00
  -17    3   14     14.28      0.00
  -15    3   14      8.70      0.00
  -13    3   14     31.71      0.00
  -11    3   14    -20.35      0.00
   -9    3   14      8.87      0.00
   -7    3   14    -27.86      0.00
   -5    3   14     -0.47      0.00
   -3    3   14     -3.60      0.00
   -1    3   14     13.09      0.00
    1    3   14    -31.38      0.00
    3    3   14     11.27      0.00
    5    3   14      9.63      0.00
    7    3   14     17.49      0.00
    9    3   14     -4.86      0.00
   11    3   14      2.04      0.00
   13    3   14     -1.76      0.00
   15    3   14     -0.38      0.00
   17    3   14     -4.43      0.00
  -26    4   14      4.54      0.00
  -24    4   14     -6.33      0.00
  -22    4   14      8.22      0.00
  -20    4   14     -1.26      0.00
  -18    4   14     18.74      0.00
  -16    4   14     -1.93      0.00
  -14    4   14     19.12      0.00
  -12    4   14     16.64      0.00
  -10    4   14     40.12      0.00
   -8    4   14     -9.12      0.00
   -6    4   14     17.48      0.00
   -4    4   14     -4.92      0.00
   -2    4   14     11.01      0.00
    0    4   14     47.87      0.00
    2    4   14    -25.81      0.00
    4    4   14     10.76      0.00
    6    4   14    -11.06      0.00
    8    4   14      0.13      0.00
   10    4   14      3.69      0.00
   12    4   14      6.08      0.00
   14    4   14      5.39      0.00
   16    4   14      5.33      0.00
   18    4   14      3.86      0.00
  -25    5   14      1.22      0.00
  -23    5   14      1.73      0.00
  -21    5   14     -2.70      0.00
  -19    5   14     -1.65      0.00
  -17    5   14     -0.59      0.00
  -15    5   14      2.23      0.00
  -13    5   14    -10.68      0.00
  -11    5   14     13.34      0.00
   -9    5   14    -10.62      0.00
   -7    5   14     36.09      0.00
   -5    5   14    -20.64      0.00
   -3    5   14     41.80      0.00
   -1    5   14     -3.50      0.00
    1    5   14     47.85      0.00
    3    5   14     20.86      0.00
    5    5   14     -4.73      0.00
    7    5   14     21.53      0.00
    9    5   14      3.41      0.00
   11    5   14      8.27      0.00
   13    5   14      3.19      0.00
   15    5   14      3.16      0.00
   17    5   14      3.69      0.00
  -26    6   14      5.53      0.00
  -24    6   14     -1.96      0.00
  -22    6   14      2.17      0.00
  -20    6   14    -10.92      0.00
  -18    6   14     -4.59      0.00
  -16    6   14     -1.60      0.00
  -14    6   14      2.19      0.00
  -12    6   14    -23.85      0.00
  -10    6   14      6.68      0.00
   -8    6   14     -8.21      0.00
   -6    6   14     27.21      0.00
   -4    6   14     45.23      0.00
   -2    6   14    -52.61      0.00
    0    6   14     30.91      0.00
    2    6   14    -19.19      0.00
    4    6   14     39.63      0.00
    6    6   14     -6.09      0.00
    8    6   14     18.17      0.00
   10    6   14      5.50      0.00
   12    6   14      5.29      0.00
   14    6   14      4.63      0.00
   16    6   14      1.06      0.00
   18    6   14     -0.55      0.00
  -25    7   14      1.22      0.00
  -23    7   14     -1.00      0.00
  -21    7   14      8.11      0.00
  -19    7   14      6.18      0.00
  -17    7   14     -5.57      0.00
  -15    7   14    -17.18      0.00
  -13    7   14    -12.34      0.00
  -11    7   14    -10.92      0.00
   -9    7   14    -19.58      0.00
   -7    7   14    -14.70      0.00
   -5    7   14    -53.48      0.00
   -3    7   14     24.57      0.00
   -1    7   14     -8.46      0.00
    1    7   14    -15.36      0.00
    3    7   14     -7.59      0.00
    5    7   14     -9.29      0.00
    7    7   14     13.66      0.00
    9    7   14    -16.50      0.00
   11    7   14     -6.87      0.00
   13    7   14    -12.52      0.00
   15    7   14     -2.33      0.00
   17    7   14     -1.85      0.00
  -26    8   14     -1.91      0.00
  -24    8   14     -2.53      0.00
  -22    8   14      1.82      0.00
  -20    8   14     -8.30      0.00
  -18    8   14     13.83      0.00
  -16    8   14     -9.67      0.00
  -14    8   14     23.91      0.00
  -12    8   14      1.37      0.00
  -10    8   14      9.09      0.00
   -8    8   14     11.22      0.00
   -6    8   14    -18.39      0.00
   -4    8   14     -1.46      0.00
   -2    8   14    -37.46      0.00
    0    8   14     18.93      0.00
    2    8   14    -43.10      0.00
    4    8   14     -0.43      0.00
    6    8   14    -31.84      0.00
    8    8   14     -7.90      0.00
   10    8   14     -3.23      0.00
   12    8   14     -0.27      0.00
   14    8   14      0.43      0.00
   16    8   14     -8.00      0.00
  -25    9   14     -1.60      0.00
  -23    9   14     -7.44      0.00
  -21    9   14      3.05      0.00
  -19    9   14    -18.54      0.00
  -17    9   14      7.62      0.00
  -15    9   14      7.12      0.00
  -13    9   14      2.02      0.00
  -11    9   14      2.38      0.00
   -9    9   14    -24.20      0.00
   -7    9   14      2.27      0.00
   -5    9   14     -3.91      0.00
   -3    9   14    -12.09      0.00
   -1    9   14    -10.47      0.00
    1    9   14    -26.55      0.00
    3    9   14     12.16      0.00
    5    9   14    -11.67      0.00
    7    9   14    -15.25      0.00
    9    9   14    -12.21      0.00
   11    9   14     -0.58      0.00
   13    9   14     -5.13      0.00
   15    9   14      0.68      0.00
   17    9   14     -1.59      0.00
  -24   10   14      3.35      0.00
  -22   10   14     -1.06      0.00
  -20   10   14      2.28      0.00
  -18   10   14      4.62      0.00
  -16   10   14    -16.40      0.00
  -14   10   14      3.86      0.00
  -12   10   14    -16.71      0.00
  -10   10   14     14.02      0.00
   -8   10   14      0.63      0.00
   -6   10   14     14.01      0.00
   -4   10   14      1.62      0.00
   -2   10   14      3.51      0.00
    0   10   14     -3.31      0.00
    2   10   14     13.45      0.00
    4   10   14     -1.96      0.00
    6   10   14     12.02      0.00
    8   10   14      7.38      0.00
   10   10   14     -3.49      0.00
   12   10   14     -0.82      0.00
   14   10   14     -2.39      0.00
   16   10   14     -2.66      0.00
  -23   11   14     -4.73      0.00
  -21   11   14      1.76      0.00
  -19   11   14    -10.62      0.00
  -17   11   14      1.84      0.00
  -15   11   14    -24.50      0.00
  -13   11   14     -5.32      0.00
  -11   11   14      9.96      0.00
   -9   11   14      8.25      0.00
   -7   11   14     -8.01      0.00
   -5   11   14    -11.89      0.00
   -3   11   14     -8.86      0.00
   -1   11   14     23.90      0.00
    1   11   14     -1.60      0.00
    3   11   14    -23.53      0.00
    5   11   14    -10.18      0.00
    7   11   14      5.93      0.00
    9   11   14      0.48      0.00
   11   11   14      6.36      0.00
   13   11   14     -3.15      0.00
   15   11   14      8.43      0.00
  -24   12   14      2.21      0.00
  -22   12   14      1.15      0.00
  -20   12   14      3.80      0.00
  -18   12   14     10.79      0.00
  -16   12   14      6.32      0.00
  -14   12   14     17.65      0.00
  -12   12   14    -20.68      0.00
  -10   12   14    -16.79      0.00
   -8   12   14     -6.53      0.00
   -6   12   14      6.64      0.00
   -4   12   14     34.63      0.00
   -2   12   14     -2.34      0.00
    0   12   14      9.49      0.00
    2   12   14     30.24      0.00
    4   12   14     31.15      0.00
    6   12   14     17.92      0.00
    8   12   14     16.81      0.00
   10   12   14      5.11      0.00
   12   12   14      4.88      0.00
   14   12   14      3.44      0.00
   16   12   14     -1.49      0.00
  -23   13   14      1.50      0.00
  -21   13   14      6.48      0.00
  -19   13   14     -8.19      0.00
  -17   13   14      6.18      0.00
  -15   13   14     15.50      0.00
  -13   13   14      7.19      0.00
  -11   13   14     16.98      0.00
   -9   13   14      8.11      0.00
   -7   13   14      6.95      0.00
   -5   13   14     15.34      0.00
   -3   13   14     -5.20      0.00
   -1   13   14     10.14      0.00
    1   13   14     -0.59      0.00
    3   13   14      8.50      0.00
    5   13   14      1.20      0.00
    7   13   14    -12.21      0.00
    9   13   14     -0.76      0.00
   11   13   14      7.76      0.00
   13   13   14      1.67      0.00
   15   13   14      6.66      0.00
  -24   14   14      2.86      0.00
  -22   14   14      1.14      0.00
  -20   14   14      9.66      0.00
  -18   14   14     12.18      0.00
  -16   14   14    -14.55      0.00
  -14   14   14     13.34      0.00
  -12   14   14      7.85      0.00
  -10   14   14     12.69      0.00
   -8   14   14     14.69      0.00
   -6   14   14    -19.55      0.00
   -4   14   14      4.08      0.00
   -2   14   14     11.46      0.00
    0   14   14      7.19      0.00
    2   14   14     -5.74      0.00
    4   14   14     -2.54      0.00
    6   14   14     -6.97      0.00
    8   14   14      5.05      0.00
   10   14   14     -6.61      0.00
   12   14   14     -0.18      0.00
   14   14   14     -4.66      0.00
  -23   15   14     -2.40      0.00
  -21   15   14     -8.59      0.00
  -19   15   14     -7.05      0.00
  -17   15   14      0.31      0.00
  -15   15   14     -2.36      0.00
  -13   15   14     -7.77      0.00
  -11   15   14     19.92      0.00
   -9   15   14    -12.70      0.00
   -7   15   14     38.14      0.00
   -5   15   14    -13.56      0.00
   -3   15   14      5.53      0.00
   -1   15   14    -21.66      0.00
    1   15   14    -10.79      0.00
    3   15   14    -22.61      0.00
    5   15   14      4.41      0.00
    7   15   14     -3.25      0.00
    9   15   14     -0.66      0.00
   11   15   14     -3.29      0.00
   13   15   14     -0.88      0.00
   15   15   14      3.06      0.00
  -22   16   14      2.88      0.00
  -20   16   14      0.94      0.00
  -18   16   14     -1.76      0.00
  -16   16   14      1.54      0.00
  -14   16   14     -1.98      0.00
  -12   16   14    -27.51      0.00
  -10   16   14     -5.09      0.00
   -8   16   14    -38.57      0.00
   -6   16   14      6.59      0.00
   -4   16   14    -18.92      0.00
   -2   16   14    -14.84      0.00
    0   16   14     -2.70      0.00
    2   16   14      4.00      0.00
    4   16   14      6.49      0.00
    6   16   14     -0.73      0.00
    8   16   14      0.71      0.00
   10   16   14     -2.58      0.00
   12   16   14      1.49      0.00
   14   16   14     -4.70      0.00
  -21   17   14     -6.33      0.00
  -19   17   14     -3.63      0.00
  -17   17   14     -6.00      0.00
  -15   17   14    -10.18      0.00
  -13   17   14      4.21      0.00
  -11   17   14    -17.46      0.00
   -9   17   14      8.75      0.00
   -7   17   14    -18.80      0.00
   -5   17   14     -5.90      0.00
   -3   17   14     11.28      0.00
   -1   17   14      6.28      0.00
    1   17   14     10.24      0.00
    3   17   14     -6.33      0.00
    5   17   14    -12.39      0.00
    7   17   14     -8.33      0.00
    9   17   14     -0.96      0.00
   11   17   14     -2.67      0.00
  -20   18   14      4.76      0.00
  -18   18   14     -1.13      0.00
  -16   18   14      1.18      0.00
  -14   18   14     -2.10      0.00
  -12   18   14      7.50      0.00
  -10   18   14     -3.60      0.00
   -8   18   14     -4.15      0.00
   -6   18   14     -4.15      0.00
   -4   18   14    -14.32      0.00
   -2   18   14      2.57      0.00
    0   18   14    -13.93      0.00
    2   18   14      3.42      0.00
    4   18   14     -2.27      0.00
    6   18   14      9.41      0.00
    8   18   14     -3.83      0.00
   10   18   14     -1.19      0.00
   12   18   14     -1.47      0.00
  -21   19   14     -2.02      0.00
  -19   19   14      2.23      0.00
  -17   19   14     -3.19      0.00
  -15   19   14     -0.50      0.00
  -13   19   14      2.59      0.00
  -11   19   14     -7.88      0.00
   -9   19   14     18.52      0.00
   -7   19   14     -1.52      0.00
   -5   19   14     27.35      0.00
   -3   19   14      0.12      0.00
   -1   19   14      2.67      0.00
    1   19   14     -2.48      0.00
    3   19   14     -1.18      0.00
    5   19   14     11.01      0.00
    7   19   14     -3.30      0.00
    9   19   14     10.27      0.00
   11   19   14     -5.23      0.00
   13   19   14      4.00      0.00
  -20   20   14      2.81      0.00
  -18   20   14     -2.66      0.00
  -16   20   14     13.24      0.00
  -14   20   14     -4.48      0.00
  -12   20   14      8.77      0.00
  -10   20   14      9.15      0.00
   -8   20   14     -5.27      0.00
   -6   20   14     19.82      0.00
   -4   20   14    -24.99      0.00
   -2   20   14      8.14      0.00
    0   20   14    -18.99      0.00
    2   20   14     12.31      0.00
    4   20   14    -13.42      0.00
    6   20   14     -2.08      0.00
    8   20   14     -4.73      0.00
   10   20   14      3.90      0.00
   12   20   14      3.79      0.00
  -19   21   14      6.59      0.00
  -17   21   14      2.06      0.00
  -15   21   14      3.40      0.00
  -13   21   14      7.39      0.00
  -11   21   14     -4.05      0.00
   -9   21   14      2.98      0.00
   -7   21   14     -4.66      0.00
   -5   21   14      1.08      0.00
   -3   21   14     10.68      0.00
   -1   21   14     12.79      0.00
    1   21   14      7.86      0.00
    3   21   14     -3.22      0.00
    5   21   14      8.50      0.00
    7   21   14     -1.78      0.00
    9   21   14      3.68      0.00
   11   21   14     -2.66      0.00
  -16   22   14      2.27      0.00
  -14   22   14     -7.00      0.00
  -12   22   14     12.50      0.00
  -10   22   14     -3.27      0.00
   -8   22   14      4.53      0.00
   -6   22   14      1.97      0.00
   -4   22   14     -1.04      0.00
   -2   22   14     17.45      0.00
    0   22   14     -2.26      0.00
    2   22   14     16.54      0.00
    4   22   14     -2.67      0.00
    6   22   14     13.51      0.00
    8   22   14      1.31      0.00
  -17   23   14     -3.42      0.00
  -15   23   14      0.54      0.00
  -13   23   14     -2.29      0.00
  -11   23   14    -14.98      0.00
   -9   23   14     16.30      0.00
   -7   23   14    -18.00      0.00
   -5   23   14     17.79      0.00
   -3   23   14    -18.77      0.00
   -1   23   14      0.77      0.00
    1   23   14      1.66      0.00
    3   23   14     -0.88      0.00
    5   23   14      2.73      0.00
    7   23   14     -4.93      0.00
  -16   24   14      0.10      0.00
  -14   24   14     -2.90      0.00
  -12   24   14     -0.04      0.00
  -10   24   14     -0.36      0.00
   -8   24   14     -3.71      0.00
   -6   24   14      9.29      0.00
   -4   24   14    -10.32      0.00
   -2   24   14      0.67      0.00
    0   24   14    -17.88      0.00
    2   24   14     -1.73      0.00
    4   24   14     -4.44      0.00
    6   24   14     -0.17      0.00
  -15   25   14      1.91      0.00
  -13   25   14     -4.42      0.00
  -11   25   14      2.51      0.00
   -9   25   14    -11.99      0.00
   -7   25   14     -4.25      0.00
   -5   25   14     -9.30      0.00
   -3   25   14      7.86      0.00
   -1   25   14     -3.08      0.00
    1   25   14      1.69      0.00
    3   25   14     -4.37      0.00
    5   25   14     -3.91      0.00
  -12   26   14      3.98      0.00
  -10   26   14      4.35      0.00
   -8   26   14      1.58      0.00
   -4   26   14     -3.24      0.00
   -2   26   14      2.33      0.00
    0   26   14      2.48      0.00
    2   26   14     -0.37      0.00
    4   26   14     -6.22      0.00
   -9   27   14     -1.87      0.00
   -7   27   14      3.26      0.00
   -5   27   14     -2.89      0.00
   -3   27   14     -3.01      0.00
   -1   27   14     -7.83      0.00
    1   27   14     -1.44      0.00
    3   27   14      2.02      0.00
   -6   28   14      1.06      0.00
   -4   28   14      3.96      0.00
   -2   28   14      0.79      0.00
    0   28   14      5.49      0.00
  -25    1   15     -1.63      0.00
  -23    1   15      1.05      0.00
  -21    1   15      6.04      0.00
  -19    1   15      5.42      0.00
  -17    1   15      5.12      0.00
  -15    1   15     -5.04      0.00
  -13    1   15     -3.18      0.00
  -11    1   15     -3.60      0.00
   -9    1   15    -12.91      0.00
   -7    1   15     12.45      0.00
   -5    1   15     23.49      0.00
   -3    1   15      2.24      0.00
   -1    1   15     25.13      0.00
    1    1   15    -12.27      0.00
    3    1   15     15.78      0.00
    5    1   15     11.20      0.00
    7    1   15      9.96      0.00
    9    1   15      4.33      0.00
   11    1   15      1.55      0.00
   13    1   15     -0.11      0.00
   15    1   15     -4.60      0.00
  -26    2   15      1.19      0.00
  -24    2   15     -0.71      0.00
  -22    2   15    -11.19      0.00
  -20    2   15     -9.98      0.00
  -18    2   15    -23.92      0.00
  -16    2   15     -8.16      0.00
  -14    2   15    -23.88      0.00
  -12    2   15     19.14      0.00
  -10    2   15    -26.52      0.00
   -8    2   15     19.40      0.00
   -6    2   15    -20.00      0.00
   -4    2   15     22.59      0.00
   -2    2   15     -3.95      0.00
    0    2   15      6.93      0.00
    2    2   15     -5.26      0.00
    4    2   15    -17.53      0.00
    6    2   15      6.00      0.00
    8    2   15    -10.59      0.00
   10    2   15     -4.47      0.00
   12    2   15     -2.67      0.00
   14    2   15      3.52      0.00
   16    2   15      3.02      0.00
  -25    3   15     -1.91      0.00
  -23    3   15      0.99      0.00
  -21    3   15     -2.51      0.00
  -19    3   15      9.61      0.00
  -17    3   15      8.04      0.00
  -15    3   15      2.98      0.00
  -13    3   15    -13.37      0.00
  -11    3   15      0.58      0.00
   -9    3   15     11.79      0.00
   -7    3   15    -44.98      0.00
   -5    3   15      3.61      0.00
   -3    3   15    -69.74      0.00
   -1    3   15     19.71      0.00
    1    3   15    -17.53      0.00
    3    3   15      3.38      0.00
    5    3   15    -13.06      0.00
    7    3   15      5.50      0.00
    9    3   15      0.54      0.00
   11    3   15     -7.89      0.00
   13    3   15     -5.37      0.00
   15    3   15     -4.84      0.00
   17    3   15     -2.29      0.00
  -26    4   15      1.48      0.00
  -24    4   15     -2.52      0.00
  -22    4   15      4.37      0.00
  -20    4   15     -9.52      0.00
  -18    4   15     -9.57      0.00
  -16    4   15    -12.53      0.00
  -14    4   15      4.39      0.00
  -12    4   15    -19.77      0.00
  -10    4   15    -14.68      0.00
   -8    4   15      3.26      0.00
   -6    4   15     -3.51      0.00
   -4    4   15     -3.95      0.00
   -2    4   15      5.87      0.00
    0    4   15    -37.67      0.00
    2    4   15     23.70      0.00
    4    4   15    -26.06      0.00
    6    4   15    -16.70      0.00
    8    4   15    -27.39      0.00
   10    4   15      0.51      0.00
   12    4   15      0.38      0.00
   14    4   15      1.46      0.00
   16    4   15     -5.00      0.00
  -25    5   15     -1.16      0.00
  -23    5   15      6.60      0.00
  -21    5   15      5.44      0.00
  -19    5   15     24.96      0.00
  -17    5   15      1.84      0.00
  -15    5   15     31.43      0.00
  -13    5   15      4.42      0.00
  -11    5   15     11.44      0.00
   -9    5   15    -14.24      0.00
   -7    5   15     -7.30      0.00
   -5    5   15      1.83      0.00
   -3    5   15      7.42      0.00
   -1    5   15    -14.32      0.00
    1    5   15    -35.78      0.00
    3    5   15     11.04      0.00
    5    5   15     10.88      0.00
    7    5   15      8.58      0.00
    9    5   15      7.94      0.00
   11    5   15     -2.63      0.00
   13    5   15     -4.97      0.00
   15    5   15     -3.38      0.00
   17    5   15      0.38      0.00
  -26    6   15      4.33      0.00
  -24    6   15     -2.98      0.00
  -22    6   15     -2.11      0.00
  -20    6   15    -14.84      0.00
  -18    6   15     -1.80      0.00
  -16    6   15     -7.63      0.00
  -14    6   15      0.96      0.00
  -12    6   15     22.20      0.00
  -10    6   15     21.59      0.00
   -8    6   15     31.39      0.00
   -6    6   15     22.35      0.00
   -4    6   15     -5.42      0.00
   -2    6   15     15.81      0.00
    0    6   15     26.41      0.00
    2    6   15     -5.96      0.00
    4    6   15     -3.21      0.00
    6    6   15     10.01      0.00
    8    6   15      7.65      0.00
   10    6   15      9.46      0.00
   12    6   15     11.97      0.00
   14    6   15     10.67      0.00
   16    6   15      9.79      0.00
  -25    7   15      0.74      0.00
  -23    7   15      1.77      0.00
  -21    7   15      3.69      0.00
  -19    7   15     15.06      0.00
  -17    7   15      8.47      0.00
  -15    7   15     -0.53      0.00
  -13    7   15    -14.34      0.00
  -11    7   15      7.04      0.00
   -9    7   15     -7.76      0.00
   -7    7   15     17.11      0.00
   -5    7   15     -4.63      0.00
   -3    7   15     33.74      0.00
   -1    7   15     30.70      0.00
    1    7   15     60.55      0.00
    3    7   15     27.54      0.00
    5    7   15     13.93      0.00
    7    7   15     22.00      0.00
    9    7   15      1.66      0.00
   11    7   15      0.58      0.00
   13    7   15     -2.56      0.00
   15    7   15     -1.51      0.00
   17    7   15     -0.93      0.00
  -26    8   15      2.17      0.00
  -24    8   15     -2.56      0.00
  -22    8   15      6.83      0.00
  -20    8   15     -8.47      0.00
  -18    8   15     -7.08      0.00
  -16    8   15     -5.92      0.00
  -14    8   15     13.91      0.00
  -12    8   15     -3.18      0.00
  -10    8   15     13.85      0.00
   -8    8   15    -13.60      0.00
   -6    8   15     25.10      0.00
   -4    8   15     15.17      0.00
   -2    8   15    -18.37      0.00
    0    8   15     -7.28      0.00
    2    8   15    -26.71      0.00
    4    8   15      5.60      0.00
    6    8   15     -8.19      0.00
    8    8   15     -8.56      0.00
   10    8   15      3.53      0.00
   12    8   15      4.80      0.00
   14    8   15      9.85      0.00
   16    8   15      6.24      0.00
  -25    9   15      2.34      0.00
  -23    9   15      0.07      0.00
  -21    9   15     -0.26      0.00
  -19    9   15      8.91      0.00
  -17    9   15     -7.93      0.00
  -15    9   15     11.64      0.00
  -13    9   15    -13.84      0.00
  -11    9   15    -17.32      0.00
   -9    9   15    -14.41      0.00
   -7    9   15    -25.30      0.00
   -5    9   15     -8.75      0.00
   -3    9   15      8.10      0.00
   -1    9   15     -4.52      0.00
    1    9   15    -13.58      0.00
    3    9   15     20.78      0.00
    5    9   15    -11.46      0.00
    7    9   15     11.29      0.00
    9    9   15     -8.84      0.00
   11    9   15     -2.77      0.00
   13    9   15     -8.20      0.00
   15    9   15    -15.36      0.00
  -24   10   15     -4.08      0.00
  -22   10   15      0.69      0.00
  -20   10   15    -10.52      0.00
  -18   10   15     12.02      0.00
  -16   10   15     -9.54      0.00
  -14   10   15     -6.21      0.00
  -12   10   15      2.44      0.00
  -10   10   15     16.61      0.00
   -8   10   15     15.39      0.00
   -6   10   15     -0.10      0.00
   -4   10   15    -47.40      0.00
   -2   10   15    -32.04      0.00
    0   10   15    -10.53      0.00
    2   10   15    -29.03      0.00
    4   10   15    -18.62      0.00
    6   10   15    -20.15      0.00
    8   10   15     -0.45      0.00
   10   10   15      0.30      0.00
   12   10   15     -2.01      0.00
   14   10   15     -1.00      0.00
   16   10   15      3.02      0.00
  -25   11   15     -0.25      0.00
  -23   11   15     -0.20      0.00
  -21   11   15      0.74      0.00
  -19   11   15     -4.69      0.00
  -17   11   15     -7.62      0.00
  -15   11   15      5.81      0.00
  -13   11   15     -5.18      0.00
  -11   11   15     -4.77      0.00
   -9   11   15    -35.27      0.00
   -7   11   15     -3.09      0.00
   -5   11   15    -23.47      0.00
   -3   11   15     27.78      0.00
   -1   11   15    -13.78      0.00
    1   11   15      2.01      0.00
    3   11   15      1.02      0.00
    5   11   15     -8.37      0.00
    7   11   15     -3.66      0.00
    9   11   15    -18.35      0.00
   11   11   15     -1.02      0.00
   13   11   15     -7.77      0.00
   15   11   15      0.04      0.00
  -24   12   15     -2.58      0.00
  -22   12   15     -4.94      0.00
  -20   12   15     -4.38      0.00
  -18   12   15     -1.85      0.00
  -16   12   15    -10.90      0.00
  -14   12   15     19.47      0.00
  -12   12   15     -0.96      0.00
  -10   12   15     13.43      0.00
   -8   12   15     -1.85      0.00
   -6   12   15      1.64      0.00
   -4   12   15      8.58      0.00
   -2   12   15     -4.02      0.00
    0   12   15     -4.10      0.00
    2   12   15    -15.91      0.00
    4   12   15      2.87      0.00
    6   12   15      3.04      0.00
    8   12   15      1.63      0.00
   10   12   15     -1.62      0.00
   12   12   15      2.33      0.00
   14   12   15      4.06      0.00
  -23   13   15      2.36      0.00
  -21   13   15      5.36      0.00
  -19   13   15      3.12      0.00
  -17   13   15      5.56      0.00
  -15   13   15    -12.33      0.00
  -13   13   15    -23.14      0.00
  -11   13   15     -0.23      0.00
   -9   13   15    -11.22      0.00
   -7   13   15     11.70      0.00
   -5   13   15      3.79      0.00
   -3   13   15     -5.89      0.00
   -1   13   15     27.15      0.00
    1   13   15     19.31      0.00
    3   13   15     23.50      0.00
    5   13   15      3.03      0.00
    7   13   15     14.77      0.00
    9   13   15     -1.49      0.00
   11   13   15     11.94      0.00
   13   13   15     -3.84      0.00
   15   13   15      3.59      0.00
  -24   14   15      5.15      0.00
  -22   14   15     -1.03      0.00
  -20   14   15     -2.39      0.00
  -18   14   15      5.61      0.00
  -16   14   15     -2.19      0.00
  -14   14   15      9.86      0.00
  -12   14   15     -7.95      0.00
  -10   14   15     25.86      0.00
   -8   14   15      4.44      0.00
   -6   14   15     20.85      0.00
   -4   14   15      8.35      0.00
   -2   14   15      9.42      0.00
    0   14   15      6.88      0.00
    2   14   15      5.07      0.00
    4   14   15     -1.70      0.00
    6   14   15      1.01      0.00
    8   14   15     11.52      0.00
   10   14   15      0.02      0.00
   12   14   15      0.38      0.00
   14   14   15      1.44      0.00
  -23   15   15     -1.65      0.00
  -21   15   15      8.42      0.00
  -19   15   15     -2.99      0.00
  -17   15   15      4.49      0.00
  -15   15   15     15.54      0.00
  -13   15   15     11.84      0.00
  -11   15   15      2.64      0.00
   -9   15   15    -10.33      0.00
   -7   15   15     -7.32      0.00
   -5   15   15      7.71      0.00
   -3   15   15      4.73      0.00
   -1   15   15    -13.60      0.00
    1   15   15    -17.69      0.00
    3   15   15      1.23      0.00
    5   15   15     -4.33      0.00
    7   15   15      4.98      0.00
    9   15   15     -6.76      0.00
   11   15   15     10.10      0.00
   13   15   15     -3.11      0.00
  -22   16   15     -1.84      0.00
  -20   16   15      0.38      0.00
  -18   16   15      3.66      0.00
  -16   16   15     -8.64      0.00
  -14   16   15     10.17      0.00
  -12   16   15      0.66      0.00
  -10   16   15     10.21      0.00
   -8   16   15     14.70      0.00
   -6   16   15    -14.22      0.00
   -4   16   15     -3.96      0.00
   -2   16   15     -1.50      0.00
    0   16   15     16.86      0.00
    2   16   15      7.17      0.00
    4   16   15     18.61      0.00
    6   16   15    -14.84      0.00
    8   16   15      4.72      0.00
   10   16   15    -10.19      0.00
   12   16   15      5.23      0.00
   14   16   15      0.59      0.00
  -21   17   15     -0.71      0.00
  -19   17   15     -1.62      0.00
  -17   17   15     10.88      0.00
  -15   17   15     -6.66      0.00
  -13   17   15     -3.63      0.00
  -11   17   15     15.05      0.00
   -9   17   15    -23.75      0.00
   -7   17   15     25.69      0.00
   -5   17   15    -26.26      0.00
   -3   17   15      8.08      0.00
   -1   17   15     -8.67      0.00
    1   17   15     -4.48      0.00
    3   17   15    -14.17      0.00
    5   17   15     -5.20      0.00
    7   17   15      8.41      0.00
    9   17   15     -4.96      0.00
   11   17   15      6.84      0.00
  -20   18   15     -0.77      0.00
  -18   18   15     -3.63      0.00
  -16   18   15    -11.87      0.00
  -14   18   15      4.14      0.00
  -12   18   15    -29.17      0.00
  -10   18   15     10.33      0.00
   -8   18   15    -22.19      0.00
   -6   18   15     14.33      0.00
   -4   18   15      6.38      0.00
   -2   18   15     -2.79      0.00
    0   18   15      4.85      0.00
    2   18   15    -12.54      0.00
    4   18   15      7.89      0.00
    6   18   15     -3.53      0.00
    8   18   15      6.51      0.00
   10   18   15     -3.75      0.00
   12   18   15     -0.34      0.00
  -21   19   15      0.17      0.00
  -19   19   15     -2.09      0.00
  -17   19   15     -0.46      0.00
  -15   19   15     -0.25      0.00
  -13   19   15      3.76      0.00
  -11   19   15     -6.43      0.00
   -9   19   15      2.10      0.00
   -7   19   15     -5.44      0.00
   -5   19   15     -9.16      0.00
   -3   19   15      7.31      0.00
   -1   19   15    -16.72      0.00
    1   19   15     10.72      0.00
    3   19   15     -0.83      0.00
    5   19   15     -3.34      0.00
    7   19   15     -3.05      0.00
    9   19   15     -7.24      0.00
   11   19   15      2.25      0.00
  -20   20   15     -1.20      0.00
  -18   20   15     -1.76      0.00
  -16   20   15     -2.12      0.00
  -14   20   15     -1.00      0.00
  -12   20   15     -9.38      0.00
  -10   20   15      8.37      0.00
   -8   20   15    -21.15      0.00
   -6   20   15     18.14      0.00
   -4   20   15    -18.61      0.00
   -2   20   15      6.52      0.00
    0   20   15      2.89      0.00
    2   20   15     -3.06      0.00
    4   20   15      7.79      0.00
    6   20   15     -9.93      0.00
    8   20   15      2.86      0.00
   10   20   15     -6.02      0.00
  -17   21   15      2.36      0.00
  -15   21   15     -2.86      0.00
  -13   21   15      6.34      0.00
  -11   21   15     10.16      0.00
   -9   21   15     -0.58      0.00
   -7   21   15      7.22      0.00
   -5   21   15    -19.00      0.00
   -3   21   15      3.64      0.00
   -1   21   15    -11.03      0.00
    1   21   15     -4.28      0.00
    3   21   15    -10.51      0.00
    5   21   15     -7.14      0.00
    7   21   15      3.14      0.00
    9   21   15     -2.32      0.00
  -16   22   15      6.84      0.00
  -14   22   15     -4.09      0.00
  -12   22   15      0.85      0.00
  -10   22   15    -11.85      0.00
   -8   22   15      9.32      0.00
   -6   22   15     -2.78      0.00
   -4   22   15     10.46      0.00
   -2   22   15     -5.33      0.00
    0   22   15     -0.97      0.00
    2   22   15      1.82      0.00
    4   22   15      4.05      0.00
    6   22   15      2.52      0.00
    8   22   15      3.44      0.00
  -17   23   15     -3.53      0.00
  -15   23   15      1.52      0.00
  -13   23   15     10.46      0.00
  -11   23   15     -1.94      0.00
   -9   23   15     15.14      0.00
   -7   23   15     -2.69      0.00
   -5   23   15     19.31      0.00
   -3   23   15      5.93      0.00
   -1   23   15     15.08      0.00
    1   23   15      2.83      0.00
    3   23   15      7.86      0.00
    5   23   15      6.01      0.00
  -16   24   15      3.90      0.00
  -14   24   15     -4.69      0.00
  -12   24   15      0.23      0.00
  -10   24   15      3.41      0.00
   -8   24   15     -9.00      0.00
   -6   24   15      3.70      0.00
   -4   24   15    -12.45      0.00
   -2   24   15      8.02      0.00
    0   24   15     -0.21      0.00
    2   24   15      5.32      0.00
    4   24   15     -1.25      0.00
  -13   25   15     -0.14      0.00
  -11   25   15     -1.08      0.00
   -9   25   15      5.25      0.00
   -7   25   15     -5.04      0.00
   -5   25   15      5.11      0.00
   -3   25   15     -6.95      0.00
   -1   25   15      6.31      0.00
    1   25   15      0.44      0.00
    3   25   15      4.20      0.00
  -12   26   15      1.21      0.00
  -10   26   15     -6.85      0.00
   -6   26   15     -0.62      0.00
   -4   26   15      3.03      0.00
   -2   26   15     -5.34      0.00
    0   26   15     -8.59      0.00
    2   26   15     -1.46      0.00
   -9   27   15     -2.55      0.00
   -7   27   15     -1.73      0.00
   -5   27   15     -0.93      0.00
   -3   27   15     -1.12      0.00
   -1   27   15     -4.12      0.00
    1   27   15     -6.30      0.00
   -6   28   15     -5.95      0.00
   -4   28   15     -6.11      0.00
   -2   28   15      0.78      0.00
  -26    0   16     -3.77      0.00
  -24    0   16      0.05      0.00
  -22    0   16     -3.96      0.00
  -20    0   16     17.34      0.00
  -18    0   16     14.19      0.00
  -16    0   16     19.24      0.00
  -14    0   16     14.42      0.00
  -12    0   16    -11.05      0.00
  -10    0   16    -14.85      0.00
   -8    0   16    -51.33      0.00
   -6    0   16    -11.08      0.00
   -4    0   16    -43.58      0.00
   -2    0   16     20.47      0.00
    0    0   16    -26.01      0.00
    2    0   16      3.32      0.00
    4    0   16     -0.46      0.00
    6    0   16    -18.54      0.00
    8    0   16     -5.59      0.00
   10    0   16     -6.04      0.00
   12    0   16      4.30      0.00
   14    0   16      1.12      0.00
   16    0   16     -0.23      0.00
  -25    1   16      1.28      0.00
  -23    1   16      3.57      0.00
  -21    1   16     -3.14      0.00
  -19    1   16     -6.85      0.00
  -17    1   16     -9.46      0.00
  -15    1   16     -5.41      0.00
  -13    1   16     -8.71      0.00
  -11    1   16     11.20      0.00
   -9    1   16     13.33      0.00
   -7    1   16     23.26      0.00
   -5    1   16      9.88      0.00
   -3    1   16     18.65      0.00
   -1    1   16    -16.77      0.00
    1    1   16     21.31      0.00
    3    1   16    -22.29      0.00
    5    1   16     12.26      0.00
    7    1   16      5.70      0.00
    9    1   16     19.01      0.00
   11    1   16      7.92      0.00
   13    1   16      3.46      0.00
   15    1   16      3.20      0.00
  -26    2   16     -3.16      0.00
  -24    2   16      7.93      0.00
  -22    2   16      0.03      0.00
  -20    2   16     11.31      0.00
  -18    2   16      3.67      0.00
  -16    2   16     12.52      0.00
  -14    2   16     10.71      0.00
  -12    2   16      4.63      0.00
  -10    2   16      8.24      0.00
   -8    2   16      6.43      0.00
   -6    2   16     -2.92      0.00
   -4    2   16     -1.84      0.00
   -2    2   16     14.59      0.00
    0    2   16      2.35      0.00
    2    2   16     27.71      0.00
    4    2   16      8.14      0.00
    6    2   16      2.85      0.00
    8    2   16     -9.92      0.00
   10    2   16    -15.25      0.00
   12    2   16     -8.26      0.00
   14    2   16     -6.17      0.00
   16    2   16     -0.73      0.00
  -25    3   16     -4.61      0.00
  -23    3   16     -7.77      0.00
  -21    3   16     -4.38      0.00
  -19    3   16    -13.60      0.00
  -17    3   16     -2.59      0.00
  -15    3   16    -17.76      0.00
  -13    3   16     15.74      0.00
  -11    3   16     -2.46      0.00
   -9    3   16     18.53      0.00
   -7    3   16     11.02      0.00
   -5    3   16     24.39      0.00
   -3    3   16    -24.37      0.00
   -1    3   16     18.67      0.00
    1    3   16    -17.11      0.00
    3    3   16      8.47      0.00
    5    3   16     12.31      0.00
    7    3   16      7.23      0.00
    9    3   16      9.67      0.00
   11    3   16      7.97      0.00
   13    3   16      6.28      0.00
   15    3   16      5.32      0.00
  -26    4   16     -2.23      0.00
  -24    4   16      5.15      0.00
  -22    4   16     -4.98      0.00
  -20    4   16      9.71      0.00
  -18    4   16     -4.56      0.00
  -16    4   16     -4.94      0.00
  -14    4   16     -6.72      0.00
  -12    4   16     -4.55      0.00
  -10    4   16    -19.91      0.00
   -8    4   16    -20.97      0.00
   -6    4   16    -11.14      0.00
   -4    4   16      6.43      0.00
   -2    4   16     38.03      0.00
    0    4   16    -18.63      0.00
    2    4   16      5.76      0.00
    4    4   16    -22.30      0.00
    6    4   16      5.29      0.00
    8    4   16    -19.30      0.00
   10    4   16     -6.33      0.00
   12    4   16     -1.80      0.00
   14    4   16     -4.60      0.00
   16    4   16     -3.87      0.00
  -25    5   16     -3.00      0.00
  -23    5   16      4.70      0.00
  -21    5   16    -10.24      0.00
  -19    5   16      1.53      0.00
  -17    5   16     -4.92      0.00
  -15    5   16      7.31      0.00
  -13    5   16    -25.05      0.00
  -11    5   16      8.63      0.00
   -9    5   16    -12.45      0.00
   -7    5   16    -11.45      0.00
   -5    5   16      2.79      0.00
   -3    5   16    -51.06      0.00
   -1    5   16      0.83      0.00
    1    5   16    -23.60      0.00
    3    5   16    -20.65      0.00
    5    5   16    -22.69      0.00
    7    5   16     -7.80      0.00
    9    5   16      5.29      0.00
   11    5   16     -8.76      0.00
   13    5   16     -5.93      0.00
   15    5   16     -5.54      0.00
  -26    6   16     -3.26      0.00
  -24    6   16      2.35      0.00
  -22    6   16     -4.69      0.00
  -20    6   16      4.37      0.00
  -18    6   16    -15.30      0.00
  -16    6   16     11.29      0.00
  -14    6   16    -22.52      0.00
  -12    6   16     -8.21      0.00
  -10    6   16    -26.73      0.00
   -8    6   16     14.30      0.00
   -6    6   16    -28.15      0.00
   -4    6   16    -11.10      0.00
   -2    6   16    -31.80      0.00
    0    6   16    -27.67      0.00
    2    6   16     38.19      0.00
    4    6   16    -18.55      0.00
    6    6   16      0.79      0.00
    8    6   16    -12.75      0.00
   10    6   16      1.48      0.00
   12    6   16     -1.33      0.00
   14    6   16     -1.09      0.00
   16    6   16      1.44      0.00
  -25    7   16     -3.02      0.00
  -23    7   16      0.74      0.00
  -21    7   16     -4.37      0.00
  -19    7   16     13.57      0.00
  -17    7   16     -5.82      0.00
  -15    7   16     18.51      0.00
  -13    7   16     17.66      0.00
  -11    7   16     19.04      0.00
   -9    7   16     -0.40      0.00
   -7    7   16    -15.76      0.00
   -5    7   16     -8.03      0.00
   -3    7   16     -0.32      0.00
   -1    7   16     18.36      0.00
    1    7   16    -25.68      0.00
    3    7   16     13.91      0.00
    5    7   16     12.17      0.00
    7    7   16      9.15      0.00
    9    7   16      1.25      0.00
   11    7   16     -1.79      0.00
   13    7   16      1.30      0.00
   15    7   16      2.26      0.00
  -24    8   16      2.64      0.00
  -22    8   16      4.97      0.00
  -20    8   16      3.02      0.00
  -18    8   16     -1.89      0.00
  -16    8   16     -5.77      0.00
  -14    8   16     -2.50      0.00
  -12    8   16     17.31      0.00
  -10    8   16     -5.76      0.00
   -8    8   16     34.74      0.00
   -6    8   16     10.99      0.00
   -4    8   16     56.06      0.00
   -2    8   16     30.07      0.00
    0    8   16     24.28      0.00
    2    8   16      1.44      0.00
    4    8   16      0.74      0.00
    6    8   16     16.29      0.00
    8    8   16     -1.38      0.00
   10    8   16     12.60      0.00
   12    8   16      4.74      0.00
   14    8   16      9.93      0.00
   16    8   16      2.07      0.00
  -25    9   16      4.27      0.00
  -23    9   16      3.30      0.00
  -21    9   16     -1.87      0.00
  -19    9   16      9.55      0.00
  -17    9   16     11.51      0.00
  -15    9   16     17.68      0.00
  -13    9   16     -9.18      0.00
  -11    9   16     16.09      0.00
   -9    9   16     15.74      0.00
   -7    9   16     28.48      0.00
   -5    9   16     21.77      0.00
   -3    9   16    -14.67      0.00
   -1    9   16     18.31      0.00
    1    9   16     19.76      0.00
    3    9   16     13.93      0.00
    5    9   16      3.16      0.00
    7    9   16      5.92      0.00
    9    9   16      6.94      0.00
   11    9   16     -1.00      0.00
   13    9   16      6.38      0.00
   15    9   16     -4.77      0.00
  -24   10   16     -5.92      0.00
  -22   10   16      5.11      0.00
  -20   10   16     -4.97      0.00
  -18   10   16     -1.88      0.00
  -16   10   16      2.80      0.00
  -14   10   16    -12.03      0.00
  -12   10   16      1.95      0.00
  -10   10   16     -3.42      0.00
   -8   10   16    -29.73      0.00
   -6   10   16     19.47      0.00
   -4   10   16    -26.83      0.00
   -2   10   16     17.75      0.00
    0   10   16    -20.50      0.00
    2   10   16     16.60      0.00
    4   10   16    -10.84      0.00
    6   10   16      8.75      0.00
    8   10   16     -5.80      0.00
   10   10   16     12.81      0.00
   12   10   16     -2.14      0.00
   14   10   16     -1.36      0.00
  -25   11   16      3.65      0.00
  -23   11   16     -0.04      0.00
  -21   11   16     -5.61      0.00
  -19   11   16      5.30      0.00
  -17   11   16    -22.86      0.00
  -15   11   16     -0.98      0.00
  -13   11   16      6.25      0.00
  -11   11   16     -8.16      0.00
   -9   11   16      5.78      0.00
   -7   11   16    -23.64      0.00
   -5   11   16    -19.17      0.00
   -3   11   16      9.25      0.00
   -1   11   16     -7.64      0.00
    1   11   16     -1.91      0.00
    3   11   16      1.13      0.00
    5   11   16     -2.01      0.00
    7   11   16     -1.04      0.00
    9   11   16    -12.32      0.00
   11   11   16    -16.15      0.00
   13   11   16     -2.02      0.00
   15   11   16     -6.24      0.00
  -24   12   16     -6.32      0.00
  -22   12   16      1.93      0.00
  -20   12   16     -5.78      0.00
  -18   12   16      7.68      0.00
  -16   12   16     11.65      0.00
  -14   12   16     -7.17      0.00
  -12   12   16      2.21      0.00
  -10   12   16    -15.33      0.00
   -8   12   16     -1.79      0.00
   -6   12   16    -13.60      0.00
   -4   12   16    -18.31      0.00
   -2   12   16    -35.89      0.00
    0   12   16    -22.23      0.00
    2   12   16    -27.25      0.00
    4   12   16    -16.82      0.00
    6   12   16    -12.43      0.00
    8   12   16     -8.36      0.00
   10   12   16      8.53      0.00
   12   12   16     -1.47      0.00
   14   12   16      3.86      0.00
  -23   13   16      3.00      0.00
  -21   13   16     -1.17      0.00
  -19   13   16      1.98      0.00
  -17   13   16    -10.54      0.00
  -15   13   16      2.94      0.00
  -13   13   16    -20.08      0.00
  -11   13   16    -12.16      0.00
   -9   13   16      5.71      0.00
   -7   13   16      0.75      0.00
   -5   13   16     10.73      0.00
   -3   13   16      5.62      0.00
   -1   13   16      1.22      0.00
    1   13   16      6.80      0.00
    3   13   16      8.09      0.00
    5   13   16     -5.97      0.00
    7   13   16      5.95      0.00
    9   13   16     -1.83      0.00
   11   13   16      0.53      0.00
   13   13   16     -0.22      0.00
  -22   14   16     -1.10      0.00
  -20   14   16     -0.68      0.00
  -18   14   16     -2.07      0.00
  -16   14   16      1.85      0.00
  -14   14   16      4.96      0.00
  -12   14   16     28.61      0.00
  -10   14   16     -9.12      0.00
   -8   14   16      0.72      0.00
   -6   14   16    -12.07      0.00
   -4   14   16      6.00      0.00
   -2   14   16     14.73      0.00
    0   14   16      8.02      0.00
    2   14   16     -9.06      0.00
    4   14   16      3.55      0.00
    6   14   16      3.38      0.00
    8   14   16     -5.86      0.00
   10   14   16      3.05      0.00
   12   14   16     -5.91      0.00
   14   14   16      4.93      0.00
  -23   15   16     -1.11      0.00
  -21   15   16     -0.48      0.00
  -19   15   16      1.61      0.00
  -17   15   16    -11.36      0.00
  -15   15   16     -6.13      0.00
  -13   15   16    -18.18      0.00
  -11   15   16      8.34      0.00
   -9   15   16     -2.18      0.00
   -7   15   16     21.35      0.00
   -5   15   16      3.00      0.00
   -3   15   16     -0.90      0.00
   -1   15   16      6.38      0.00
    1   15   16      3.83      0.00
    3   15   16     14.70      0.00
    5   15   16      3.58      0.00
    7   15   16      4.96      0.00
    9   15   16     -4.15      0.00
   11   15   16     -3.76      0.00
   13   15   16      2.04      0.00
  -22   16   16      1.79      0.00
  -20   16   16     -3.30      0.00
  -18   16   16      5.13      0.00
  -16   16   16     15.85      0.00
  -14   16   16      2.21      0.00
  -12   16   16      3.57      0.00
  -10   16   16      6.57      0.00
   -8   16   16     -0.52      0.00
   -6   16   16      4.29      0.00
   -4   16   16      1.34      0.00
   -2   16   16    -16.60      0.00
    0   16   16      6.15      0.00
    2   16   16     -0.17      0.00
    4   16   16     -4.71      0.00
    6   16   16     -0.98      0.00
    8   16   16      3.60      0.00
   10   16   16      5.66      0.00
   12   16   16      2.71      0.00
  -21   17   16      5.29      0.00
  -19   17   16      2.12      0.00
  -17   17   16     -0.38      0.00
  -15   17   16     -0.31      0.00
  -13   17   16     -0.45      0.00
  -11   17   16     -8.19      0.00
   -9   17   16     -2.77      0.00
   -7   17   16     -7.74      0.00
   -5   17   16      3.53      0.00
   -3   17   16     12.68      0.00
   -1   17   16     10.72      0.00
    1   17   16     -1.96      0.00
    3   17   16      3.50      0.00
    5   17   16     -7.71      0.00
    7   17   16      8.77      0.00
    9   17   16      0.16      0.00
   11   17   16      7.19      0.00
  -20   18   16     -0.68      0.00
  -18   18   16      3.70      0.00
  -16   18   16     -2.82      0.00
  -14   18   16     14.51      0.00
  -12   18   16     13.55      0.00
  -10   18   16     -0.79      0.00
   -8   18   16     19.84      0.00
   -6   18   16    -17.32      0.00
   -4   18   16     13.73      0.00
   -2   18   16     -8.73      0.00
    0   18   16     -6.39      0.00
    2   18   16     -4.33      0.00
    4   18   16      8.97      0.00
    6   18   16     -1.27      0.00
    8   18   16     -0.21      0.00
   10   18   16     -3.41      0.00
   12   18   16      0.50      0.00
  -21   19   16      5.32      0.00
  -19   19   16     -4.24      0.00
  -17   19   16      4.34      0.00
  -15   19   16     -5.80      0.00
  -13   19   16     -7.22      0.00
  -11   19   16      1.36      0.00
   -9   19   16     -6.71      0.00
   -7   19   16      4.89      0.00
   -5   19   16     -9.89      0.00
   -3   19   16     -7.46      0.00
   -1   19   16     -0.24      0.00
    1   19   16      7.74      0.00
    3   19   16      1.67      0.00
    5   19   16      9.97      0.00
    7   19   16      0.10      0.00
    9   19   16      0.99      0.00
   11   19   16      0.32      0.00
  -20   20   16     -0.06      0.00
  -18   20   16     -0.61      0.00
  -16   20   16     -2.32      0.00
  -14   20   16      4.26      0.00
  -12   20   16    -12.12      0.00
  -10   20   16     20.53      0.00
   -8   20   16    -12.96      0.00
   -6   20   16     21.18      0.00
   -4   20   16      4.42      0.00
   -2   20   16      4.75      0.00
    0   20   16     12.29      0.00
    2   20   16     -6.18      0.00
    4   20   16      1.77      0.00
    6   20   16     -9.75      0.00
    8   20   16      5.56      0.00
   10   20   16     -4.91      0.00
  -17   21   16      1.69      0.00
  -15   21   16     -4.53      0.00
  -13   21   16     -3.92      0.00
  -11   21   16     -2.38      0.00
   -9   21   16    -22.27      0.00
   -7   21   16     13.73      0.00
   -5   21   16    -26.63      0.00
   -3   21   16     15.56      0.00
   -1   21   16    -20.13      0.00
    1   21   16      3.29      0.00
    3   21   16    -11.60      0.00
    5   21   16     -4.40      0.00
    7   21   16     -6.58      0.00
    9   21   16     -6.10      0.00
  -18   22   16      2.37      0.00
  -16   22   16     -7.87      0.00
  -14   22   16      2.21      0.00
  -12   22   16     -2.58      0.00
  -10   22   16     -4.21      0.00
   -8   22   16     -2.72      0.00
   -6   22   16     -8.91      0.00
   -4   22   16      0.08      0.00
   -2   22   16     -9.92      0.00
    0   22   16     -2.55      0.00
    2   22   16    -12.39      0.00
    4   22   16      4.70      0.00
    6   22   16     -7.57      0.00
  -17   23   16      4.39      0.00
  -15   23   16     -0.33      0.00
  -13   23   16      5.99      0.00
  -11   23   16      0.12      0.00
   -9   23   16      8.50      0.00
   -7   23   16     -6.77      0.00
   -5   23   16     -2.48      0.00
   -3   23   16     -4.59      0.00
   -1   23   16     -4.01      0.00
    1   23   16      6.27      0.00
    3   23   16     -4.65      0.00
  -14   24   16      1.41      0.00
  -12   24   16     -3.04      0.00
  -10   24   16      3.33      0.00
   -8   24   16      5.77      0.00
   -6   24   16      5.72      0.00
   -4   24   16      4.08      0.00
   -2   24   16     -0.33      0.00
    0   24   16      6.17      0.00
    2   24   16      2.46      0.00
    4   24   16     10.23      0.00
  -13   25   16      1.54      0.00
  -11   25   16      3.95      0.00
   -9   25   16     -4.15      0.00
   -7   25   16      5.54      0.00
   -5   25   16      1.39      0.00
   -3   25   16     10.68      0.00
   -1   25   16      4.89      0.00
    1   25   16      1.74      0.00
    3   25   16      3.51      0.00
   -6   26   16      0.90      0.00
   -4   26   16      4.13      0.00
   -2   26   16      5.44      0.00
    0   26   16      3.12      0.00
   -9   27   16      9.18      0.00
   -7   27   16      1.11      0.00
   -5   27   16     -0.12      0.00
   -3   27   16    -11.38      0.00
   -1   27   16     -0.66      0.00
  -25    1   17     -3.33      0.00
  -23    1   17     -2.34      0.00
  -21    1   17     -1.33      0.00
  -19    1   17     -7.90      0.00
  -17    1   17     -1.67      0.00
  -15    1   17     -4.08      0.00
  -13    1   17     -3.13      0.00
  -11    1   17    -15.44      0.00
   -9    1   17      7.88      0.00
   -7    1   17    -14.23      0.00
   -5    1   17    -17.55      0.00
   -3    1   17     -2.23      0.00
   -1    1   17    -31.00      0.00
    1    1   17     15.94      0.00
    3    1   17     -9.02      0.00
    5    1   17      6.88      0.00
    7    1   17     14.99      0.00
    9    1   17     18.78      0.00
   11    1   17      8.88      0.00
   13    1   17      3.87      0.00
   15    1   17      1.19      0.00
  -26    2   17      1.94      0.00
  -24    2   17      7.55      0.00
  -22    2   17      1.21      0.00
  -20    2   17     15.21      0.00
  -18    2   17      3.00      0.00
  -16    2   17     12.28      0.00
  -14    2   17    -10.41      0.00
  -12    2   17      9.99      0.00
  -10    2   17     -5.25      0.00
   -8    2   17     -2.99      0.00
   -6    2   17     17.69      0.00
   -4    2   17    -10.52      0.00
   -2    2   17     11.32      0.00
    0    2   17     -3.39      0.00
    2    2   17     -1.66      0.00
    4    2   17      7.03      0.00
    6    2   17     -9.92      0.00
    8    2   17     -0.48      0.00
   10    2   17    -11.64      0.00
   12    2   17     -0.20      0.00
   14    2   17     -1.31      0.00
  -25    3   17     -0.22      0.00
  -23    3   17     -5.30      0.00
  -21    3   17     -1.82      0.00
  -19    3   17     -8.89      0.00
  -17    3   17     10.63      0.00
  -15    3   17     -7.64      0.00
  -13    3   17     18.99      0.00
  -11    3   17     -4.93      0.00
   -9    3   17     20.46      0.00
   -7    3   17    -21.34      0.00
   -5    3   17     14.77      0.00
   -3    3   17      9.61      0.00
   -1    3   17      8.32      0.00
    1    3   17     25.89      0.00
    3    3   17    -14.66      0.00
    5    3   17     18.49      0.00
    7    3   17     -4.04      0.00
    9    3   17      8.19      0.00
   11    3   17      5.87      0.00
   13    3   17      6.13      0.00
   15    3   17      4.93      0.00
  -24    4   17      6.32      0.00
  -22    4   17      8.79      0.00
  -20    4   17     10.12      0.00
  -18    4   17      6.89      0.00
  -16    4   17      1.21      0.00
  -14    4   17     16.20      0.00
  -12    4   17     -4.93      0.00
  -10    4   17     15.96      0.00
   -8    4   17     -5.09      0.00
   -6    4   17     25.41      0.00
   -4    4   17     -7.58      0.00
   -2    4   17     39.18      0.00
    0    4   17     -6.27      0.00
    2    4   17     20.57      0.00
    4    4   17      3.19      0.00
    6    4   17     -0.74      0.00
    8    4   17      3.04      0.00
   10    4   17     -4.76      0.00
   12    4   17      1.08      0.00
   14    4   17     -3.14      0.00
  -25    5   17     -3.31      0.00
  -23    5   17     -6.84      0.00
  -21    5   17     -6.38      0.00
  -19    5   17    -11.23      0.00
  -17    5   17     -0.39      0.00
  -15    5   17      0.64      0.00
  -13    5   17      9.57      0.00
  -11    5   17     -3.68      0.00
   -9    5   17     15.98      0.00
   -7    5   17     18.36      0.00
   -5    5   17     14.93      0.00
   -3    5   17     -3.51      0.00
   -1    5   17    -33.95      0.00
    1    5   17      2.74      0.00
    3    5   17     -6.06      0.00
    5    5   17     21.19      0.00
    7    5   17     -7.83      0.00
    9    5   17     12.49      0.00
   11    5   17      5.60      0.00
   13    5   17     -1.49      0.00
   15    5   17     -2.38      0.00
  -24    6   17      4.28      0.00
  -22    6   17     -7.29      0.00
  -20    6   17      9.29      0.00
  -18    6   17     -9.49      0.00
  -16    6   17      0.15      0.00
  -14    6   17    -21.34      0.00
  -12    6   17     10.41      0.00
  -10    6   17    -12.11      0.00
   -8    6   17     -2.60      0.00
   -6    6   17     -3.18      0.00
   -4    6   17    -20.48      0.00
   -2    6   17     17.83      0.00
    0    6   17     -9.14      0.00
    2    6   17    -10.22      0.00
    4    6   17    -15.82      0.00
    6    6   17    -12.46      0.00
    8    6   17    -11.33      0.00
   10    6   17    -25.45      0.00
   12    6   17     -5.44      0.00
   14    6   17     -6.61      0.00
  -25    7   17     -6.29      0.00
  -23    7   17      1.12      0.00
  -21    7   17     -5.19      0.00
  -19    7   17     -6.31      0.00
  -17    7   17      1.95      0.00
  -15    7   17    -22.13      0.00
  -13    7   17     -8.00      0.00
  -11    7   17    -14.62      0.00
   -9    7   17    -22.69      0.00
   -7    7   17    -39.74      0.00
   -5    7   17    -44.25      0.00
   -3    7   17    -23.04      0.00
   -1    7   17    -10.33      0.00
    1    7   17      1.53      0.00
    3    7   17    -28.35      0.00
    5    7   17      2.63      0.00
    7    7   17     -0.23      0.00
    9    7   17     14.57      0.00
   11    7   17      3.57      0.00
   13    7   17     -2.06      0.00
   15    7   17      3.56      0.00
  -24    8   17      4.99      0.00
  -22    8   17     -5.40      0.00
  -20    8   17      8.77      0.00
  -18    8   17    -18.84      0.00
  -16    8   17     14.30      0.00
  -14    8   17    -13.08      0.00
  -12    8   17    -18.36      0.00
  -10    8   17    -30.02      0.00
   -8    8   17      6.76      0.00
   -6    8   17     -6.14      0.00
   -4    8   17     40.36      0.00
   -2    8   17    -20.99      0.00
    0    8   17     -2.30      0.00
    2    8   17     17.20      0.00
    4    8   17    -10.51      0.00
    6    8   17    -13.07      0.00
    8    8   17    -11.13      0.00
   10    8   17     -6.41      0.00
   12    8   17      0.29      0.00
   14    8   17      0.89      0.00
  -25    9   17     -2.44      0.00
  -23    9   17      1.51      0.00
  -21    9   17      2.01      0.00
  -19    9   17      3.79      0.00
  -17    9   17     10.31      0.00
  -15    9   17     16.45      0.00
  -13    9   17     21.16      0.00
  -11    9   17     16.29      0.00
   -9    9   17     30.46      0.00
   -7    9   17    -10.63      0.00
   -5    9   17     23.50      0.00
   -3    9   17    -32.97      0.00
   -1    9   17     13.56      0.00
    1    9   17    -29.26      0.00
    3    9   17     16.82      0.00
    5    9   17     10.90      0.00
    7    9   17      2.50      0.00
    9    9   17      5.48      0.00
   11    9   17      1.23      0.00
   13    9   17      0.92      0.00
   15    9   17     -1.51      0.00
  -24   10   17      3.31      0.00
  -22   10   17     -1.48      0.00
  -20   10   17      5.69      0.00
  -18   10   17     -3.67      0.00
  -16   10   17     -3.57      0.00
  -14   10   17    -11.55      0.00
  -12   10   17     32.56      0.00
  -10   10   17      6.80      0.00
   -8   10   17     34.59      0.00
   -6   10   17      5.30      0.00
   -4   10   17     23.05      0.00
   -2   10   17     28.89      0.00
    0   10   17     24.03      0.00
    2   10   17     11.07      0.00
    4   10   17      8.55      0.00
    6   10   17     19.17      0.00
    8   10   17      7.93      0.00
   10   10   17      6.21      0.00
   12   10   17      3.94      0.00
   14   10   17      0.82      0.00
  -23   11   17      2.92      0.00
  -21   11   17      2.18      0.00
  -19   11   17      6.73      0.00
  -17   11   17     11.64      0.00
  -15   11   17      3.74      0.00
  -13   11   17      4.68      0.00
  -11   11   17      1.40      0.00
   -9   11   17     -9.03      0.00
   -7   11   17     21.08      0.00
   -5   11   17     -7.94      0.00
   -3   11   17     15.68      0.00
   -1   11   17      1.66      0.00
    1   11   17     14.29      0.00
    3   11   17     -6.43      0.00
    5   11   17      9.70      0.00
    7   11   17     -6.97      0.00
    9   11   17      7.06      0.00
   11   11   17     -4.80      0.00
   13   11   17      2.56      0.00
  -24   12   17     -3.28      0.00
  -22   12   17     -2.68      0.00
  -20   12   17     -6.52      0.00
  -18   12   17    -11.96      0.00
  -16   12   17      6.48      0.00
  -14   12   17     -5.69      0.00
  -12   12   17    -14.19      0.00
  -10   12   17    -17.72      0.00
   -8   12   17     -4.24      0.00
   -6   12   17      6.21      0.00
   -4   12   17     10.66      0.00
   -2   12   17     -1.70      0.00
    0   12   17     -6.17      0.00
    2   12   17     11.95      0.00
    4   12   17    -12.89      0.00
    6   12   17     -7.47      0.00
    8   12   17     -9.40      0.00
   10   12   17      3.75      0.00
   12   12   17      1.74      0.00
   14   12   17     -0.55      0.00
  -23   13   17     -0.51      0.00
  -21   13   17      0.80      0.00
  -19   13   17      7.40      0.00
  -17   13   17     -3.38      0.00
  -15   13   17     -1.98      0.00
  -13   13   17      7.64      0.00
  -11   13   17      7.09      0.00
   -9   13   17      4.91      0.00
   -7   13   17    -33.67      0.00
   -5   13   17    -20.94      0.00
   -3   13   17    -22.68      0.00
   -1   13   17     -7.32      0.00
    1   13   17     -7.22      0.00
    3   13   17    -11.83      0.00
    5   13   17      5.50      0.00
    7   13   17      0.90      0.00
    9   13   17      2.98      0.00
   11   13   17     -5.97      0.00
   13   13   17     -0.88      0.00
  -22   14   17      2.80      0.00
  -20   14   17     -0.52      0.00
  -18   14   17     -0.72      0.00
  -16   14   17     -4.31      0.00
  -14   14   17    -19.46      0.00
  -12   14   17     -3.46      0.00
  -10   14   17     -7.42      0.00
   -8   14   17      2.85      0.00
   -6   14   17      7.07      0.00
   -4   14   17     -4.20      0.00
   -2   14   17     -8.92      0.00
    0   14   17     -9.99      0.00
    2   14   17     -2.45      0.00
    4   14   17      0.98      0.00
    6   14   17     12.76      0.00
    8   14   17     -3.75      0.00
   10   14   17      9.97      0.00
   12   14   17     -8.13      0.00
  -23   15   17     -5.31      0.00
  -21   15   17     -1.37      0.00
  -19   15   17     -3.10      0.00
  -17   15   17     -0.81      0.00
  -15   15   17     16.58      0.00
  -13   15   17      4.61      0.00
  -11   15   17     -5.64      0.00
   -9   15   17      9.39      0.00
   -7   15   17     -8.69      0.00
   -5   15   17      8.34      0.00
   -3   15   17      2.68      0.00
   -1   15   17     -0.61      0.00
    1   15   17     -1.28      0.00
    3   15   17      4.87      0.00
    5   15   17    -12.18      0.00
    7   15   17    -11.34      0.00
    9   15   17     -5.64      0.00
   11   15   17     -7.71      0.00
   13   15   17      6.17      0.00
  -22   16   17      2.90      0.00
  -20   16   17     -0.96      0.00
  -18   16   17     -1.30      0.00
  -16   16   17      0.56      0.00
  -14   16   17    -13.21      0.00
  -12   16   17     13.66      0.00
  -10   16   17    -24.43      0.00
   -8   16   17     15.71      0.00
   -6   16   17    -12.69      0.00
   -4   16   17     10.17      0.00
   -2   16   17      0.29      0.00
    0   16   17      7.56      0.00
    2   16   17     -4.23      0.00
    4   16   17     -7.37      0.00
    6   16   17      0.43      0.00
    8   16   17     -8.89      0.00
   10   16   17      6.80      0.00
   12   16   17     -2.16      0.00
  -21   17   17     -4.77      0.00
  -19   17   17      1.26      0.00
  -17   17   17     -7.07      0.00
  -15   17   17     -0.75      0.00
  -13   17   17     -5.98      0.00
  -11   17   17     18.88      0.00
   -9   17   17     -9.53      0.00
   -7   17   17     12.32      0.00
   -5   17   17     -7.76      0.00
   -3   17   17      1.50      0.00
   -1   17   17     19.01      0.00
    1   17   17    -10.14      0.00
    3   17   17      6.52      0.00
    5   17   17     -2.43      0.00
    7   17   17      7.04      0.00
    9   17   17     -0.56      0.00
  -20   18   17      3.29      0.00
  -18   18   17      4.27      0.00
  -16   18   17      5.81      0.00
  -14   18   17     -2.44      0.00
  -12   18   17      1.47      0.00
  -10   18   17    -10.23      0.00
   -8   18   17     16.11      0.00
   -6   18   17     -8.23      0.00
   -4   18   17     14.89      0.00
   -2   18   17    -29.33      0.00
    0   18   17     -1.70      0.00
    2   18   17     -0.55      0.00
    4   18   17     -3.76      0.00
    6   18   17     16.56      0.00
    8   18   17     -5.27      0.00
   10   18   17     11.38      0.00
  -19   19   17      0.06      0.00
  -17   19   17     -6.63      0.00
  -15   19   17      7.47      0.00
  -13   19   17     -2.65      0.00
  -11   19   17     -1.60      0.00
   -9   19   17      8.10      0.00
   -7   19   17    -16.20      0.00
   -5   19   17      8.84      0.00
   -3   19   17     -7.14      0.00
   -1   19   17     11.14      0.00
    1   19   17      2.89      0.00
    3   19   17     16.56      0.00
    5   19   17     -4.87      0.00
    7   19   17      2.18      0.00
    9   19   17      3.72      0.00
  -18   20   17      4.82      0.00
  -16   20   17      2.57      0.00
  -14   20   17      7.57      0.00
  -12   20   17      5.26      0.00
  -10   20   17      0.93      0.00
   -8   20   17      0.00      0.00
   -6   20   17     -3.20      0.00
   -4   20   17      8.73      0.00
   -2   20   17      8.99      0.00
    0   20   17      5.50      0.00
    2   20   17      1.29      0.00
    4   20   17     -0.23      0.00
    6   20   17      4.29      0.00
    8   20   17     -3.54      0.00
  -17   21   17      3.14      0.00
  -15   21   17     -5.49      0.00
  -13   21   17     -4.06      0.00
  -11   21   17     11.16      0.00
   -9   21   17     -8.05      0.00
   -7   21   17     22.65      0.00
   -5   21   17     -1.79      0.00
   -3   21   17      6.22      0.00
   -1   21   17      5.17      0.00
    1   21   17     -4.85      0.00
    3   21   17      2.30      0.00
    5   21   17      1.32      0.00
    7   21   17     -1.44      0.00
  -16   22   17     -0.22      0.00
  -14   22   17      1.49      0.00
  -12   22   17     -1.14      0.00
  -10   22   17     -2.40      0.00
   -8   22   17      6.82      0.00
   -6   22   17    -13.15      0.00
   -4   22   17      3.35      0.00
   -2   22   17    -11.20      0.00
    0   22   17     -1.69      0.00
    2   22   17     -2.80      0.00
    4   22   17     -8.92      0.00
    6   22   17     -2.59      0.00
  -15   23   17     -5.88      0.00
  -13   23   17     -2.80      0.00
  -11   23   17    -11.41      0.00
   -9   23   17     -3.10      0.00
   -7   23   17     -4.82      0.00
   -5   23   17     -3.40      0.00
   -3   23   17     -6.59      0.00
   -1   23   17     -8.95      0.00
    1   23   17     -1.14      0.00
    3   23   17     -4.00      0.00
  -14   24   17      6.99      0.00
  -12   24   17     -2.45      0.00
  -10   24   17      5.94      0.00
   -8   24   17    -12.85      0.00
   -6   24   17      4.65      0.00
   -4   24   17     -8.80      0.00
   -2   24   17      4.61      0.00
    0   24   17     -4.81      0.00
    2   24   17     -3.08      0.00
   -9   25   17      1.22      0.00
   -7   25   17     -4.66      0.00
   -5   25   17     -1.03      0.00
   -3   25   17      2.46      0.00
   -1   25   17      3.11      0.00
    1   25   17      7.25      0.00
   -8   26   17      5.72      0.00
   -6   26   17      7.42      0.00
   -4   26   17      2.18      0.00
   -2   26   17      1.23      0.00
   -7   27   17      5.91      0.00
   -5   27   17     -0.94      0.00
   -3   27   17      6.21      0.00
  -26    0   18      4.57      0.00
  -24    0   18     -4.23      0.00
  -22    0   18      9.44      0.00
  -20    0   18     -6.85      0.00
  -18    0   18      1.19      0.00
  -16    0   18    -14.35      0.00
  -14    0   18      5.93      0.00
  -12    0   18     -3.53      0.00
  -10    0   18      0.56      0.00
   -8    0   18     18.03      0.00
   -6    0   18     -9.57      0.00
   -4    0   18      3.47      0.00
   -2    0   18    -33.67      0.00
    0    0   18      8.45      0.00
    2    0   18    -15.10      0.00
    4    0   18     23.65      0.00
    6    0   18     -3.46      0.00
    8    0   18      4.84      0.00
   10    0   18      4.95      0.00
   12    0   18     -5.11      0.00
   14    0   18     -1.28      0.00
  -25    1   18      0.00      0.00
  -23    1   18     -0.58      0.00
  -21    1   18     -1.00      0.00
  -19    1   18      4.81      0.00
  -17    1   18     -2.35      0.00
  -15    1   18      9.55      0.00
  -13    1   18    -14.69      0.00
  -11    1   18      4.68      0.00
   -9    1   18    -24.15      0.00
   -7    1   18     30.69      0.00
   -5    1   18     -3.48      0.00
   -3    1   18     32.68      0.00
   -1    1   18     -8.08      0.00
    1    1   18    -17.66      0.00
    3    1   18    -10.27      0.00
    5    1   18    -37.97      0.00
    7    1   18    -11.02      0.00
    9    1   18    -15.43      0.00
   11    1   18     -0.77      0.00
   13    1   18     -2.58      0.00
  -26    2   18      1.01      0.00
  -24    2   18     -5.35      0.00
  -22    2   18     -1.91      0.00
  -20    2   18    -12.73      0.00
  -18    2   18      1.83      0.00
  -16    2   18     -3.17      0.00
  -14    2   18     -1.16      0.00
  -12    2   18      5.86      0.00
  -10    2   18     11.47      0.00
   -8    2   18    -17.27      0.00
   -6    2   18    -42.76      0.00
   -4    2   18    -12.85      0.00
   -2    2   18    -41.95      0.00
    0    2   18     37.87      0.00
    2    2   18     -5.17      0.00
    4    2   18     39.50      0.00
    6    2   18     30.98      0.00
    8    2   18     14.62      0.00
   10    2   18      1.26      0.00
   12    2   18     -4.29      0.00
   14    2   18      1.74      0.00
  -25    3   18      3.07      0.00
  -23    3   18     -3.37      0.00
  -21    3   18     11.39      0.00
  -19    3   18     -9.94      0.00
  -17    3   18      5.26      0.00
  -15    3   18    -13.79      0.00
  -13    3   18      9.97      0.00
  -11    3   18    -15.17      0.00
   -9    3   18     12.16      0.00
   -7    3   18      2.90      0.00
   -5    3   18      2.25      0.00
   -3    3   18     20.62      0.00
   -1    3   18      5.06      0.00
    1    3   18      7.38      0.00
    3    3   18    -10.01      0.00
    5    3   18    -34.83      0.00
    7    3   18     -9.25      0.00
    9    3   18     -8.41      0.00
   11    3   18      6.42      0.00
   13    3   18      3.67      0.00
   15    3   18      4.50      0.00
  -24    4   18     -0.79      0.00
  -22    4   18      4.07      0.00
  -20    4   18     -1.62      0.00
  -18    4   18     13.53      0.00
  -16    4   18     -5.89      0.00
  -14    4   18      7.64      0.00
  -12    4   18     -8.92      0.00
  -10    4   18     -2.95      0.00
   -8    4   18    -17.97      0.00
   -6    4   18     21.02      0.00
   -4    4   18     -6.17      0.00
   -2    4   18      4.48      0.00
    0    4   18    -15.08      0.00
    2    4   18     -4.45      0.00
    4    4   18     25.08      0.00
    6    4   18     11.26      0.00
    8    4   18     11.19      0.00
   10    4   18      5.09      0.00
   12    4   18      3.33      0.00
   14    4   18      3.77      0.00
  -25    5   18      9.98      0.00
  -23    5   18      2.10      0.00
  -21    5   18      8.24      0.00
  -19    5   18     -2.98      0.00
  -17    5   18      5.51      0.00
  -15    5   18      0.38      0.00
  -13    5   18     -2.90      0.00
  -11    5   18      0.11      0.00
   -9    5   18     15.94      0.00
   -7    5   18      9.44      0.00
   -5    5   18     29.86      0.00
   -3    5   18     17.48      0.00
   -1    5   18      6.62      0.00
    1    5   18     25.67      0.00
    3    5   18    -10.71      0.00
    5    5   18     12.06      0.00
    7    5   18      3.58      0.00
    9    5   18     10.12      0.00
   11    5   18      2.29      0.00
   13    5   18      0.40      0.00
   15    5   18     -1.98      0.00
  -26    6   18     -3.77      0.00
  -24    6   18     -7.79      0.00
  -22    6   18      0.63      0.00
  -20    6   18      1.53      0.00
  -18    6   18     13.49      0.00
  -16    6   18     12.39      0.00
  -14    6   18     16.76      0.00
  -12    6   18     22.19      0.00
  -10    6   18     28.01      0.00
   -8    6   18      7.91      0.00
   -6    6   18      8.86      0.00
   -4    6   18    -37.35      0.00
   -2    6   18     11.21      0.00
    0    6   18     -6.99      0.00
    2    6   18      8.15      0.00
    4    6   18      1.11      0.00
    6    6   18    -15.01      0.00
    8    6   18     -2.45      0.00
   10    6   18     -8.64      0.00
   12    6   18     -2.27      0.00
   14    6   18     -2.25      0.00
  -25    7   18      1.34      0.00
  -23    7   18     -2.54      0.00
  -21    7   18      1.45      0.00
  -19    7   18     -9.88      0.00
  -17    7   18     -1.44      0.00
  -15    7   18     -5.35      0.00
  -13    7   18     20.11      0.00
  -11    7   18    -15.08      0.00
   -9    7   18      4.92      0.00
   -7    7   18     -1.81      0.00
   -5    7   18     -6.64      0.00
   -3    7   18     25.05      0.00
   -1    7   18    -15.33      0.00
    1    7   18     19.73      0.00
    3    7   18     -5.64      0.00
    5    7   18     15.24      0.00
    7    7   18     -7.69      0.00
    9    7   18      2.08      0.00
   11    7   18      3.57      0.00
   13    7   18     -2.42      0.00
   15    7   18      1.53      0.00
  -24    8   18      1.71      0.00
  -22    8   18     -6.89      0.00
  -20    8   18     -0.30      0.00
  -18    8   18    -10.83      0.00
  -16    8   18    -11.23      0.00
  -14    8   18     -9.60      0.00
  -12    8   18    -17.14      0.00
  -10    8   18    -26.20      0.00
   -8    8   18    -11.61      0.00
   -6    8   18    -17.75      0.00
   -4    8   18     11.29      0.00
   -2    8   18    -12.32      0.00
    0    8   18    -12.25      0.00
    2    8   18    -25.76      0.00
    4    8   18      5.35      0.00
    6    8   18    -11.42      0.00
    8    8   18      2.06      0.00
   10    8   18    -15.04      0.00
   12    8   18      1.56      0.00
   14    8   18     -0.35      0.00
  -25    9   18     -0.72      0.00
  -23    9   18      0.21      0.00
  -21    9   18      1.40      0.00
  -19    9   18     -7.55      0.00
  -17    9   18      2.44      0.00
  -15    9   18    -33.48      0.00
  -13    9   18    -26.51      0.00
  -11    9   18    -12.16      0.00
   -9    9   18      0.00      0.00
   -7    9   18    -11.59      0.00
   -5    9   18     -9.82      0.00
   -3    9   18    -31.16      0.00
   -1    9   18     -5.46      0.00
    1    9   18      3.82      0.00
    3    9   18    -34.49      0.00
    5    9   18     -2.19      0.00
    7    9   18      1.06      0.00
    9    9   18     12.27      0.00
   11    9   18      0.52      0.00
   13    9   18     -0.87      0.00
  -24   10   18      0.56      0.00
  -22   10   18     -4.01      0.00
  -20   10   18      3.38      0.00
  -18   10   18      0.82      0.00
  -16   10   18     16.40      0.00
  -14   10   18     12.40      0.00
  -12   10   18      2.21      0.00
  -10   10   18     10.84      0.00
   -8   10   18    -25.60      0.00
   -6   10   18     10.13      0.00
   -4   10   18    -16.52      0.00
   -2   10   18      8.61      0.00
    0   10   18     -9.79      0.00
    2   10   18     17.68      0.00
    4   10   18     -1.94      0.00
    6   10   18     -8.21      0.00
    8   10   18     -5.89      0.00
   10   10   18    -10.32      0.00
   12   10   18      1.65      0.00
  -23   11   18      3.21      0.00
  -21   11   18      5.09      0.00
  -19   11   18     -1.08      0.00
  -17   11   18      4.23      0.00
  -15   11   18      8.45      0.00
  -13   11   18     29.05      0.00
  -11   11   18     -3.37      0.00
   -9   11   18      4.98      0.00
   -7   11   18     10.91      0.00
   -5   11   18     13.06      0.00
   -3   11   18     12.50      0.00
   -1   11   18      6.64      0.00
    1   11   18      0.37      0.00
    3   11   18     20.01      0.00
    5   11   18     17.30      0.00
    7   11   18     -4.04      0.00
    9   11   18      6.45      0.00
   11   11   18      0.16      0.00
   13   11   18      0.62      0.00
  -24   12   18      2.54      0.00
  -22   12   18     -4.21      0.00
  -20   12   18      3.68      0.00
  -18   12   18     -3.40      0.00
  -16   12   18     -6.37      0.00
  -14   12   18     -3.72      0.00
  -12   12   18      8.90      0.00
  -10   12   18     19.57      0.00
   -8   12   18     32.04      0.00
   -6   12   18     -9.85      0.00
   -4   12   18     19.99      0.00
   -2   12   18      2.50      0.00
    0   12   18     12.96      0.00
    2   12   18     -0.29      0.00
    4   12   18     -3.41      0.00
    6   12   18     -3.25      0.00
    8   12   18      4.56      0.00
   10   12   18     -6.65      0.00
   12   12   18      9.95      0.00
  -23   13   18      2.93      0.00
  -21   13   18     -0.42      0.00
  -19   13   18      4.03      0.00
  -17   13   18     16.54      0.00
  -15   13   18     -4.91      0.00
  -13   13   18     -2.55      0.00
  -11   13   18    -10.17      0.00
   -9   13   18      1.41      0.00
   -7   13   18      8.34      0.00
   -5   13   18      7.27      0.00
   -3   13   18     -1.43      0.00
   -1   13   18     -0.39      0.00
    1   13   18     -4.00      0.00
    3   13   18    -21.43      0.00
    5   13   18      5.59      0.00
    7   13   18      2.34      0.00
    9   13   18     11.91      0.00
   11   13   18      3.46      0.00
  -22   14   18     -5.35      0.00
  -20   14   18      1.85      0.00
  -18   14   18    -12.56      0.00
  -16   14   18     -1.63      0.00
  -14   14   18      2.95      0.00
  -12   14   18     -3.60      0.00
  -10   14   18     -7.05      0.00
   -8   14   18    -16.33      0.00
   -6   14   18     -0.19      0.00
   -4   14   18     -2.88      0.00
   -2   14   18      7.11      0.00
    0   14   18     -2.29      0.00
    2   14   18     17.61      0.00
    4   14   18     12.76      0.00
    6   14   18      5.65      0.00
    8   14   18      0.24      0.00
   10   14   18     -3.91      0.00
   12   14   18      1.11      0.00
  -21   15   18      3.23      0.00
  -19   15   18      0.88      0.00
  -17   15   18      3.36      0.00
  -15   15   18     -0.97      0.00
  -13   15   18      6.93      0.00
  -11   15   18     -2.13      0.00
   -9   15   18     -4.67      0.00
   -7   15   18    -12.21      0.00
   -5   15   18     -4.98      0.00
   -3   15   18    -10.87      0.00
   -1   15   18      1.12      0.00
    1   15   18      6.65      0.00
    3   15   18     -1.54      0.00
    5   15   18      4.85      0.00
    7   15   18     -8.51      0.00
    9   15   18      3.20      0.00
   11   15   18     -3.61      0.00
  -22   16   18      1.53      0.00
  -20   16   18     -1.11      0.00
  -18   16   18      0.46      0.00
  -16   16   18     -2.89      0.00
  -14   16   18     -7.65      0.00
  -12   16   18     -4.01      0.00
  -10   16   18     18.66      0.00
   -8   16   18     -6.05      0.00
   -6   16   18      8.80      0.00
   -4   16   18    -17.97      0.00
   -2   16   18      2.72      0.00
    0   16   18     -8.30      0.00
    2   16   18     -0.02      0.00
    4   16   18    -13.98      0.00
    6   16   18     -2.12      0.00
    8   16   18     -1.22      0.00
   10   16   18     -1.68      0.00
  -21   17   18     -3.39      0.00
  -19   17   18     -0.19      0.00
  -17   17   18      4.43      0.00
  -15   17   18     -0.14      0.00
  -13   17   18      5.53      0.00
  -11   17   18    -14.86      0.00
   -9   17   18      4.04      0.00
   -7   17   18     -1.35      0.00
   -5   17   18     19.25      0.00
   -3   17   18      4.73      0.00
   -1   17   18     -5.27      0.00
    1   17   18    -10.87      0.00
    3   17   18     -6.68      0.00
    5   17   18     -4.43      0.00
    7   17   18     -1.17      0.00
    9   17   18     -1.60      0.00
  -20   18   18     -2.28      0.00
  -18   18   18     -4.52      0.00
  -16   18   18     -6.02      0.00
  -14   18   18     -2.93      0.00
  -12   18   18      5.19      0.00
  -10   18   18    -14.12      0.00
   -8   18   18     15.48      0.00
   -6   18   18    -16.65      0.00
   -4   18   18      1.83      0.00
   -2   18   18      2.32      0.00
    0   18   18    -10.15      0.00
    2   18   18      2.90      0.00
    4   18   18     -0.42      0.00
    6   18   18     -0.21      0.00
    8   18   18     -7.58      0.00
   10   18   18     -0.51      0.00
  -19   19   18      3.63      0.00
  -17   19   18     -0.44      0.00
  -15   19   18      3.82      0.00
  -13   19   18      0.12      0.00
  -11   19   18      3.68      0.00
   -9   19   18      1.84      0.00
   -7   19   18    -12.96      0.00
   -5   19   18     -3.22      0.00
   -3   19   18    -21.92      0.00
   -1   19   18      9.84      0.00
    1   19   18     -2.06      0.00
    3   19   18      2.80      0.00
    5   19   18     -0.93      0.00
    7   19   18      3.00      0.00
    9   19   18      2.50      0.00
  -18   20   18     -0.80      0.00
  -16   20   18      2.04      0.00
  -14   20   18     -5.17      0.00
  -12   20   18     -3.84      0.00
  -10   20   18      1.63      0.00
   -8   20   18     -8.79      0.00
   -6   20   18      7.53      0.00
   -4   20   18      5.22      0.00
   -2   20   18      4.30      0.00
    0   20   18     12.92      0.00
    2   20   18      2.42      0.00
    4   20   18      2.75      0.00
    6   20   18      8.66      0.00
    8   20   18     -0.87      0.00
  -17   21   18     -4.80      0.00
  -15   21   18      9.52      0.00
  -13   21   18     -3.91      0.00
  -11   21   18      9.76      0.00
   -9   21   18     -2.32      0.00
   -7   21   18     15.12      0.00
   -5   21   18      6.73      0.00
   -3   21   18      7.34      0.00
   -1   21   18      1.82      0.00
    1   21   18     -3.55      0.00
    3   21   18     11.94      0.00
    5   21   18     -6.99      0.00
  -16   22   18     -0.10      0.00
  -14   22   18      1.54      0.00
  -12   22   18      6.35      0.00
  -10   22   18     -5.51      0.00
   -8   22   18     12.82      0.00
   -6   22   18     -9.09      0.00
   -4   22   18     11.46      0.00
   -2   22   18     -5.85      0.00
    0   22   18      2.25      0.00
    2   22   18     -1.09      0.00
    4   22   18      1.22      0.00
  -15   23   18     -0.43      0.00
  -13   23   18      2.07      0.00
  -11   23   18      0.98      0.00
   -9   23   18      4.31      0.00
   -7   23   18     -5.96      0.00
   -5   23   18      2.48      0.00
   -3   23   18     -5.46      0.00
   -1   23   18      6.07      0.00
    1   23   18     -7.23      0.00
  -12   24   18     -7.24      0.00
  -10   24   18      2.29      0.00
   -8   24   18     -4.17      0.00
   -6   24   18     -5.41      0.00
   -4   24   18     -3.63      0.00
   -2   24   18     -3.31      0.00
    0   24   18      2.28      0.00
    2   24   18      2.46      0.00
   -9   25   18     -2.99      0.00
   -7   25   18      1.04      0.00
   -5   25   18     -1.40      0.00
   -3   25   18     -4.16      0.00
   -1   25   18     -5.39      0.00
    1   25   18     -6.65      0.00
   -8   26   18     -8.46      0.00
   -6   26   18      6.32      0.00
   -4   26   18     -2.81      0.00
  -25    1   19      0.87      0.00
  -23    1   19      3.82      0.00
  -21    1   19     -4.34      0.00
  -19    1   19     -1.99      0.00
  -17    1   19     -7.41      0.00
  -15    1   19      7.72      0.00
  -13    1   19     -7.56      0.00
  -11    1   19     13.04      0.00
   -9    1   19     13.69      0.00
   -7    1   19     23.46      0.00
   -5    1   19    -24.82      0.00
   -3    1   19      0.44      0.00
   -1    1   19    -29.64      0.00
    1    1   19    -13.94      0.00
    3    1   19    -13.97      0.00
    5    1   19    -23.64      0.00
    7    1   19      3.37      0.00
    9    1   19     -4.28      0.00
   11    1   19     -3.89      0.00
   13    1   19     -5.94      0.00
  -24    2   19     -4.77      0.00
  -22    2   19      0.17      0.00
  -20    2   19      3.03      0.00
  -18    2   19      1.80      0.00
  -16    2   19      0.46      0.00
  -14    2   19     -7.13      0.00
  -12    2   19     -8.76      0.00
  -10    2   19    -15.48      0.00
   -8    2   19     -2.51      0.00
   -6    2   19    -20.65      0.00
   -4    2   19      5.89      0.00
   -2    2   19    -30.73      0.00
    0    2   19     22.70      0.00
    2    2   19     -6.19      0.00
    4    2   19     17.07      0.00
    6    2   19     -8.65      0.00
    8    2   19     -1.13      0.00
   10    2   19     -3.80      0.00
   12    2   19     -5.59      0.00
   14    2   19     -2.78      0.00
  -25    3   19     -0.59      0.00
  -23    3   19     -0.35      0.00
  -21    3   19     -3.26      0.00
  -19    3   19     -2.18      0.00
  -17    3   19     -5.35      0.00
  -15    3   19      1.70      0.00
  -13    3   19      2.15      0.00
  -11    3   19     14.13      0.00
   -9    3   19    -18.98      0.00
   -7    3   19     18.16      0.00
   -5    3   19    -11.74      0.00
   -3    3   19     16.94      0.00
   -1    3   19      0.57      0.00
    1    3   19    -32.21      0.00
    3    3   19      1.27      0.00
    5    3   19    -21.32      0.00
    7    3   19     -3.61      0.00
    9    3   19    -13.03      0.00
   11    3   19      2.61      0.00
   13    3   19      0.32      0.00
  -26    4   19      0.30      0.00
  -24    4   19     -2.62      0.00
  -22    4   19      4.32      0.00
  -20    4   19    -10.66      0.00
  -18    4   19     10.48      0.00
  -16    4   19    -12.75      0.00
  -14    4   19     15.98      0.00
  -12    4   19    -25.63      0.00
  -10    4   19      6.92      0.00
   -8    4   19    -37.23      0.00
   -6    4   19    -14.66      0.00
   -4    4   19     22.66      0.00
   -2    4   19    -18.14      0.00
    0    4   19     41.65      0.00
    2    4   19     -9.84      0.00
    4    4   19     14.82      0.00
    6    4   19     10.56      0.00
    8    4   19      6.74      0.00
   10    4   19      6.26      0.00
   12    4   19     -2.94      0.00
   14    4   19      4.64      0.00
  -25    5   19      4.12      0.00
  -23    5   19     -4.66      0.00
  -21    5   19     -0.58      0.00
  -19    5   19     -4.86      0.00
  -17    5   19     -7.31      0.00
  -15    5   19     -5.15      0.00
  -13    5   19    -15.12      0.00
  -11    5   19     11.91      0.00
   -9    5   19     11.04      0.00
   -7    5   19     40.49      0.00
   -5    5   19    -14.89      0.00
   -3    5   19     -0.90      0.00
   -1    5   19    -14.75      0.00
    1    5   19     -6.89      0.00
    3    5   19      8.32      0.00
    5    5   19    -16.64      0.00
    7    5   19      8.62      0.00
    9    5   19     -3.76      0.00
   11    5   19      7.05      0.00
   13    5   19      1.58      0.00
  -24    6   19     -1.32      0.00
  -22    6   19      8.41      0.00
  -20    6   19     -0.86      0.00
  -18    6   19     13.48      0.00
  -16    6   19     -8.95      0.00
  -14    6   19      7.17      0.00
  -12    6   19     -5.11      0.00
  -10    6   19      1.40      0.00
   -8    6   19    -23.46      0.00
   -6    6   19     13.61      0.00
   -4    6   19     -7.95      0.00
   -2    6   19     10.15      0.00
    0    6   19     16.63      0.00
    2    6   19      7.89      0.00
    4    6   19     25.37      0.00
    6    6   19      7.30      0.00
    8    6   19      2.65      0.00
   10    6   19     -1.91      0.00
   12    6   19     -4.43      0.00
   14    6   19     -0.15      0.00
  -25    7   19      3.69      0.00
  -23    7   19      1.28      0.00
  -21    7   19      4.77      0.00
  -19    7   19      3.88      0.00
  -17    7   19      7.45      0.00
  -15    7   19     14.68      0.00
  -13    7   19     21.68      0.00
  -11    7   19     18.41      0.00
   -9    7   19      5.29      0.00
   -7    7   19     20.64      0.00
   -5    7   19     -6.81      0.00
   -3    7   19     28.24      0.00
   -1    7   19     -6.39      0.00
    1    7   19    -11.00      0.00
    3    7   19    -16.53      0.00
    5    7   19    -11.02      0.00
    7    7   19      3.87      0.00
    9    7   19      1.44      0.00
   11    7   19      8.13      0.00
   13    7   19      5.56      0.00
  -24    8   19      0.47      0.00
  -22    8   19      3.21      0.00
  -20    8   19      1.99      0.00
  -18    8   19     16.63      0.00
  -16    8   19      6.25      0.00
  -14    8   19     13.36      0.00
  -12    8   19    -17.17      0.00
  -10    8   19     12.02      0.00
   -8    8   19      4.12      0.00
   -6    8   19      0.71      0.00
   -4    8   19      6.91      0.00
   -2    8   19     -3.04      0.00
    0    8   19     14.88      0.00
    2    8   19     17.91      0.00
    4    8   19      7.13      0.00
    6    8   19     -6.64      0.00
    8    8   19      2.09      0.00
   10    8   19      0.39      0.00
   12    8   19    -10.60      0.00
  -23    9   19     -8.51      0.00
  -21    9   19     -2.91      0.00
  -19    9   19    -15.98      0.00
  -17    9   19     -6.36      0.00
  -15    9   19     -7.89      0.00
  -13    9   19      2.03      0.00
  -11    9   19     -7.73      0.00
   -9    9   19     20.68      0.00
   -7    9   19    -16.55      0.00
   -5    9   19     21.54      0.00
   -3    9   19    -21.75      0.00
   -1    9   19      7.74      0.00
    1    9   19     -8.90      0.00
    3    9   19      5.93      0.00
    5    9   19     -7.70      0.00
    7    9   19      4.25      0.00
    9    9   19     -6.36      0.00
   11    9   19      7.72      0.00
  -24   10   19      0.64      0.00
  -22   10   19      1.68      0.00
  -20   10   19     -2.63      0.00
  -18   10   19     -3.89      0.00
  -16   10   19    -25.55      0.00
  -14   10   19     -2.62      0.00
  -12   10   19     -4.99      0.00
  -10   10   19     -9.88      0.00
   -8   10   19    -34.15      0.00
   -6   10   19     -9.23      0.00
   -4   10   19    -20.73      0.00
   -2   10   19     -1.86      0.00
    0   10   19    -20.72      0.00
    2   10   19    -24.36      0.00
    4   10   19     10.72      0.00
    6   10   19      2.45      0.00
    8   10   19     -0.76      0.00
   10   10   19     -8.69      0.00
   12   10   19     -5.08      0.00
  -23   11   19     -2.36      0.00
  -21   11   19     -2.10      0.00
  -19   11   19      0.81      0.00
  -17   11   19      5.41      0.00
  -15   11   19     -7.09      0.00
  -13   11   19    -16.19      0.00
  -11   11   19     -7.07      0.00
   -9   11   19    -19.39      0.00
   -7   11   19     18.32      0.00
   -5   11   19    -18.42      0.00
   -3   11   19      7.74      0.00
   -1   11   19     -2.80      0.00
    1   11   19     14.86      0.00
    3   11   19     -5.92      0.00
    5   11   19     -3.60      0.00
    7   11   19      1.43      0.00
    9   11   19      2.12      0.00
   11   11   19      0.09      0.00
   13   11   19      0.56      0.00
  -24   12   19      0.76      0.00
  -22   12   19      7.04      0.00
  -20   12   19     -0.82      0.00
  -18   12   19      7.39      0.00
  -16   12   19      4.53      0.00
  -14   12   19      9.39      0.00
  -12   12   19    -14.39      0.00
  -10   12   19     13.73      0.00
   -8   12   19      1.17      0.00
   -6   12   19     13.60      0.00
   -4   12   19     -1.20      0.00
   -2   12   19      4.80      0.00
    0   12   19      1.61      0.00
    2   12   19      7.22      0.00
    4   12   19    -12.33      0.00
    6   12   19    -16.47      0.00
    8   12   19      1.37      0.00
   10   12   19     -4.67      0.00
   12   12   19      2.80      0.00
  -23   13   19     -0.43      0.00
  -21   13   19     -6.47      0.00
  -19   13   19     -2.03      0.00
  -17   13   19     -4.65      0.00
  -15   13   19      7.51      0.00
  -13   13   19     19.72      0.00
  -11   13   19      8.65      0.00
   -9   13   19      4.77      0.00
   -7   13   19    -11.14      0.00
   -5   13   19      4.91      0.00
   -3   13   19      0.55      0.00
   -1   13   19     -5.64      0.00
    1   13   19     -9.42      0.00
    3   13   19     -0.97      0.00
    5   13   19      5.71      0.00
    7   13   19      0.37      0.00
    9   13   19     -2.53      0.00
   11   13   19      1.24      0.00
  -22   14   19      1.36      0.00
  -20   14   19      6.71      0.00
  -18   14   19      3.94      0.00
  -16   14   19     -4.70      0.00
  -14   14   19      5.89      0.00
  -12   14   19      1.24      0.00
  -10   14   19     18.60      0.00
   -8   14   19      0.27      0.00
   -6   14   19      2.62      0.00
   -4   14   19     -4.46      0.00
   -2   14   19     -1.57      0.00
    0   14   19     -4.96      0.00
    2   14   19     -3.54      0.00
    4   14   19     12.22      0.00
    6   14   19      1.96      0.00
    8   14   19      7.51      0.00
   10   14   19     -3.27      0.00
  -21   15   19     -0.32      0.00
  -19   15   19     -1.55      0.00
  -17   15   19      4.96      0.00
  -15   15   19     -8.21      0.00
  -13   15   19     -4.89      0.00
  -11   15   19    -16.28      0.00
   -9   15   19     14.02      0.00
   -7   15   19      6.06      0.00
   -5   15   19     12.07      0.00
   -3   15   19      2.31      0.00
   -1   15   19     14.59      0.00
    1   15   19     20.92      0.00
    3   15   19      8.70      0.00
    5   15   19      6.06      0.00
    7   15   19     -0.52      0.00
    9   15   19      6.55      0.00
   11   15   19      2.01      0.00
  -20   16   19      0.16      0.00
  -18   16   19     -4.18      0.00
  -16   16   19      9.25      0.00
  -14   16   19      0.50      0.00
  -12   16   19     -0.74      0.00
  -10   16   19     -9.98      0.00
   -8   16   19    -19.66      0.00
   -6   16   19      4.43      0.00
   -4   16   19     -0.47      0.00
   -2   16   19     18.53      0.00
    0   16   19     -6.75      0.00
    2   16   19     -0.85      0.00
    4   16   19     -4.92      0.00
    6   16   19     -3.91      0.00
    8   16   19      7.55      0.00
  -21   17   19      0.97      0.00
  -19   17   19      2.58      0.00
  -17   17   19     -2.02      0.00
  -15   17   19     -6.21      0.00
  -13   17   19      9.24      0.00
  -11   17   19      3.72      0.00
   -9   17   19      3.87      0.00
   -7   17   19      2.59      0.00
   -5   17   19     -2.12      0.00
   -3   17   19     -7.72      0.00
   -1   17   19     -2.25      0.00
    1   17   19     -1.45      0.00
    3   17   19     -5.78      0.00
    5   17   19      9.69      0.00
    7   17   19     -3.84      0.00
    9   17   19      0.49      0.00
  -20   18   19      0.41      0.00
  -18   18   19     -0.60      0.00
  -16   18   19      1.57      0.00
  -14   18   19      0.59      0.00
  -12   18   19      0.68      0.00
  -10   18   19      7.74      0.00
   -8   18   19      2.42      0.00
   -6   18   19      8.84      0.00
   -4   18   19    -11.76      0.00
   -2   18   19      3.62      0.00
    0   18   19    -11.21      0.00
    2   18   19     10.14      0.00
    4   18   19     -5.71      0.00
    6   18   19     -4.22      0.00
    8   18   19      0.62      0.00
  -19   19   19     -1.82      0.00
  -17   19   19      1.29      0.00
  -15   19   19     -3.74      0.00
  -13   19   19      0.55      0.00
  -11   19   19    -16.60      0.00
   -9   19   19     15.72      0.00
   -7   19   19    -26.79      0.00
   -5   19   19     10.98      0.00
   -3   19   19    -14.06      0.00
   -1   19   19     -9.79      0.00
    1   19   19      0.23      0.00
    3   19   19    -14.06      0.00
    5   19   19      0.35      0.00
    7   19   19     -5.97      0.00
  -18   20   19     -1.51      0.00
  -16   20   19     -3.68      0.00
  -14   20   19      1.41      0.00
  -12   20   19     -3.24      0.00
  -10   20   19     -3.57      0.00
   -8   20   19    -15.68      0.00
   -6   20   19      0.33      0.00
   -4   20   19    -13.89      0.00
   -2   20   19     15.17      0.00
    0   20   19    -13.58      0.00
    2   20   19     -0.12      0.00
    4   20   19      0.07      0.00
    6   20   19     -5.77      0.00
  -17   21   19      1.71      0.00
  -15   21   19     -1.62      0.00
  -13   21   19     -4.09      0.00
  -11   21   19      1.59      0.00
   -9   21   19     -4.22      0.00
   -7   21   19     11.53      0.00
   -5   21   19      3.38      0.00
   -3   21   19      8.19      0.00
   -1   21   19      5.11      0.00
    1   21   19      5.28      0.00
    3   21   19      2.08      0.00
    5   21   19      9.04      0.00
  -14   22   19     -0.13      0.00
  -12   22   19      8.53      0.00
  -10   22   19      2.00      0.00
   -8   22   19      8.83      0.00
   -6   22   19     -0.90      0.00
   -4   22   19     -0.12      0.00
   -2   22   19     -2.45      0.00
    0   22   19      6.72      0.00
    2   22   19      2.51      0.00
  -13   23   19     -1.19      0.00
  -11   23   19     -1.43      0.00
   -9   23   19      1.32      0.00
   -7   23   19      0.36      0.00
   -5   23   19      0.90      0.00
   -3   23   19      1.63      0.00
   -1   23   19     -1.05      0.00
    1   23   19      1.89      0.00
  -10   24   19      2.90      0.00
   -8   24   19      1.81      0.00
   -6   24   19      2.92      0.00
   -4   24   19      6.65      0.00
   -2   24   19     -2.34      0.00
    0   24   19      1.63      0.00
   -7   25   19     -4.56      0.00
   -5   25   19     -2.55      0.00
   -3   25   19      0.25      0.00
   -1   25   19      0.70      0.00
  -24    0   20      4.79      0.00
  -22    0   20     -2.73      0.00
  -20    0   20      2.79      0.00
  -18    0   20     -5.19      0.00
  -16    0   20      0.89      0.00
  -14    0   20      0.22      0.00
  -12    0   20     22.27      0.00
  -10    0   20      0.24      0.00
   -8    0   20     52.95      0.00
   -4    0   20     -5.31      0.00
   -2    0   20     14.89      0.00
    0    0   20    -44.82      0.00
    2    0   20     15.40      0.00
    4    0   20    -19.21      0.00
    6    0   20     15.08      0.00
    8    0   20     11.39      0.00
   10    0   20     15.71      0.00
   12    0   20      5.53      0.00
  -25    1   20     -0.94      0.00
  -23    1   20      3.65      0.00
  -21    1   20     -0.89      0.00
  -19    1   20      5.72      0.00
  -17    1   20     -3.20      0.00
  -15    1   20      4.52      0.00
  -13    1   20     -7.86      0.00
  -11    1   20     -7.16      0.00
   -9    1   20    -13.81      0.00
   -7    1   20    -24.69      0.00
   -5    1   20     29.71      0.00
   -3    1   20     -7.81      0.00
   -1    1   20     46.03      0.00
    1    1   20     19.42      0.00
    3    1   20     22.68      0.00
    5    1   20     19.19      0.00
    7    1   20    -10.84      0.00
    9    1   20     -0.22      0.00
   11    1   20     -4.50      0.00
   13    1   20      1.17      0.00
  -24    2   20      0.61      0.00
  -22    2   20     -7.10      0.00
  -20    2   20      5.40      0.00
  -18    2   20     -2.18      0.00
  -16    2   20     12.43      0.00
  -14    2   20     -1.91      0.00
  -12    2   20     21.30      0.00
  -10    2   20      9.66      0.00
   -8    2   20     20.93      0.00
   -6    2   20    -14.73      0.00
   -4    2   20     -5.30      0.00
   -2    2   20    -11.39      0.00
    0    2   20    -31.26      0.00
    2    2   20    -12.98      0.00
    4    2   20    -26.69      0.00
    6    2   20     14.66      0.00
    8    2   20      0.95      0.00
   10    2   20      4.45      0.00
   12    2   20      1.53      0.00
  -25    3   20     -4.15      0.00
  -23    3   20      4.68      0.00
  -21    3   20      0.60      0.00
  -19    3   20      3.28      0.00
  -17    3   20     -1.95      0.00
  -15    3   20     -3.93      0.00
  -13    3   20     -1.12      0.00
  -11    3   20    -18.34      0.00
   -9    3   20     -4.46      0.00
   -7    3   20    -38.24      0.00
   -5    3   20     -8.82      0.00
   -3    3   20     -8.33      0.00
   -1    3   20     18.38      0.00
    1    3   20     10.18      0.00
    3    3   20      6.61      0.00
    5    3   20    -14.94      0.00
    7    3   20    -12.77      0.00
    9    3   20    -10.42      0.00
   11    3   20     -8.74      0.00
   13    3   20     -4.53      0.00
  -24    4   20      3.71      0.00
  -22    4   20     -1.87      0.00
  -20    4   20     -4.23      0.00
  -18    4   20     -7.36      0.00
  -16    4   20     -0.10      0.00
  -14    4   20     -2.71      0.00
  -12    4   20     -8.84      0.00
  -10    4   20      0.09      0.00
   -8    4   20     18.23      0.00
   -6    4   20     16.35      0.00
   -4    4   20     -0.30      0.00
   -2    4   20    -19.61      0.00
    0    4   20    -28.96      0.00
    2    4   20    -11.03      0.00
    4    4   20    -10.83      0.00
    6    4   20     -0.13      0.00
    8    4   20      2.60      0.00
   10    4   20      5.19      0.00
   12    4   20      1.87      0.00
  -25    5   20     -5.33      0.00
  -23    5   20     -0.96      0.00
  -21    5   20     -4.66      0.00
  -19    5   20      9.32      0.00
  -17    5   20     -7.22      0.00
  -15    5   20      5.56      0.00
  -13    5   20    -16.29      0.00
  -11    5   20      6.04      0.00
   -9    5   20    -23.22      0.00
   -7    5   20     -3.35      0.00
   -5    5   20     -1.57      0.00
   -3    5   20    -11.52      0.00
   -1    5   20      5.85      0.00
    1    5   20     -8.09      0.00
    3    5   20     16.87      0.00
    5    5   20      0.58      0.00
    7    5   20      2.45      0.00
    9    5   20     -3.62      0.00
   11    5   20     -3.44      0.00
   13    5   20      0.16      0.00
  -24    6   20     -4.18      0.00
  -22    6   20      0.09      0.00
  -20    6   20     -9.37      0.00
  -18    6   20     -6.11      0.00
  -16    6   20    -14.16      0.00
  -14    6   20      0.31      0.00
  -12    6   20      6.68      0.00
  -10    6   20     16.54      0.00
   -8    6   20    -13.93      0.00
   -6    6   20      2.86      0.00
   -4    6   20      9.41      0.00
   -2    6   20     14.62      0.00
    0    6   20     27.10      0.00
    2    6   20    -12.06      0.00
    4    6   20      0.90      0.00
    6    6   20      7.14      0.00
    8    6   20     -2.48      0.00
   10    6   20      0.76      0.00
   12    6   20     -1.63      0.00
  -25    7   20     -1.15      0.00
  -23    7   20      5.01      0.00
  -21    7   20     -3.01      0.00
  -19    7   20      6.87      0.00
  -17    7   20      0.19      0.00
  -15    7   20     12.34      0.00
  -13    7   20     -7.07      0.00
  -11    7   20     -6.64      0.00
   -9    7   20    -16.71      0.00
   -7    7   20     27.46      0.00
   -5    7   20    -29.89      0.00
   -3    7   20     12.44      0.00
   -1    7   20    -19.52      0.00
    1    7   20      0.64      0.00
    3    7   20     10.70      0.00
    5    7   20    -18.88      0.00
    7    7   20     -2.07      0.00
    9    7   20     -3.48      0.00
   11    7   20      7.68      0.00
   13    7   20     -0.53      0.00
  -24    8   20      1.64      0.00
  -22    8   20      3.11      0.00
  -20    8   20      2.81      0.00
  -18    8   20      3.14      0.00
  -16    8   20      2.32      0.00
  -14    8   20      2.30      0.00
  -12    8   20      0.02      0.00
  -10    8   20      0.86      0.00
   -8    8   20     16.59      0.00
   -6    8   20     -7.84      0.00
   -4    8   20     25.82      0.00
   -2    8   20    -16.03      0.00
    0    8   20     18.25      0.00
    2    8   20     -5.10      0.00
    4    8   20     20.85      0.00
    6    8   20      8.00      0.00
    8    8   20      5.29      0.00
   10    8   20      0.15      0.00
   12    8   20     -2.53      0.00
  -23    9   20      0.47      0.00
  -21    9   20      4.65      0.00
  -19    9   20      7.42      0.00
  -17    9   20      2.72      0.00
  -15    9   20      3.59      0.00
  -13    9   20      3.69      0.00
  -11    9   20     22.88      0.00
   -9    9   20     10.62      0.00
   -7    9   20     -2.92      0.00
   -5    9   20      4.92      0.00
   -3    9   20      0.77      0.00
   -1    9   20      3.73      0.00
    1    9   20     -6.53      0.00
    3    9   20     -7.26      0.00
    5    9   20    -11.09      0.00
    7    9   20     13.13      0.00
    9    9   20     -0.49      0.00
   11    9   20      3.32      0.00
  -24   10   20     -2.59      0.00
  -22   10   20      1.56      0.00
  -20   10   20     -4.51      0.00
  -18   10   20      7.03      0.00
  -16   10   20      2.36      0.00
  -14   10   20     12.74      0.00
  -12   10   20     -5.85      0.00
  -10   10   20     15.71      0.00
   -8   10   20    -16.41      0.00
   -6   10   20     19.11      0.00
   -4   10   20    -12.98      0.00
   -2   10   20     12.92      0.00
    0   10   20     -0.72      0.00
    2   10   20      4.20      0.00
    4   10   20      1.19      0.00
    6   10   20      1.35      0.00
    8   10   20     -5.42      0.00
   10   10   20      3.30      0.00
   12   10   20     -4.05      0.00
  -23   11   20     -4.55      0.00
  -21   11   20      1.05      0.00
  -19   11   20     -8.49      0.00
  -17   11   20     -0.78      0.00
  -15   11   20      3.79      0.00
  -13   11   20     -4.64      0.00
  -11   11   20    -15.29      0.00
   -9   11   20    -15.73      0.00
   -7   11   20      0.04      0.00
   -5   11   20      1.17      0.00
   -3   11   20    -10.23      0.00
   -1   11   20     -1.95      0.00
    1   11   20     -1.58      0.00
    3   11   20     21.22      0.00
    5   11   20    -10.42      0.00
    7   11   20     -0.89      0.00
    9   11   20     -4.55      0.00
   11   11   20      5.37      0.00
  -22   12   20      3.49      0.00
  -20   12   20     -3.02      0.00
  -18   12   20     -2.55      0.00
  -16   12   20    -18.03      0.00
  -14   12   20     -8.69      0.00
  -12   12   20     -0.37      0.00
  -10   12   20     -4.07      0.00
   -8   12   20     11.42      0.00
   -6   12   20    -17.43      0.00
   -4   12   20      8.97      0.00
   -2   12   20      3.65      0.00
    0   12   20      7.23      0.00
    2   12   20     -8.03      0.00
    4   12   20      5.57      0.00
    6   12   20      5.52      0.00
    8   12   20      2.17      0.00
   10   12   20     -2.08      0.00
  -23   13   20     -2.69      0.00
  -21   13   20     -3.21      0.00
  -19   13   20      1.17      0.00
  -17   13   20     -3.48      0.00
  -15   13   20     -4.48      0.00
  -13   13   20     -7.95      0.00
  -11   13   20     11.43      0.00
   -9   13   20     -5.94      0.00
   -7   13   20      6.96      0.00
   -5   13   20     -7.91      0.00
   -3   13   20      6.33      0.00
   -1   13   20     -7.45      0.00
    1   13   20     -7.30      0.00
    3   13   20    -18.86      0.00
    5   13   20     -7.26      0.00
    7   13   20      2.49      0.00
    9   13   20     -5.75      0.00
   11   13   20     -0.26      0.00
  -22   14   20     -0.39      0.00
  -20   14   20     -0.92      0.00
  -18   14   20      6.92      0.00
  -16   14   20      6.89      0.00
  -14   14   20      5.12      0.00
  -12   14   20    -14.98      0.00
  -10   14   20     -7.30      0.00
   -8   14   20     -2.38      0.00
   -6   14   20      2.99      0.00
   -4   14   20     -8.90      0.00
   -2   14   20    -23.99      0.00
    0   14   20     -5.31      0.00
    2   14   20     -4.24      0.00
    4   14   20      4.48      0.00
    6   14   20     -8.92      0.00
    8   14   20     -3.04      0.00
   10   14   20      0.61      0.00
  -21   15   20      2.91      0.00
  -19   15   20     -0.27      0.00
  -17   15   20     -5.47      0.00
  -15   15   20     15.24      0.00
  -13   15   20      5.57      0.00
  -11   15   20     16.07      0.00
   -9   15   20    -12.84      0.00
   -7   15   20     -7.99      0.00
   -5   15   20    -14.99      0.00
   -3   15   20     11.76      0.00
   -1   15   20      1.25      0.00
    1   15   20      7.67      0.00
    3   15   20      2.69      0.00
    5   15   20     -6.25      0.00
    7   15   20     -0.81      0.00
    9   15   20     -0.28      0.00
  -20   16   20     -1.49      0.00
  -18   16   20      3.39      0.00
  -16   16   20    -10.32      0.00
  -14   16   20     -1.22      0.00
  -12   16   20     -3.71      0.00
  -10   16   20     18.49      0.00
   -8   16   20      0.52      0.00
   -6   16   20     16.77      0.00
   -4   16   20      6.03      0.00
   -2   16   20      6.53      0.00
    0   16   20     10.46      0.00
    2   16   20     -3.37      0.00
    4   16   20     10.27      0.00
    6   16   20      5.45      0.00
    8   16   20      7.54      0.00
  -19   17   20      0.21      0.00
  -17   17   20      4.48      0.00
  -15   17   20     -1.89      0.00
  -13   17   20     -1.97      0.00
  -11   17   20     -4.32      0.00
   -9   17   20     -0.71      0.00
   -7   17   20     13.04      0.00
   -5   17   20     -1.81      0.00
   -3   17   20     10.51      0.00
   -1   17   20     -5.30      0.00
    1   17   20      3.49      0.00
    3   17   20      3.94      0.00
    5   17   20      2.12      0.00
    7   17   20      0.31      0.00
  -20   18   20      1.20      0.00
  -18   18   20     -3.65      0.00
  -16   18   20      4.73      0.00
  -14   18   20     -0.87      0.00
  -12   18   20      2.02      0.00
  -10   18   20     -7.15      0.00
   -8   18   20      9.29      0.00
   -6   18   20     -0.46      0.00
   -4   18   20      5.50      0.00
   -2   18   20      2.18      0.00
    0   18   20      2.29      0.00
    2   18   20      6.81      0.00
    4   18   20      2.39      0.00
    6   18   20      3.27      0.00
    8   18   20      3.38      0.00
  -19   19   20      2.43      0.00
  -17   19   20      2.39      0.00
  -15   19   20      3.04      0.00
  -13   19   20     10.28      0.00
  -11   19   20      3.84      0.00
   -9   19   20      8.44      0.00
   -7   19   20     -8.58      0.00
   -5   19   20     -2.78      0.00
   -3   19   20     -0.31      0.00
   -1   19   20      5.51      0.00
    1   19   20      0.05      0.00
    3   19   20     -7.31      0.00
    5   19   20      0.89      0.00
    7   19   20     -6.15      0.00
  -16   20   20     -0.98      0.00
  -14   20   20     -7.22      0.00
  -12   20   20     -4.80      0.00
  -10   20   20     -3.01      0.00
   -8   20   20    -16.93      0.00
   -6   20   20      6.32      0.00
   -4   20   20    -16.17      0.00
   -2   20   20     -3.10      0.00
    0   20   20    -10.92      0.00
    2   20   20     -4.38      0.00
    4   20   20     -7.64      0.00
  -15   21   20     -0.12      0.00
  -13   21   20     -2.50      0.00
  -11   21   20     -0.88      0.00
   -9   21   20     -0.05      0.00
   -7   21   20     -3.19      0.00
   -5   21   20      1.63      0.00
   -3   21   20     -3.18      0.00
   -1   21   20     -8.20      0.00
    1   21   20      2.07      0.00
    3   21   20     -0.25      0.00
  -14   22   20     -3.37      0.00
  -12   22   20      2.04      0.00
  -10   22   20     -5.07      0.00
   -8   22   20      7.82      0.00
   -6   22   20     -1.30      0.00
   -4   22   20     -0.19      0.00
   -2   22   20      5.82      0.00
    0   22   20     -5.12      0.00
  -11   23   20     -1.00      0.00
   -9   23   20      0.60      0.00
   -7   23   20     -2.47      0.00
   -5   23   20      2.07      0.00
   -3   23   20      2.23      0.00
   -1   23   20      5.19      0.00
    1   23   20      3.82      0.00
  -10   24   20      1.58      0.00
   -8   24   20      0.49      0.00
   -6   24   20     -2.40      0.00
   -4   24   20      0.18      0.00
   -2   24   20      2.89      0.00
    0   24   20      1.28      0.00
   -7   25   20      6.84      0.00
   -5   25   20      4.36      0.00
  -25    1   21      1.77      0.00
  -23    1   21      0.32      0.00
  -21    1   21     -2.27      0.00
  -19    1   21      1.26      0.00
  -17    1   21     -2.88      0.00
  -15    1   21      1.21      0.00
  -13    1   21     -0.35      0.00
  -11    1   21     -0.87      0.00
   -9    1   21     16.64      0.00
   -7    1   21     11.30      0.00
   -5    1   21     15.82      0.00
   -3    1   21      8.83      0.00
   -1    1   21     20.67      0.00
    1    1   21     10.97      0.00
    3    1   21      6.33      0.00
    5    1   21      1.07      0.00
    7    1   21      0.80      0.00
    9    1   21     -0.17      0.00
   11    1   21     -1.86      0.00
  -24    2   21      1.74      0.00
  -22    2   21     -3.20      0.00
  -20    2   21      4.09      0.00
  -18    2   21     -4.33      0.00
  -16    2   21     10.33      0.00
  -14    2   21     -5.54      0.00
  -12    2   21     31.36      0.00
  -10    2   21    -11.22      0.00
   -8    2   21     35.38      0.00
   -6    2   21    -14.67      0.00
   -4    2   21     -5.68      0.00
   -2    2   21      6.39      0.00
    0    2   21    -12.23      0.00
    2    2   21     25.18      0.00
    4    2   21      3.82      0.00
    6    2   21     15.32      0.00
    8    2   21      8.33      0.00
   10    2   21      7.97      0.00
   12    2   21      1.97      0.00
  -25    3   21     -2.10      0.00
  -23    3   21      3.94      0.00
  -21    3   21      5.73      0.00
  -19    3   21      5.76      0.00
  -17    3   21      3.51      0.00
  -15    3   21      7.86      0.00
  -13    3   21      1.05      0.00
  -11    3   21     -9.82      0.00
   -9    3   21     -1.55      0.00
   -7    3   21     -8.90      0.00
   -5    3   21     55.11      0.00
   -3    3   21     -5.91      0.00
   -1    3   21     36.30      0.00
    1    3   21     -7.27      0.00
    3    3   21      4.28      0.00
    5    3   21      5.37      0.00
    7    3   21    -10.26      0.00
    9    3   21     -0.25      0.00
   11    3   21     -0.74      0.00
  -24    4   21      1.46      0.00
  -22    4   21     -5.81      0.00
  -20    4   21      1.23      0.00
  -18    4   21     -3.23      0.00
  -16    4   21      7.44      0.00
  -14    4   21     -3.34      0.00
  -12    4   21     13.68      0.00
  -10    4   21     -5.25      0.00
   -8    4   21      6.43      0.00
   -6    4   21    -36.18      0.00
   -4    4   21     -6.82      0.00
   -2    4   21    -14.65      0.00
    0    4   21    -30.35      0.00
    2    4   21     -0.80      0.00
    4    4   21    -21.21      0.00
    6    4   21      9.63      0.00
    8    4   21     -1.86      0.00
   10    4   21      3.97      0.00
   12    4   21     -0.22      0.00
  -25    5   21      1.01      0.00
  -23    5   21      2.65      0.00
  -21    5   21      0.61      0.00
  -19    5   21      3.66      0.00
  -17    5   21     -3.76      0.00
  -15    5   21     -7.48      0.00
  -13    5   21    -19.42      0.00
  -11    5   21     -6.30      0.00
   -9    5   21      7.55      0.00
   -7    5   21    -22.18      0.00
   -5    5   21     13.41      0.00
   -3    5   21    -18.79      0.00
   -1    5   21     17.39      0.00
    1    5   21      9.94      0.00
    3    5   21     -8.16      0.00
    5    5   21     -5.85      0.00
    7    5   21     -6.10      0.00
    9    5   21     -4.61      0.00
   11    5   21     -6.44      0.00
  -24    6   21     -3.76      0.00
  -22    6   21     -0.83      0.00
  -20    6   21     -3.17      0.00
  -18    6   21     -9.74      0.00
  -16    6   21      3.85      0.00
  -14    6   21     -6.70      0.00
  -12    6   21     18.15      0.00
  -10    6   21    -16.15      0.00
   -8    6   21      1.87      0.00
   -6    6   21     -2.61      0.00
   -4    6   21    -29.41      0.00
   -2    6   21      3.61      0.00
    0    6   21    -28.24      0.00
    2    6   21     15.92      0.00
    4    6   21      0.06      0.00
    6    6   21      9.95      0.00
    8    6   21      0.07      0.00
   10    6   21      2.30      0.00
   12    6   21      3.70      0.00
  -23    7   21      1.60      0.00
  -21    7   21     -5.26      0.00
  -19    7   21      2.38      0.00
  -17    7   21     -9.42      0.00
  -15    7   21     12.72      0.00
  -13    7   21     -9.06      0.00
  -11    7   21     -2.65      0.00
   -9    7   21    -14.92      0.00
   -7    7   21     24.34      0.00
   -5    7   21     16.90      0.00
   -3    7   21     20.53      0.00
   -1    7   21     -0.33      0.00
    1    7   21     -1.91      0.00
    3    7   21     -6.92      0.00
    5    7   21     -0.02      0.00
    7    7   21    -12.64      0.00
    9    7   21     -2.51      0.00
   11    7   21     -5.37      0.00
  -24    8   21     -0.98      0.00
  -22    8   21     -3.32      0.00
  -20    8   21      2.48      0.00
  -18    8   21      0.39      0.00
  -16    8   21      3.70      0.00
  -14    8   21    -13.72      0.00
  -12    8   21     12.57      0.00
  -10    8   21     -0.23      0.00
   -8    8   21     18.20      0.00
   -6    8   21    -28.27      0.00
   -4    8   21      0.35      0.00
   -2    8   21     -7.31      0.00
    0    8   21      1.92      0.00
    2    8   21     -3.29      0.00
    4    8   21     -6.80      0.00
    6    8   21      5.36      0.00
    8    8   21      5.24      0.00
   10    8   21      5.85      0.00
   12    8   21      0.25      0.00
  -23    9   21      2.22      0.00
  -21    9   21     -0.23      0.00
  -19    9   21     -1.68      0.00
  -17    9   21     -7.34      0.00
  -15    9   21     -5.19      0.00
  -13    9   21     -4.95      0.00
  -11    9   21     -9.97      0.00
   -9    9   21     10.61      0.00
   -7    9   21    -17.22      0.00
   -5    9   21     13.21      0.00
   -3    9   21     -1.66      0.00
   -1    9   21     13.97      0.00
    1    9   21     11.58      0.00
    3    9   21      6.05      0.00
    5    9   21     -4.84      0.00
    7    9   21     -2.60      0.00
    9    9   21     -4.80      0.00
  -24   10   21     -1.88      0.00
  -22   10   21     -0.93      0.00
  -20   10   21      4.01      0.00
  -18   10   21     -2.62      0.00
  -16   10   21     15.95      0.00
  -14   10   21      7.08      0.00
  -12   10   21     15.63      0.00
  -10   10   21    -10.90      0.00
   -8   10   21     -4.37      0.00
   -6   10   21      7.40      0.00
   -4   10   21      5.93      0.00
   -2   10   21    -11.44      0.00
    0   10   21     -7.54      0.00
    2   10   21     -9.34      0.00
    4   10   21     10.41      0.00
    6   10   21      7.13      0.00
    8   10   21     -3.61      0.00
   10   10   21      3.37      0.00
  -21   11   21      4.08      0.00
  -19   11   21      7.95      0.00
  -17   11   21     -0.09      0.00
  -15   11   21      3.66      0.00
  -13   11   21     -7.55      0.00
  -11   11   21     18.63      0.00
   -9   11   21     -4.86      0.00
   -7   11   21     13.37      0.00
   -5   11   21    -22.62      0.00
   -3   11   21      2.44      0.00
   -1   11   21    -10.29      0.00
    1   11   21      2.94      0.00
    3   11   21     -3.18      0.00
    5   11   21     -1.75      0.00
    7   11   21      4.04      0.00
    9   11   21      4.62      0.00
   11   11   21     -0.47      0.00
  -22   12   21     -1.20      0.00
  -20   12   21      0.45      0.00
  -18   12   21      5.53      0.00
  -16   12   21      6.26      0.00
  -14   12   21     -5.03      0.00
  -12   12   21     -0.39      0.00
  -10   12   21     -1.00      0.00
   -8   12   21     11.87      0.00
   -6   12   21      6.49      0.00
   -4   12   21      8.65      0.00
   -2   12   21     18.65      0.00
    0   12   21     14.53      0.00
    2   12   21     12.37      0.00
    4   12   21     -7.15      0.00
    6   12   21      6.49      0.00
    8   12   21      0.60      0.00
   10   12   21      4.36      0.00
  -21   13   21     -3.19      0.00
  -19   13   21     -9.59      0.00
  -17   13   21     -4.77      0.00
  -15   13   21      2.02      0.00
  -13   13   21      3.10      0.00
  -11   13   21     -0.18      0.00
   -9   13   21     -1.89      0.00
   -7   13   21     -1.37      0.00
   -5   13   21     10.03      0.00
   -3   13   21      1.04      0.00
   -1   13   21     -2.77      0.00
    1   13   21     -3.16      0.00
    3   13   21      8.11      0.00
    5   13   21      2.75      0.00
    7   13   21      0.43      0.00
    9   13   21     -4.66      0.00
  -22   14   21     -4.85      0.00
  -20   14   21      3.01      0.00
  -18   14   21     -3.85      0.00
  -16   14   21     -3.98      0.00
  -14   14   21      3.01      0.00
  -12   14   21      2.46      0.00
  -10   14   21     -4.85      0.00
   -8   14   21      4.44      0.00
   -6   14   21    -12.20      0.00
   -4   14   21      5.41      0.00
   -2   14   21     -8.87      0.00
    0   14   21     -0.16      0.00
    2   14   21     -6.12      0.00
    4   14   21      0.14      0.00
    6   14   21     -3.93      0.00
    8   14   21     -8.40      0.00
  -21   15   21      3.81      0.00
  -19   15   21      0.54      0.00
  -17   15   21      1.19      0.00
  -15   15   21    -13.27      0.00
  -13   15   21    -13.84      0.00
  -11   15   21      0.52      0.00
   -9   15   21     -4.36      0.00
   -7   15   21     -1.79      0.00
   -5   15   21    -16.77      0.00
   -3   15   21     -9.27      0.00
   -1   15   21     -4.55      0.00
    1   15   21     -6.48      0.00
    3   15   21     -7.66      0.00
    5   15   21     -6.25      0.00
    7   15   21      3.10      0.00
    9   15   21     -0.48      0.00
  -20   16   21     -0.97      0.00
  -18   16   21     -0.43      0.00
  -16   16   21      8.03      0.00
  -14   16   21      2.73      0.00
  -12   16   21     -4.69      0.00
  -10   16   21     -7.79      0.00
   -8   16   21     -9.67      0.00
   -6   16   21     -1.95      0.00
   -4   16   21      5.04      0.00
   -2   16   21    -10.15      0.00
    0   16   21      3.06      0.00
    2   16   21     -8.97      0.00
    4   16   21     -1.22      0.00
    6   16   21     -1.31      0.00
  -19   17   21     -1.05      0.00
  -17   17   21     -4.02      0.00
  -15   17   21      6.44      0.00
  -13   17   21      0.17      0.00
  -11   17   21     11.46      0.00
   -9   17   21    -15.34      0.00
   -7   17   21     19.72      0.00
   -5   17   21    -13.36      0.00
   -3   17   21     11.33      0.00
   -1   17   21    -10.41      0.00
    1   17   21      0.40      0.00
    3   17   21      7.00      0.00
    5   17   21     -3.00      0.00
    7   17   21      4.03      0.00
  -18   18   21      1.64      0.00
  -16   18   21     -6.98      0.00
  -14   18   21      3.12      0.00
  -12   18   21     -2.00      0.00
  -10   18   21     14.04      0.00
   -8   18   21      3.88      0.00
   -6   18   21      0.23      0.00
   -4   18   21      6.73      0.00
   -2   18   21      0.86      0.00
    0   18   21     19.81      0.00
    2   18   21      1.04      0.00
    4   18   21      5.35      0.00
    6   18   21      2.35      0.00
  -17   19   21      8.08      0.00
  -15   19   21      0.21      0.00
  -13   19   21      1.71      0.00
  -11   19   21      0.38      0.00
   -9   19   21      3.32      0.00
   -7   19   21      6.14      0.00
   -5   19   21      1.39      0.00
   -3   19   21     12.85      0.00
   -1   19   21      0.37      0.00
    1   19   21      7.23      0.00
    3   19   21      2.40      0.00
    5   19   21      1.30      0.00
  -16   20   21     -1.93      0.00
  -14   20   21      2.19      0.00
  -12   20   21     -3.71      0.00
  -10   20   21      6.91      0.00
   -8   20   21     -2.76      0.00
   -6   20   21      5.07      0.00
   -4   20   21      5.50      0.00
   -2   20   21     -4.70      0.00
    0   20   21     -2.24      0.00
    2   20   21     -5.59      0.00
    4   20   21      2.82      0.00
  -15   21   21      2.47      0.00
  -13   21   21      1.07      0.00
  -11   21   21     -1.84      0.00
   -9   21   21    -10.03      0.00
   -7   21   21      2.52      0.00
   -5   21   21    -13.71      0.00
   -3   21   21     -0.76      0.00
   -1   21   21     -3.62      0.00
    1   21   21     -4.03      0.00
  -12   22   21      2.58      0.00
  -10   22   21     -3.74      0.00
   -8   22   21      0.82      0.00
   -6   22   21     -0.23      0.00
   -4   22   21     -1.76      0.00
   -2   22   21     -4.83      0.00
    0   22   21      2.59      0.00
  -11   23   21     -0.67      0.00
   -9   23   21      4.32      0.00
   -7   23   21     -6.22      0.00
   -5   23   21     -1.64      0.00
   -3   23   21     -4.00      0.00
   -1   23   21      1.18      0.00
  -10   24   21     -3.89      0.00
   -8   24   21      1.07      0.00
   -6   24   21      0.53      0.00
   -4   24   21      7.74      0.00
  -24    0   22     -3.55      0.00
  -22    0   22      1.06      0.00
  -20    0   22     -8.84      0.00
  -18    0   22      0.36      0.00
  -16    0   22     -5.94      0.00
  -14    0   22     -0.73      0.00
  -12    0   22    -18.32      0.00
  -10    0   22      6.22      0.00
   -8    0   22    -31.15      0.00
   -6    0   22     40.41      0.00
   -4    0   22    -10.41      0.00
   -2    0   22     11.31      0.00
    0    0   22      3.75      0.00
    2    0   22    -25.10      0.00
    4    0   22     -4.45      0.00
    6    0   22    -24.81      0.00
    8    0   22     -0.79      0.00
   10    0   22     -6.41      0.00
  -25    1   22      2.81      0.00
  -23    1   22     -2.09      0.00
  -21    1   22      2.31      0.00
  -19    1   22     -4.29      0.00
  -17    1   22      2.65      0.00
  -15    1   22     -8.51      0.00
  -13    1   22      1.15      0.00
  -11    1   22     -0.97      0.00
   -9    1   22    -12.09      0.00
   -7    1   22     -9.39      0.00
   -5    1   22    -49.89      0.00
   -3    1   22     -6.09      0.00
   -1    1   22    -40.57      0.00
    1    1   22     15.63      0.00
    3    1   22      1.15      0.00
    5    1   22     17.51      0.00
    7    1   22      3.78      0.00
    9    1   22      3.08      0.00
   11    1   22     -0.70      0.00
  -24    2   22     -3.00      0.00
  -22    2   22      2.88      0.00
  -20    2   22      0.17      0.00
  -18    2   22     -0.99      0.00
  -16    2   22     -5.23      0.00
  -14    2   22      3.48      0.00
  -12    2   22     -9.79      0.00
  -10    2   22     11.39      0.00
   -8    2   22     -2.65      0.00
   -6    2   22     27.54      0.00
   -4    2   22     29.11      0.00
   -2    2   22     20.20      0.00
    0    2   22     11.30      0.00
    2    2   22    -23.73      0.00
    4    2   22    -14.26      0.00
    6    2   22    -18.58      0.00
    8    2   22     -4.68      0.00
   10    2   22     -6.24      0.00
  -25    3   22      2.65      0.00
  -23    3   22     -3.61      0.00
  -21    3   22      2.24      0.00
  -19    3   22     -3.03      0.00
  -17    3   22      8.39      0.00
  -15    3   22     -1.97      0.00
  -13    3   22     18.29      0.00
  -11    3   22     -6.05      0.00
   -9    3   22     12.97      0.00
   -7    3   22      1.85      0.00
   -5    3   22    -20.84      0.00
   -3    3   22      7.88      0.00
   -1    3   22    -12.39      0.00
    1    3   22     20.40      0.00
    3    3   22     14.83      0.00
    5    3   22     21.72      0.00
    7    3   22     10.87      0.00
    9    3   22      7.08      0.00
   11    3   22      3.13      0.00
  -24    4   22      3.78      0.00
  -22    4   22      1.17      0.00
  -20    4   22      1.97      0.00
  -18    4   22      3.35      0.00
  -16    4   22      8.31      0.00
  -14    4   22     -1.11      0.00
  -12    4   22     -0.33      0.00
  -10    4   22      8.59      0.00
   -8    4   22     24.91      0.00
   -6    4   22     18.46      0.00
   -4    4   22     10.69      0.00
   -2    4   22     18.44      0.00
    0    4   22      6.05      0.00
    2    4   22      9.90      0.00
    4    4   22     -5.32      0.00
    6    4   22     -7.39      0.00
    8    4   22      2.64      0.00
   10    4   22     -0.95      0.00
  -23    5   22     -2.84      0.00
  -21    5   22      5.05      0.00
  -19    5   22     -0.53      0.00
  -17    5   22      5.03      0.00
  -15    5   22      5.46      0.00
  -13    5   22     14.46      0.00
  -11    5   22     13.92      0.00
   -9    5   22     -1.05      0.00
   -7    5   22    -16.42      0.00
   -5    5   22     12.68      0.00
   -3    5   22    -29.10      0.00
   -1    5   22      1.95      0.00
    1    5   22     -9.98      0.00
    3    5   22      6.46      0.00
    5    5   22     10.70      0.00
    7    5   22     -1.14      0.00
    9    5   22      2.87      0.00
   11    5   22      0.48      0.00
  -24    6   22      3.39      0.00
  -22    6   22      0.15      0.00
  -20    6   22      2.49      0.00
  -18    6   22     -4.05      0.00
  -16    6   22     -8.60      0.00
  -14    6   22    -10.32      0.00
  -12    6   22     -9.01      0.00
  -10    6   22    -20.08      0.00
   -8    6   22    -23.25      0.00
   -6    6   22    -10.71      0.00
   -4    6   22      5.11      0.00
   -2    6   22      8.25      0.00
    0    6   22     -4.54      0.00
    2    6   22     -5.30      0.00
    4    6   22    -12.03      0.00
    6    6   22      5.28      0.00
    8    6   22     -2.03      0.00
   10    6   22      1.59      0.00
  -23    7   22      0.48      0.00
  -21    7   22     -4.90      0.00
  -19    7   22     -1.37      0.00
  -17    7   22      1.94      0.00
  -15    7   22     -0.75      0.00
  -13    7   22     -7.96      0.00
  -11    7   22     -0.12      0.00
   -9    7   22     -0.09      0.00
   -7    7   22     16.40      0.00
   -5    7   22     -5.16      0.00
   -3    7   22     -1.35      0.00
   -1    7   22     -1.63      0.00
    1    7   22      3.45      0.00
    3    7   22     -5.08      0.00
    5    7   22      0.55      0.00
    7    7   22     -8.24      0.00
    9    7   22      0.00      0.00
   11    7   22     -0.71      0.00
  -24    8   22      1.24      0.00
  -22    8   22     -0.96      0.00
  -20    8   22      2.37      0.00
  -18    8   22     -0.27      0.00
  -16    8   22      7.81      0.00
  -14    8   22    -11.69      0.00
  -12    8   22      9.87      0.00
  -10    8   22    -13.17      0.00
   -8    8   22     29.28      0.00
   -6    8   22    -27.35      0.00
   -4    8   22     -5.05      0.00
   -2    8   22    -12.47      0.00
    0    8   22     -5.72      0.00
    2    8   22     10.44      0.00
    4    8   22     -2.98      0.00
    6    8   22      2.09      0.00
    8    8   22      5.10      0.00
   10    8   22      0.45      0.00
  -21    9   22      0.14      0.00
  -19    9   22     -1.23      0.00
  -17    9   22     -7.37      0.00
  -15    9   22      6.82      0.00
  -13    9   22     16.68      0.00
  -11    9   22      6.84      0.00
   -9    9   22      5.85      0.00
   -7    9   22    -14.41      0.00
   -5    9   22     24.56      0.00
   -3    9   22      6.00      0.00
   -1    9   22      5.83      0.00
    1    9   22     -2.61      0.00
    3    9   22     -5.01      0.00
    5    9   22      6.48      0.00
    7    9   22     -8.94      0.00
    9    9   22     -7.09      0.00
  -22   10   22     -2.17      0.00
  -20   10   22     -5.30      0.00
  -18   10   22     -2.74      0.00
  -16   10   22     -7.88      0.00
  -14   10   22     -7.36      0.00
  -12   10   22    -10.56      0.00
  -10   10   22      2.36      0.00
   -8   10   22     -8.72      0.00
   -6   10   22     14.80      0.00
   -4   10   22    -10.83      0.00
   -2   10   22     12.38      0.00
    0   10   22     -8.83      0.00
    2   10   22      2.30      0.00
    4   10   22     -7.51      0.00
    6   10   22      2.79      0.00
    8   10   22      2.03      0.00
   10   10   22      4.24      0.00
  -23   11   22      1.83      0.00
  -21   11   22      1.07      0.00
  -19   11   22      1.54      0.00
  -17   11   22      5.56      0.00
  -15   11   22     -2.75      0.00
  -13   11   22     -8.72      0.00
  -11   11   22    -14.93      0.00
   -9   11   22      2.22      0.00
   -7   11   22     -7.62      0.00
   -5   11   22      0.27      0.00
   -3   11   22    -18.41      0.00
   -1   11   22     -0.25      0.00
    1   11   22     -1.61      0.00
    3   11   22     -2.29      0.00
    5   11   22     -9.32      0.00
    7   11   22     -7.69      0.00
    9   11   22      2.38      0.00
  -22   12   22      2.57      0.00
  -20   12   22      3.93      0.00
  -18   12   22     -3.36      0.00
  -16   12   22      8.17      0.00
  -14   12   22     -0.90      0.00
  -12   12   22     18.62      0.00
  -10   12   22    -14.56      0.00
   -8   12   22      0.29      0.00
   -6   12   22    -13.50      0.00
   -4   12   22      1.33      0.00
   -2   12   22     -2.16      0.00
    0   12   22     -3.61      0.00
    2   12   22      2.20      0.00
    4   12   22      6.64      0.00
    6   12   22     11.59      0.00
    8   12   22      4.44      0.00
  -21   13   22     -1.96      0.00
  -19   13   22      5.69      0.00
  -17   13   22     -4.10      0.00
  -15   13   22      1.65      0.00
  -13   13   22      6.18      0.00
  -11   13   22      9.08      0.00
   -9   13   22     14.00      0.00
   -7   13   22      3.86      0.00
   -5   13   22      9.83      0.00
   -3   13   22     12.37      0.00
   -1   13   22      9.06      0.00
    1   13   22     10.13      0.00
    3   13   22      4.52      0.00
    5   13   22      8.15      0.00
    7   13   22      0.61      0.00
  -20   14   22      0.33      0.00
  -18   14   22      5.15      0.00
  -16   14   22     10.19      0.00
  -14   14   22     -4.40      0.00
  -12   14   22      6.18      0.00
  -10   14   22     -1.15      0.00
   -8   14   22     16.89      0.00
   -6   14   22      4.57      0.00
   -4   14   22      3.08      0.00
   -2   14   22     -0.63      0.00
    0   14   22      1.16      0.00
    2   14   22      0.29      0.00
    4   14   22     -6.20      0.00
    6   14   22     -0.38      0.00
    8   14   22     -1.37      0.00
  -21   15   22     -0.89      0.00
  -19   15   22     -2.03      0.00
  -17   15   22     -3.39      0.00
  -15   15   22      3.84      0.00
  -13   15   22     -3.00      0.00
  -11   15   22     -4.15      0.00
   -9   15   22      1.05      0.00
   -7   15   22    -10.00      0.00
   -5   15   22     10.75      0.00
   -3   15   22     -6.88      0.00
   -1   15   22      9.30      0.00
    1   15   22      0.46      0.00
    3   15   22      4.93      0.00
    5   15   22     -2.92      0.00
  -20   16   22      1.24      0.00
  -18   16   22     -3.72      0.00
  -16   16   22     -5.35      0.00
  -14   16   22      0.07      0.00
  -12   16   22      4.09      0.00
  -10   16   22     -5.06      0.00
   -8   16   22     -3.92      0.00
   -6   16   22     -5.45      0.00
   -4   16   22      5.50      0.00
   -2   16   22     -0.51      0.00
    0   16   22    -11.40      0.00
    2   16   22     -8.51      0.00
    4   16   22     -1.53      0.00
    6   16   22     -2.42      0.00
  -19   17   22     -2.86      0.00
  -17   17   22      0.38      0.00
  -15   17   22    -11.39      0.00
  -13   17   22     -4.25      0.00
  -11   17   22     -6.69      0.00
   -9   17   22     -2.62      0.00
   -7   17   22     -5.56      0.00
   -5   17   22    -10.21      0.00
   -3   17   22    -22.24      0.00
   -1   17   22     -1.88      0.00
    1   17   22     -3.11      0.00
    3   17   22      2.68      0.00
    5   17   22     -1.72      0.00
  -18   18   22     -1.16      0.00
  -16   18   22      9.55      0.00
  -14   18   22     -1.12      0.00
  -12   18   22     -1.58      0.00
  -10   18   22     -6.06      0.00
   -8   18   22      4.91      0.00
   -6   18   22    -11.28      0.00
   -4   18   22      4.07      0.00
   -2   18   22     -4.96      0.00
    0   18   22      0.57      0.00
    2   18   22     -1.00      0.00
    4   18   22     -5.41      0.00
  -17   19   22     -0.61      0.00
  -15   19   22     -2.09      0.00
  -13   19   22      3.35      0.00
  -11   19   22     -0.70      0.00
   -9   19   22     -0.34      0.00
   -7   19   22      4.50      0.00
   -5   19   22      6.58      0.00
   -3   19   22      9.69      0.00
   -1   19   22      5.37      0.00
    1   19   22      0.18      0.00
    3   19   22      1.95      0.00
  -16   20   22     -2.82      0.00
  -14   20   22      7.58      0.00
  -12   20   22      1.93      0.00
  -10   20   22     12.53      0.00
   -8   20   22     -3.55      0.00
   -6   20   22      7.74      0.00
   -4   20   22      2.98      0.00
   -2   20   22      3.42      0.00
    0   20   22      5.71      0.00
    2   20   22      0.75      0.00
  -13   21   22     -2.88      0.00
  -11   21   22     -0.26      0.00
   -9   21   22     -0.81      0.00
   -7   21   22      5.20      0.00
   -5   21   22     -0.86      0.00
   -3   21   22      0.89      0.00
   -1   21   22     -4.33      0.00
  -12   22   22     -0.08      0.00
  -10   22   22      3.15      0.00
   -8   22   22      0.16      0.00
   -6   22   22     -1.19      0.00
   -4   22   22     -1.86      0.00
   -2   22   22     -3.98      0.00
   -9   23   22     -1.01      0.00
   -7   23   22     -1.92      0.00
   -5   23   22     -6.91      0.00
   -3   23   22      4.73      0.00
  -23    1   23     -1.85      0.00
  -21    1   23     -0.77      0.00
  -19    1   23     -1.45      0.00
  -17    1   23     -1.29      0.00
  -15    1   23    -12.92      0.00
  -13    1   23     -0.46      0.00
  -11    1   23    -13.60      0.00
   -9    1   23    -18.96      0.00
   -7    1   23     -8.43      0.00
   -5    1   23    -26.57      0.00
   -3    1   23      8.27      0.00
   -1    1   23     -3.86      0.00
    1    1   23     14.23      0.00
    3    1   23      1.67      0.00
    5    1   23      1.47      0.00
    7    1   23     -1.41      0.00
    9    1   23     -0.66      0.00
  -24    2   23      0.27      0.00
  -22    2   23     -2.59      0.00
  -20    2   23     -3.09      0.00
  -18    2   23     -1.52      0.00
  -16    2   23     -3.01      0.00
  -14    2   23      0.41      0.00
  -12    2   23     -0.55      0.00
  -10    2   23      5.52      0.00
   -8    2   23    -13.79      0.00
   -6    2   23     20.95      0.00
   -4    2   23    -17.18      0.00
   -2    2   23     -0.04      0.00
    0    2   23     -9.53      0.00
    2    2   23    -17.01      0.00
    4    2   23     -2.44      0.00
    6    2   23    -11.00      0.00
    8    2   23     -0.59      0.00
   10    2   23     -4.28      0.00
  -23    3   23      0.68      0.00
  -21    3   23      1.37      0.00
  -19    3   23     -8.44      0.00
  -17    3   23      1.23      0.00
  -15    3   23     -8.37      0.00
  -13    3   23     -2.52      0.00
  -11    3   23    -22.99      0.00
   -9    3   23     -9.35      0.00
   -7    3   23    -12.69      0.00
   -5    3   23    -14.52      0.00
   -3    3   23      0.34      0.00
   -1    3   23    -19.30      0.00
    1    3   23      8.27      0.00
    3    3   23     -5.18      0.00
    5    3   23      8.16      0.00
    7    3   23     -1.50      0.00
    9    3   23      2.70      0.00
  -24    4   23     -2.65      0.00
  -22    4   23     -0.03      0.00
  -20    4   23      0.60      0.00
  -18    4   23      1.55      0.00
  -16    4   23     -6.29      0.00
  -14    4   23      6.16      0.00
  -12    4   23    -10.47      0.00
  -10    4   23     39.84      0.00
   -8    4   23      7.62      0.00
   -6    4   23     27.21      0.00
   -4    4   23      7.68      0.00
   -2    4   23     -2.50      0.00
    0    4   23      0.97      0.00
    2    4   23    -15.73      0.00
    4    4   23      1.92      0.00
    6    4   23     -8.80      0.00
    8    4   23      1.20      0.00
   10    4   23     -1.22      0.00
  -23    5   23     -0.68      0.00
  -21    5   23      1.76      0.00
  -19    5   23      1.38      0.00
  -17    5   23     10.30      0.00
  -15    5   23     -6.97      0.00
  -13    5   23     23.01      0.00
  -11    5   23     -4.56      0.00
   -9    5   23      3.20      0.00
   -7    5   23    -20.24      0.00
   -5    5   23    -17.08      0.00
   -3    5   23     26.45      0.00
   -1    5   23      1.38      0.00
    1    5   23     26.87      0.00
    3    5   23      2.21      0.00
    5    5   23      7.35      0.00
    7    5   23      1.94      0.00
    9    5   23     -1.95      0.00
  -24    6   23      2.06      0.00
  -22    6   23      4.51      0.00
  -20    6   23      0.04      0.00
  -18    6   23      5.72      0.00
  -16    6   23     10.61      0.00
  -14    6   23     18.37      0.00
  -12    6   23     -8.26      0.00
  -10    6   23     22.55      0.00
   -8    6   23     -7.83      0.00
   -6    6   23     42.43      0.00
   -4    6   23    -11.65      0.00
   -2    6   23      8.96      0.00
    0    6   23     -1.34      0.00
    2    6   23     -2.68      0.00
    4    6   23      0.44      0.00
    6    6   23     -3.11      0.00
    8    6   23      3.73      0.00
   10    6   23      1.84      0.00
  -23    7   23      0.44      0.00
  -21    7   23     -0.43      0.00
  -19    7   23     -2.80      0.00
  -17    7   23     -0.33      0.00
  -15    7   23     -9.28      0.00
  -13    7   23     -5.12      0.00
  -11    7   23    -10.30      0.00
   -9    7   23    -21.96      0.00
   -7    7   23     13.94      0.00
   -5    7   23    -16.23      0.00
   -3    7   23     -1.50      0.00
   -1    7   23     -6.22      0.00
    1    7   23      1.72      0.00
    3    7   23     10.09      0.00
    5    7   23      5.89      0.00
    7    7   23     -2.15      0.00
    9    7   23      3.84      0.00
  -22    8   23     -4.83      0.00
  -20    8   23      0.93      0.00
  -18    8   23     -5.27      0.00
  -16    8   23    -12.02      0.00
  -14    8   23     -5.41      0.00
  -12    8   23     -1.15      0.00
  -10    8   23     10.09      0.00
   -8    8   23      0.79      0.00
   -6    8   23    -14.43      0.00
   -4    8   23     11.36      0.00
   -2    8   23    -10.07      0.00
    0    8   23      1.18      0.00
    2    8   23    -16.20      0.00
    4    8   23     -1.24      0.00
    6    8   23      3.61      0.00
    8    8   23      6.24      0.00
  -23    9   23      2.30      0.00
  -21    9   23      3.91      0.00
  -19    9   23      2.98      0.00
  -17    9   23     11.23      0.00
  -15    9   23     -8.11      0.00
  -13    9   23     14.64      0.00
  -11    9   23    -13.59      0.00
   -9    9   23      6.28      0.00
   -7    9   23    -17.37      0.00
   -5    9   23      3.98      0.00
   -3    9   23     -3.82      0.00
   -1    9   23     12.34      0.00
    1    9   23      3.32      0.00
    3    9   23      6.02      0.00
    5    9   23      0.31      0.00
    7    9   23     -1.78      0.00
    9    9   23     -3.25      0.00
  -22   10   23     -0.52      0.00
  -20   10   23     -4.25      0.00
  -18   10   23      1.31      0.00
  -16   10   23      8.06      0.00
  -14   10   23     10.15      0.00
  -12   10   23     -7.73      0.00
  -10   10   23      8.86      0.00
   -8   10   23      0.78      0.00
   -6   10   23     11.99      0.00
   -4   10   23      8.41      0.00
   -2   10   23     -3.91      0.00
    0   10   23      4.99      0.00
    2   10   23      0.11      0.00
    4   10   23     -1.84      0.00
    6   10   23    -11.05      0.00
    8   10   23     -4.48      0.00
  -21   11   23      0.12      0.00
  -19   11   23     -1.21      0.00
  -17   11   23     -5.07      0.00
  -15   11   23      1.45      0.00
  -13   11   23      2.80      0.00
  -11   11   23      9.89      0.00
   -9   11   23      1.36      0.00
   -7   11   23     12.42      0.00
   -5   11   23     -6.29      0.00
   -3   11   23     -2.81      0.00
   -1   11   23    -10.04      0.00
    1   11   23     -8.20      0.00
    3   11   23     -5.32      0.00
    5   11   23      1.73      0.00
    7   11   23     -0.41      0.00
  -22   12   23     -0.32      0.00
  -20   12   23     -6.28      0.00
  -18   12   23      0.01      0.00
  -16   12   23    -19.56      0.00
  -14   12   23     -7.96      0.00
  -12   12   23    -11.11      0.00
  -10   12   23     -1.54      0.00
   -8   12   23    -22.46      0.00
   -6   12   23     -8.90      0.00
   -4   12   23    -19.89      0.00
   -2   12   23      7.93      0.00
    0   12   23    -10.91      0.00
    2   12   23     -1.54      0.00
    4   12   23     -4.10      0.00
    6   12   23      1.48      0.00
    8   12   23      3.68      0.00
  -21   13   23      4.37      0.00
  -19   13   23     -1.36      0.00
  -17   13   23     10.36      0.00
  -15   13   23      1.03      0.00
  -13   13   23     -1.31      0.00
  -11   13   23    -18.53      0.00
   -9   13   23      5.17      0.00
   -7   13   23     -0.10      0.00
   -5   13   23     12.59      0.00
   -3   13   23     -4.18      0.00
   -1   13   23      2.31      0.00
    1   13   23      7.27      0.00
    3   13   23      0.68      0.00
    5   13   23      1.34      0.00
    7   13   23     -2.11      0.00
  -20   14   23     -2.22      0.00
  -18   14   23     -0.84      0.00
  -16   14   23     -0.94      0.00
  -14   14   23      6.50      0.00
  -12   14   23      7.24      0.00
  -10   14   23      0.85      0.00
   -8   14   23      0.10      0.00
   -6   14   23     -0.55      0.00
   -4   14   23      2.65      0.00
   -2   14   23      4.99      0.00
    0   14   23      2.23      0.00
    2   14   23      6.02      0.00
    4   14   23      4.65      0.00
    6   14   23     -0.78      0.00
  -19   15   23      6.57      0.00
  -17   15   23      1.58      0.00
  -15   15   23      1.70      0.00
  -13   15   23      7.60      0.00
  -11   15   23      6.57      0.00
   -9   15   23     12.84      0.00
   -7   15   23     -6.76      0.00
   -5   15   23     10.77      0.00
   -3   15   23      0.30      0.00
   -1   15   23      8.32      0.00
    1   15   23     -3.64      0.00
    3   15   23     -3.70      0.00
  -18   16   23      4.23      0.00
  -16   16   23      2.40      0.00
  -14   16   23     -5.11      0.00
  -12   16   23      7.31      0.00
  -10   16   23     -0.69      0.00
   -8   16   23     14.70      0.00
   -6   16   23      5.95      0.00
   -4   16   23      1.71      0.00
   -2   16   23      3.22      0.00
    0   16   23      0.42      0.00
    2   16   23      6.38      0.00
    4   16   23      2.75      0.00
  -17   17   23     -5.38      0.00
  -15   17   23     10.38      0.00
  -13   17   23     -4.26      0.00
  -11   17   23     -0.84      0.00
   -9   17   23     -4.34      0.00
   -7   17   23     -2.27      0.00
   -5   17   23      7.25      0.00
   -3   17   23    -10.70      0.00
   -1   17   23     -0.22      0.00
    1   17   23     -5.36      0.00
    3   17   23      0.18      0.00
  -16   18   23     -6.00      0.00
  -14   18   23     -2.83      0.00
  -12   18   23      0.32      0.00
  -10   18   23    -12.08      0.00
   -8   18   23     -0.41      0.00
   -6   18   23    -16.71      0.00
   -4   18   23     -3.53      0.00
   -2   18   23      2.18      0.00
    0   18   23     -2.42      0.00
    2   18   23     -1.27      0.00
  -15   19   23     -5.52      0.00
  -13   19   23     -4.98      0.00
  -11   19   23     -0.28      0.00
   -9   19   23      0.69      0.00
   -7   19   23    -11.32      0.00
   -5   19   23      4.12      0.00
   -3   19   23    -10.61      0.00
   -1   19   23      4.53      0.00
    1   19   23     -5.04      0.00
  -14   20   23      1.04      0.00
  -12   20   23     -1.30      0.00
  -10   20   23     -2.25      0.00
   -8   20   23      7.66      0.00
   -6   20   23      0.63      0.00
   -4   20   23      5.16      0.00
   -2   20   23     -1.36      0.00
  -13   21   23      2.83      0.00
  -11   21   23      4.36      0.00
   -9   21   23     -0.22      0.00
   -7   21   23      3.49      0.00
   -5   21   23      5.61      0.00
   -3   21   23     -0.55      0.00
   -1   21   23      1.98      0.00
  -10   22   23     -0.78      0.00
   -8   22   23     -0.33      0.00
   -6   22   23      0.30      0.00
   -4   22   23     -4.71      0.00
  -22    0   24     -0.44      0.00
  -20    0   24     -0.02      0.00
  -18    0   24      7.74      0.00
  -16    0   24      6.44      0.00
  -14    0   24     -7.75      0.00
  -12    0   24      5.23      0.00
  -10    0   24    -10.72      0.00
   -8    0   24     -2.11      0.00
   -6    0   24    -21.75      0.00
   -4    0   24     10.67      0.00
   -2    0   24     -5.53      0.00
    0    0   24     26.87      0.00
    2    0   24     13.23      0.00
    4    0   24     10.68      0.00
    6    0   24      2.22      0.00
    8    0   24     -4.33      0.00
  -23    1   24      4.23      0.00
  -21    1   24     -1.57      0.00
  -19    1   24      8.43      0.00
  -17    1   24     -1.61      0.00
  -15    1   24     18.82      0.00
  -13    1   24      0.15      0.00
  -11    1   24     31.30      0.00
   -9    1   24      9.91      0.00
   -7    1   24     15.77      0.00
   -5    1   24     13.98      0.00
   -3    1   24    -11.31      0.00
   -1    1   24      3.53      0.00
    1    1   24    -26.52      0.00
    3    1   24      2.12      0.00
    5    1   24     -7.25      0.00
    7    1   24      9.37      0.00
    9    1   24     -0.32      0.00
  -22    2   24      2.44      0.00
  -20    2   24     -1.13      0.00
  -18    2   24     -5.71      0.00
  -16    2   24    -10.84      0.00
  -14    2   24     -3.26      0.00
  -12    2   24    -10.52      0.00
  -10    2   24    -29.40      0.00
   -8    2   24      3.45      0.00
   -6    2   24    -23.65      0.00
   -4    2   24     23.66      0.00
   -2    2   24     -1.63      0.00
    0    2   24     22.85      0.00
    2    2   24      8.59      0.00
    4    2   24      0.62      0.00
    6    2   24     -1.51      0.00
    8    2   24     -3.95      0.00
  -23    3   24     -4.28      0.00
  -21    3   24     -3.04      0.00
  -19    3   24      2.32      0.00
  -17    3   24     -0.89      0.00
  -15    3   24      0.22      0.00
  -13    3   24     -3.80      0.00
  -11    3   24     -1.97      0.00
   -9    3   24      4.98      0.00
   -7    3   24     14.34      0.00
   -5    3   24     -0.78      0.00
   -3    3   24     -6.73      0.00
   -1    3   24     -8.75      0.00
    1    3   24    -19.60      0.00
    3    3   24      1.44      0.00
    5    3   24     -1.07      0.00
    7    3   24      6.41      0.00
    9    3   24     -2.00      0.00
  -24    4   24      0.30      0.00
  -22    4   24     -0.01      0.00
  -20    4   24     -4.31      0.00
  -18    4   24      0.15      0.00
  -16    4   24     -4.25      0.00
  -14    4   24    -10.41      0.00
  -12    4   24     -1.17      0.00
  -10    4   24    -11.92      0.00
   -8    4   24     -8.56      0.00
   -6    4   24    -16.96      0.00
   -4    4   24    -19.56      0.00
   -2    4   24      3.83      0.00
    0    4   24      6.13      0.00
    2    4   24      6.15      0.00
    4    4   24      0.47      0.00
    6    4   24     -4.46      0.00
    8    4   24      0.31      0.00
  -23    5   24     -1.87      0.00
  -21    5   24     -1.93      0.00
  -19    5   24     -6.54      0.00
  -17    5   24     -7.24      0.00
  -15    5   24      0.12      0.00
  -13    5   24      6.31      0.00
  -11    5   24      2.88      0.00
   -9    5   24     10.33      0.00
   -7    5   24    -21.72      0.00
   -5    5   24     17.49      0.00
   -3    5   24    -12.50      0.00
   -1    5   24     -5.33      0.00
    1    5   24    -13.30      0.00
    3    5   24     -6.02      0.00
    5    5   24     -6.78      0.00
    7    5   24     -1.36      0.00
    9    5   24     -3.60      0.00
  -22    6   24      4.03      0.00
  -20    6   24      3.93      0.00
  -18    6   24      6.21      0.00
  -16    6   24      4.99      0.00
  -14    6   24     11.10      0.00
  -12    6   24     -8.82      0.00
  -10    6   24      5.77      0.00
   -8    6   24    -10.92      0.00
   -6    6   24     23.57      0.00
   -4    6   24      1.29      0.00
   -2    6   24      3.07      0.00
    0    6   24      5.15      0.00
    2    6   24     -1.19      0.00
    4    6   24      5.12      0.00
    6    6   24     -4.03      0.00
    8    6   24     -2.47      0.00
  -23    7   24      1.91      0.00
  -21    7   24     -2.50      0.00
  -19    7   24      4.66      0.00
  -17    7   24      0.86      0.00
  -15    7   24     -5.58      0.00
  -13    7   24     -7.93      0.00
  -11    7   24      7.20      0.00
   -9    7   24      6.80      0.00
   -7    7   24     13.86      0.00
   -5    7   24    -11.63      0.00
   -3    7   24     19.55      0.00
   -1    7   24     -8.51      0.00
    1    7   24      5.55      0.00
    3    7   24     -6.94      0.00
    5    7   24      1.98      0.00
    7    7   24      3.99      0.00
    9    7   24      1.85      0.00
  -22    8   24      0.91      0.00
  -20    8   24      2.38      0.00
  -18    8   24      0.11      0.00
  -16    8   24      8.01      0.00
  -14    8   24      2.87      0.00
  -12    8   24     10.82      0.00
  -10    8   24      0.90      0.00
   -8    8   24      7.87      0.00
   -6    8   24     -7.32      0.00
   -4    8   24     -9.36      0.00
   -2    8   24      0.48      0.00
    0    8   24      5.67      0.00
    2    8   24      0.41      0.00
    4    8   24      2.53      0.00
    6    8   24     -0.82      0.00
  -21    9   24     -1.47      0.00
  -19    9   24     -8.12      0.00
  -17    9   24     -2.84      0.00
  -15    9   24     -1.96      0.00
  -13    9   24      3.90      0.00
  -11    9   24    -15.56      0.00
   -9    9   24    -13.15      0.00
   -7    9   24     -8.27      0.00
   -5    9   24      0.31      0.00
   -3    9   24      4.69      0.00
   -1    9   24     -1.56      0.00
    1    9   24      7.84      0.00
    3    9   24     14.34      0.00
    5    9   24      7.88      0.00
    7    9   24      1.69      0.00
  -22   10   24      1.29      0.00
  -20   10   24      4.79      0.00
  -18   10   24      1.67      0.00
  -16   10   24     -7.85      0.00
  -14   10   24      6.68      0.00
  -12   10   24    -11.85      0.00
  -10   10   24     17.78      0.00
   -8   10   24     -7.52      0.00
   -6   10   24     19.12      0.00
   -4   10   24      1.92      0.00
   -2   10   24      3.24      0.00
    0   10   24      2.06      0.00
    2   10   24     -8.42      0.00
    4   10   24     -2.24      0.00
    6   10   24     -2.60      0.00
    8   10   24     -0.41      0.00
  -21   11   24     -1.02      0.00
  -19   11   24      3.43      0.00
  -17   11   24      8.05      0.00
  -15   11   24     -8.13      0.00
  -13   11   24      1.39      0.00
  -11   11   24      8.93      0.00
   -9   11   24      6.79      0.00
   -7   11   24      8.64      0.00
   -5   11   24     -0.25      0.00
   -3   11   24      2.11      0.00
   -1   11   24      6.29      0.00
    1   11   24     -3.12      0.00
    3   11   24     -0.71      0.00
    5   11   24     -3.17      0.00
    7   11   24      1.95      0.00
  -20   12   24      1.66      0.00
  -18   12   24     -4.21      0.00
  -16   12   24     11.53      0.00
  -14   12   24      8.06      0.00
  -12   12   24     -1.45      0.00
  -10   12   24     -0.06      0.00
   -8   12   24     -6.96      0.00
   -6   12   24     -6.59      0.00
   -4   12   24     -6.00      0.00
   -2   12   24    -13.68      0.00
    0   12   24     -6.47      0.00
    2   12   24     -4.54      0.00
    4   12   24     -3.11      0.00
    6   12   24     -5.10      0.00
  -21   13   24     -0.82      0.00
  -19   13   24     -3.00      0.00
  -17   13   24     -6.57      0.00
  -15   13   24     -3.90      0.00
  -13   13   24      1.41      0.00
  -11   13   24     -3.58      0.00
   -9   13   24    -11.78      0.00
   -7   13   24      2.43      0.00
   -5   13   24    -13.94      0.00
   -3   13   24      9.18      0.00
   -1   13   24     -8.71      0.00
    1   13   24      5.86      0.00
    3   13   24      3.09      0.00
    5   13   24      3.30      0.00
  -18   14   24      1.55      0.00
  -16   14   24     -8.92      0.00
  -14   14   24     -5.17      0.00
  -12   14   24    -11.81      0.00
  -10   14   24      8.24      0.00
   -8   14   24     -9.72      0.00
   -6   14   24      3.14      0.00
   -4   14   24     -7.97      0.00
   -2   14   24      7.11      0.00
    0   14   24      1.21      0.00
    2   14   24     -5.53      0.00
    4   14   24     -6.28      0.00
  -17   15   24      4.68      0.00
  -15   15   24     -2.92      0.00
  -13   15   24     -3.25      0.00
  -11   15   24     -4.56      0.00
   -9   15   24      2.97      0.00
   -7   15   24      6.51      0.00
   -5   15   24      3.64      0.00
   -3   15   24      1.08      0.00
   -1   15   24     -4.97      0.00
    1   15   24      1.56      0.00
    3   15   24     -1.07      0.00
  -16   16   24     -1.60      0.00
  -14   16   24     12.18      0.00
  -12   16   24     -0.37      0.00
  -10   16   24      3.27      0.00
   -8   16   24    -10.21      0.00
   -6   16   24     11.45      0.00
   -4   16   24     -1.58      0.00
   -2   16   24      7.94      0.00
    0   16   24     -1.65      0.00
    2   16   24      6.29      0.00
    4   16   24      6.17      0.00
  -17   17   24      3.63      0.00
  -15   17   24      0.61      0.00
  -13   17   24      7.62      0.00
  -11   17   24      8.41      0.00
   -9   17   24     10.20      0.00
   -7   17   24      0.78      0.00
   -5   17   24     -0.41      0.00
   -3   17   24      2.64      0.00
   -1   17   24      2.16      0.00
    1   17   24      4.92      0.00
    3   17   24     -1.50      0.00
  -16   18   24      3.91      0.00
  -14   18   24     -1.49      0.00
  -12   18   24     -0.05      0.00
  -10   18   24     -0.22      0.00
   -8   18   24      4.23      0.00
   -6   18   24      1.09      0.00
   -4   18   24     -6.09      0.00
   -2   18   24      2.13      0.00
    0   18   24     -0.78      0.00
  -15   19   24      2.61      0.00
  -13   19   24     -5.74      0.00
  -11   19   24     -2.47      0.00
   -9   19   24     -6.05      0.00
   -7   19   24     -2.25      0.00
   -5   19   24      1.84      0.00
   -3   19   24      1.35      0.00
   -1   19   24     -3.46      0.00
  -12   20   24     -0.68      0.00
  -10   20   24     -2.91      0.00
   -8   20   24     -2.72      0.00
   -6   20   24     -3.56      0.00
   -4   20   24      0.75      0.00
   -2   20   24      0.93      0.00
  -11   21   24      5.71      0.00
   -9   21   24     -1.31      0.00
   -3   21   24     -6.81      0.00
  -23    1   25     -0.15      0.00
  -21    1   25      3.12      0.00
  -19    1   25     10.41      0.00
  -17    1   25      2.12      0.00
  -15    1   25      3.79      0.00
  -13    1   25     10.73      0.00
  -11    1   25     14.59      0.00
   -9    1   25    -11.94      0.00
   -7    1   25      7.27      0.00
   -5    1   25     -8.46      0.00
   -3    1   25      4.20      0.00
   -1    1   25      3.09      0.00
    1    1   25     -3.06      0.00
    3    1   25      5.12      0.00
    5    1   25     -6.66      0.00
    7    1   25      0.25      0.00
  -22    2   25      1.54      0.00
  -20    2   25     -0.17      0.00
  -18    2   25      3.95      0.00
  -16    2   25      8.26      0.00
  -14    2   25     -0.48      0.00
  -12    2   25      1.89      0.00
  -10    2   25    -12.39      0.00
   -8    2   25      0.18      0.00
   -6    2   25      0.75      0.00
   -4    2   25     16.12      0.00
   -2    2   25     -3.71      0.00
    0    2   25      8.77      0.00
    2    2   25     -6.95      0.00
    4    2   25      0.39      0.00
    6    2   25      0.58      0.00
    8    2   25     -0.70      0.00
  -23    3   25     -0.18      0.00
  -21    3   25     -1.17      0.00
  -19    3   25      2.02      0.00
  -17    3   25     -3.19      0.00
  -15    3   25     12.38      0.00
  -13    3   25    -10.35      0.00
  -11    3   25     24.40      0.00
   -9    3   25      7.33      0.00
   -7    3   25     15.64      0.00
   -5    3   25     -1.49      0.00
   -3    3   25    -13.28      0.00
   -1    3   25      4.40      0.00
    1    3   25     -6.36      0.00
    3    3   25     11.33      0.00
    5    3   25     -1.20      0.00
    7    3   25      7.41      0.00
  -22    4   25      2.66      0.00
  -20    4   25     -1.51      0.00
  -18    4   25     -1.89      0.00
  -16    4   25    -13.63      0.00
  -14    4   25     -7.16      0.00
  -12    4   25     -5.12      0.00
  -10    4   25    -13.18      0.00
   -8    4   25     18.29      0.00
   -6    4   25    -25.99      0.00
   -4    4   25     26.74      0.00
   -2    4   25     -6.06      0.00
    0    4   25     16.15      0.00
    2    4   25      1.05      0.00
    4    4   25      3.38      0.00
    6    4   25      0.07      0.00
    8    4   25     -0.85      0.00
  -23    5   25     -3.51      0.00
  -21    5   25     -1.41      0.00
  -19    5   25      0.60      0.00
  -17    5   25     -2.52      0.00
  -15    5   25     11.62      0.00
  -13    5   25      3.67      0.00
  -11    5   25      8.38      0.00
   -9    5   25     -8.79      0.00
   -7    5   25     -2.84      0.00
   -5    5   25     -5.60      0.00
   -3    5   25     -2.62      0.00
   -1    5   25     -4.82      0.00
    1    5   25     -7.15      0.00
    3    5   25      6.60      0.00
    5    5   25      0.57      0.00
    7    5   25      5.68      0.00
  -22    6   25     -1.35      0.00
  -20    6   25     -4.36      0.00
  -18    6   25      3.06      0.00
  -16    6   25     -3.48      0.00
  -14    6   25     -4.60      0.00
  -12    6   25    -14.34      0.00
  -10    6   25    -16.68      0.00
   -8    6   25     -5.97      0.00
   -6    6   25      7.43      0.00
   -4    6   25     -1.38      0.00
   -2    6   25     11.39      0.00
    0    6   25     -1.49      0.00
    2    6   25     -2.62      0.00
    4    6   25    -13.23      0.00
    6    6   25     -7.59      0.00
    8    6   25     -4.69      0.00
  -21    7   25      1.28      0.00
  -19    7   25      1.11      0.00
  -17    7   25     -4.01      0.00
  -15    7   25      8.78      0.00
  -13    7   25    -14.08      0.00
  -11    7   25     22.22      0.00
   -9    7   25     -3.48      0.00
   -7    7   25      2.99      0.00
   -5    7   25     -8.32      0.00
   -3    7   25    -22.07      0.00
   -1    7   25     -3.43      0.00
    1    7   25     -7.85      0.00
    3    7   25      2.51      0.00
    5    7   25     -4.08      0.00
  -22    8   25     -0.96      0.00
  -20    8   25      3.43      0.00
  -18    8   25     -8.34      0.00
  -16    8   25     -4.15      0.00
  -14    8   25     -3.75      0.00
  -12    8   25     18.46      0.00
  -10    8   25    -10.79      0.00
   -8    8   25     15.94      0.00
   -6    8   25     -9.03      0.00
   -4    8   25     12.50      0.00
   -2    8   25     -3.07      0.00
    0    8   25     -4.56      0.00
    2    8   25     -2.37      0.00
    4    8   25      1.34      0.00
    6    8   25      0.96      0.00
  -21    9   25      0.55      0.00
  -19    9   25      3.10      0.00
  -17    9   25      7.10      0.00
  -15    9   25      3.86      0.00
  -13    9   25     -1.05      0.00
  -11    9   25     -5.28      0.00
   -9    9   25     -0.81      0.00
   -7    9   25    -17.40      0.00
   -5    9   25      5.90      0.00
   -3    9   25     -4.59      0.00
   -1    9   25     -0.72      0.00
    1    9   25     -0.87      0.00
    3    9   25      0.77      0.00
    5    9   25      3.52      0.00
    7    9   25      4.28      0.00
  -20   10   25     -1.02      0.00
  -18   10   25      3.66      0.00
  -16   10   25      4.27      0.00
  -14   10   25     -6.21      0.00
  -12   10   25     -4.43      0.00
  -10   10   25     -3.09      0.00
   -8   10   25     16.61      0.00
   -6   10   25      0.04      0.00
   -4   10   25      8.13      0.00
   -2   10   25     11.78      0.00
    0   10   25     15.48      0.00
    2   10   25      8.09      0.00
    4   10   25     -3.04      0.00
    6   10   25     -2.77      0.00
  -21   11   25     -4.35      0.00
  -19   11   25     -1.65      0.00
  -17   11   25    -10.70      0.00
  -15   11   25     11.27      0.00
  -13   11   25     -3.64      0.00
  -11   11   25     11.91      0.00
   -9   11   25     -9.97      0.00
   -7   11   25      9.82      0.00
   -5   11   25      0.08      0.00
   -3   11   25      4.69      0.00
   -1   11   25     -1.60      0.00
    1   11   25     -1.17      0.00
    3   11   25      5.08      0.00
    5   11   25      2.94      0.00
  -20   12   25      5.10      0.00
  -18   12   25     -0.14      0.00
  -16   12   25     -4.01      0.00
  -14   12   25      3.17      0.00
  -12   12   25      8.25      0.00
  -10   12   25      5.63      0.00
   -8   12   25      3.97      0.00
   -6   12   25      4.43      0.00
   -4   12   25     -3.18      0.00
   -2   12   25      0.36      0.00
    0   12   25     -6.17      0.00
    2   12   25     -0.21      0.00
    4   12   25      3.76      0.00
  -19   13   25      1.67      0.00
  -17   13   25      6.14      0.00
  -15   13   25     -1.54      0.00
  -13   13   25     -4.80      0.00
  -11   13   25     -0.61      0.00
   -9   13   25     -4.97      0.00
   -7   13   25     -1.23      0.00
   -5   13   25     -8.47      0.00
   -3   13   25     -1.49      0.00
   -1   13   25     -1.89      0.00
    1   13   25      2.28      0.00
    3   13   25     -4.68      0.00
    5   13   25     -8.23      0.00
  -18   14   25     -2.62      0.00
  -16   14   25      8.73      0.00
  -14   14   25      0.32      0.00
  -12   14   25     -5.83      0.00
  -10   14   25     -3.11      0.00
   -8   14   25     -4.37      0.00
   -6   14   25     -5.53      0.00
   -4   14   25      2.89      0.00
   -2   14   25     -9.40      0.00
    0   14   25      1.04      0.00
    2   14   25     -4.66      0.00
  -17   15   25     -7.88      0.00
  -15   15   25     -4.43      0.00
  -13   15   25      3.64      0.00
  -11   15   25      1.06      0.00
   -9   15   25     -3.83      0.00
   -7   15   25      2.38      0.00
   -5   15   25     -3.19      0.00
   -3   15   25      9.40      0.00
   -1   15   25     -2.89      0.00
    1   15   25     -1.80      0.00
    3   15   25      0.37      0.00
  -16   16   25     -1.68      0.00
  -14   16   25     -7.41      0.00
  -12   16   25     -3.70      0.00
  -10   16   25      3.49      0.00
   -8   16   25     -3.66      0.00
   -6   16   25      0.84      0.00
   -4   16   25     -7.46      0.00
   -2   16   25     -1.73      0.00
    0   16   25     -0.17      0.00
    2   16   25      0.81      0.00
  -13   17   25      0.31      0.00
  -11   17   25     -3.69      0.00
   -9   17   25      4.87      0.00
   -7   17   25      7.90      0.00
   -5   17   25      1.51      0.00
   -3   17   25      4.81      0.00
   -1   17   25      0.37      0.00
    1   17   25      5.84      0.00
  -12   18   25      1.66      0.00
  -10   18   25      1.55      0.00
   -8   18   25    -10.71      0.00
   -6   18   25      4.86      0.00
   -4   18   25     -3.73      0.00
   -2   18   25      3.78      0.00
   -9   19   25      9.47      0.00
   -7   19   25     -0.72      0.00
   -5   19   25     -2.19      0.00
   -3   19   25      5.29      0.00
   -8   20   25     -2.64      0.00
   -6   20   25      4.11      0.00
   -4   20   25     -1.31      0.00
  -22    0   26     -4.09      0.00
  -20    0   26      1.27      0.00
  -18    0   26      2.39      0.00
  -16    0   26      2.02      0.00
  -14    0   26     -9.41      0.00
  -12    0   26      6.60      0.00
  -10    0   26     11.69      0.00
   -8    0   26    -13.15      0.00
   -6    0   26     -1.54      0.00
   -4    0   26    -25.33      0.00
   -2    0   26     10.91      0.00
    0    0   26    -12.38      0.00
    2    0   26     17.71      0.00
    4    0   26      2.54      0.00
    6    0   26      8.36      0.00
  -23    1   26      0.26      0.00
  -21    1   26     -1.96      0.00
  -19    1   26     -8.21      0.00
  -17    1   26     -4.42      0.00
  -15    1   26     -6.33      0.00
  -13    1   26     -0.85      0.00
  -11    1   26    -11.94      0.00
   -9    1   26      7.96      0.00
   -7    1   26     -6.30      0.00
   -5    1   26     17.67      0.00
   -3    1   26      4.17      0.00
   -1    1   26      3.28      0.00
    1    1   26     -0.63      0.00
    3    1   26    -13.65      0.00
    5    1   26     -1.27      0.00
    7    1   26     -7.30      0.00
  -22    2   26      0.56      0.00
  -20    2   26      5.80      0.00
  -18    2   26     -2.12      0.00
  -16    2   26      8.40      0.00
  -14    2   26      9.11      0.00
  -12    2   26     -0.69      0.00
  -10    2   26     -3.49      0.00
   -8    2   26     -4.51      0.00
   -6    2   26     -0.82      0.00
   -4    2   26    -13.78      0.00
   -2    2   26     -0.01      0.00
    0    2   26    -13.10      0.00
    2    2   26     12.78      0.00
    4    2   26     -1.98      0.00
    6    2   26      3.70      0.00
  -21    3   26      1.80      0.00
  -19    3   26      2.98      0.00
  -17    3   26      5.28      0.00
  -15    3   26    -10.97      0.00
  -13    3   26      0.01      0.00
  -11    3   26     -4.75      0.00
   -9    3   26      2.89      0.00
   -7    3   26     16.32      0.00
   -5    3   26     -1.80      0.00
   -3    3   26      5.34      0.00
   -1    3   26     -0.27      0.00
    1    3   26     -1.92      0.00
    3    3   26     -7.75      0.00
    5    3   26     -1.39      0.00
    7    3   26     -4.36      0.00
  -22    4   26     -0.16      0.00
  -20    4   26      1.61      0.00
  -18    4   26     -0.09      0.00
  -16    4   26      3.36      0.00
  -14    4   26      2.26      0.00
  -12    4   26     12.46      0.00
  -10    4   26      3.55      0.00
   -8    4   26    -15.05      0.00
   -6    4   26     -3.85      0.00
   -4    4   26    -10.94      0.00
   -2    4   26      3.11      0.00
    0    4   26     -5.48      0.00
    2    4   26      5.53      0.00
    4    4   26      2.96      0.00
    6    4   26      6.90      0.00
  -21    5   26     -0.95      0.00
  -19    5   26     -1.31      0.00
  -17    5   26      0.41      0.00
  -15    5   26      1.52      0.00
  -13    5   26      4.26      0.00
  -11    5   26     -2.43      0.00
   -9    5   26      8.96      0.00
   -7    5   26      0.06      0.00
   -5    5   26     15.31      0.00
   -3    5   26      7.61      0.00
   -1    5   26     13.26      0.00
    1    5   26      4.26      0.00
    3    5   26      1.55      0.00
    5    5   26     -1.01      0.00
    7    5   26     -0.28      0.00
  -22    6   26     -0.85      0.00
  -20    6   26     -2.59      0.00
  -18    6   26      3.72      0.00
  -16    6   26     -0.02      0.00
  -14    6   26      5.56      0.00
  -12    6   26    -12.38      0.00
  -10    6   26      9.46      0.00
   -8    6   26      1.21      0.00
   -6    6   26      3.11      0.00
   -4    6   26      4.60      0.00
   -2    6   26    -11.95      0.00
    0    6   26      8.19      0.00
    2    6   26      5.82      0.00
    4    6   26      6.67      0.00
  -21    7   26      1.52      0.00
  -19    7   26      5.47      0.00
  -17    7   26     -6.70      0.00
  -15    7   26     -1.28      0.00
  -13    7   26     -7.37      0.00
  -11    7   26     12.48      0.00
   -9    7   26     -6.49      0.00
   -7    7   26     17.17      0.00
   -5    7   26    -13.82      0.00
   -3    7   26     16.85      0.00
   -1    7   26     -4.87      0.00
    1    7   26     -3.69      0.00
    3    7   26     -5.19      0.00
    5    7   26      0.24      0.00
  -20    8   26     -4.67      0.00
  -18    8   26     -4.10      0.00
  -16    8   26      2.01      0.00
  -14    8   26     -4.39      0.00
  -12    8   26      3.94      0.00
  -10    8   26    -15.01      0.00
   -8    8   26     -4.34      0.00
   -6    8   26    -10.94      0.00
   -4    8   26     -0.45      0.00
   -2    8   26     -6.39      0.00
    0    8   26     -5.69      0.00
    2    8   26     -6.47      0.00
    4    8   26     -8.78      0.00
    6    8   26     -2.11      0.00
  -21    9   26      4.04      0.00
  -19    9   26     -5.26      0.00
  -17    9   26      4.11      0.00
  -15    9   26      1.70      0.00
  -13    9   26      1.20      0.00
  -11    9   26     -9.33      0.00
   -9    9   26     -2.99      0.00
   -7    9   26     -9.14      0.00
   -5    9   26     -8.98      0.00
   -3    9   26    -14.74      0.00
   -1    9   26     -1.60      0.00
    1    9   26     -0.19      0.00
    3    9   26      5.60      0.00
    5    9   26     -2.13      0.00
  -20   10   26     -0.77      0.00
  -18   10   26      2.42      0.00
  -16   10   26     -9.43      0.00
  -14   10   26     -1.37      0.00
  -12   10   26     -0.43      0.00
  -10   10   26      0.68      0.00
   -8   10   26      3.97      0.00
   -6   10   26      5.95      0.00
   -4   10   26      4.18      0.00
   -2   10   26     -2.04      0.00
    0   10   26     -0.05      0.00
    2   10   26     -1.04      0.00
    4   10   26     -0.30      0.00
  -19   11   26      3.97      0.00
  -17   11   26      0.96      0.00
  -15   11   26     -0.54      0.00
  -13   11   26     -0.06      0.00
  -11   11   26      6.74      0.00
   -9   11   26      4.20      0.00
   -7   11   26    -11.81      0.00
   -5   11   26     10.84      0.00
   -3   11   26     -1.65      0.00
   -1   11   26      7.77      0.00
    1   11   26     -6.75      0.00
    3   11   26     -0.78      0.00
  -18   12   26     -0.01      0.00
  -16   12   26      7.39      0.00
  -14   12   26     -2.90      0.00
  -12   12   26      7.02      0.00
  -10   12   26     -4.16      0.00
   -8   12   26     22.66      0.00
   -6   12   26      1.19      0.00
   -4   12   26     11.59      0.00
   -2   12   26      4.84      0.00
    0   12   26      7.29      0.00
    2   12   26      8.94      0.00
    4   12   26      1.11      0.00
  -19   13   26     -2.54      0.00
  -17   13   26     -3.72      0.00
  -15   13   26      9.57      0.00
  -13   13   26     -1.41      0.00
  -11   13   26     -0.52      0.00
   -9   13   26     -5.21      0.00
   -7   13   26     -1.23      0.00
   -5   13   26     -5.08      0.00
   -3   13   26     -0.22      0.00
   -1   13   26     -2.62      0.00
    1   13   26      2.17      0.00
    3   13   26      2.68      0.00
  -18   14   26      3.73      0.00
  -16   14   26     -6.36      0.00
  -14   14   26     -1.60      0.00
  -12   14   26      5.98      0.00
  -10   14   26     -2.47      0.00
   -8   14   26      3.31      0.00
   -6   14   26     -4.66      0.00
   -4   14   26      6.28      0.00
   -2   14   26      0.27      0.00
  -17   15   26      4.10      0.00
  -15   15   26      1.56      0.00
  -13   15   26     -6.41      0.00
  -11   15   26      1.70      0.00
   -9   15   26     -5.07      0.00
   -7   15   26     -0.76      0.00
   -5   15   26     -5.61      0.00
   -3   15   26    -10.36      0.00
   -1   15   26     -7.07      0.00
    1   15   26     -5.52      0.00
  -16   16   26     -1.10      0.00
  -14   16   26      0.56      0.00
  -12   16   26     -0.51      0.00
  -10   16   26     -3.22      0.00
   -8   16   26      3.66      0.00
   -6   16   26     -3.20      0.00
   -4   16   26      7.05      0.00
   -2   16   26     -4.22      0.00
    0   16   26      5.13      0.00
  -15   17   26      0.59      0.00
  -13   17   26      2.18      0.00
  -11   17   26      1.42      0.00
   -9   17   26     -1.47      0.00
   -7   17   26     -0.72      0.00
   -5   17   26      0.63      0.00
   -3   17   26      4.24      0.00
  -12   18   26     -0.73      0.00
  -10   18   26     -1.61      0.00
   -8   18   26      2.56      0.00
   -6   18   26     -2.79      0.00
   -4   18   26     -1.97      0.00
   -9   19   26      0.96      0.00
   -7   19   26      0.83      0.00
  -21    1   27     -0.04      0.00
  -19    1   27      0.57      0.00
  -17    1   27     -5.34      0.00
  -15    1   27     -0.85      0.00
  -13    1   27      5.84      0.00
  -11    1   27     -0.92      0.00
   -9    1   27     -3.19      0.00
   -7    1   27     -2.74      0.00
   -5    1   27      7.86      0.00
   -3    1   27     -0.31      0.00
   -1    1   27      0.71      0.00
    1    1   27     -4.45      0.00
    3    1   27     -0.95      0.00
    5    1   27      2.11      0.00
  -20    2   27      0.16      0.00
  -18    2   27     -2.28      0.00
  -16    2   27      5.45      0.00
  -14    2   27     -8.34      0.00
  -12    2   27      0.91      0.00
  -10    2   27     -1.90      0.00
   -8    2   27     -0.78      0.00
   -6    2   27      4.53      0.00
   -4    2   27     -3.65      0.00
   -2    2   27      4.09      0.00
    0    2   27     -6.23      0.00
    2    2   27      5.08      0.00
    4    2   27     -3.35      0.00
  -21    3   27     -0.39      0.00
  -19    3   27     -3.89      0.00
  -17    3   27      1.99      0.00
  -15    3   27     -3.99      0.00
  -13    3   27     -3.56      0.00
  -11    3   27     -1.47      0.00
   -9    3   27     15.66      0.00
   -7    3   27     -9.12      0.00
   -5    3   27     11.58      0.00
   -3    3   27    -10.76      0.00
   -1    3   27      7.26      0.00
    1    3   27     -2.85      0.00
    3    3   27     -6.44      0.00
    5    3   27     -1.18      0.00
  -20    4   27      3.45      0.00
  -18    4   27     -3.41      0.00
  -16    4   27      0.66      0.00
  -14    4   27     -0.02      0.00
  -12    4   27      7.92      0.00
  -10    4   27    -13.04      0.00
   -8    4   27     -3.22      0.00
   -6    4   27    -20.63      0.00
   -4    4   27     -7.30      0.00
   -2    4   27      0.98      0.00
    0    4   27     -4.48      0.00
    2    4   27     11.16      0.00
    4    4   27     -2.17      0.00
  -21    5   27     -0.59      0.00
  -19    5   27     -3.78      0.00
  -17    5   27      3.91      0.00
  -15    5   27     -4.48      0.00
  -13    5   27      8.58      0.00
  -11    5   27    -17.81      0.00
   -9    5   27      7.56      0.00
   -7    5   27      4.19      0.00
   -5    5   27      8.28      0.00
   -3    5   27     -4.57      0.00
   -1    5   27    -10.59      0.00
    1    5   27     -7.80      0.00
    3    5   27     -6.02      0.00
    5    5   27      4.87      0.00
  -20    6   27      1.28      0.00
  -18    6   27      6.63      0.00
  -16    6   27     -1.07      0.00
  -14    6   27     -1.61      0.00
  -12    6   27     -8.23      0.00
  -10    6   27      8.15      0.00
   -8    6   27    -16.84      0.00
   -6    6   27     15.00      0.00
   -4    6   27     -9.83      0.00
   -2    6   27     18.35      0.00
    0    6   27      0.96      0.00
    2    6   27      8.33      0.00
    4    6   27     -1.70      0.00
  -21    7   27      1.25      0.00
  -19    7   27      2.73      0.00
  -17    7   27     -2.40      0.00
  -15    7   27      3.13      0.00
  -13    7   27     10.04      0.00
  -11    7   27     14.41      0.00
   -9    7   27     16.50      0.00
   -7    7   27      5.32      0.00
   -5    7   27      8.68      0.00
   -3    7   27      8.76      0.00
   -1    7   27      9.99      0.00
    1    7   27      4.93      0.00
    3    7   27     -0.44      0.00
    5    7   27      0.55      0.00
  -18    8   27     -2.81      0.00
  -16    8   27      8.58      0.00
  -14    8   27      1.15      0.00
  -12    8   27      3.32      0.00
  -10    8   27     -2.36      0.00
   -8    8   27     -3.98      0.00
   -6    8   27     -0.25      0.00
   -4    8   27     -0.76      0.00
   -2    8   27     -8.38      0.00
    0    8   27      2.65      0.00
    2    8   27      4.52      0.00
    4    8   27      7.78      0.00
  -19    9   27     -2.93      0.00
  -17    9   27      2.60      0.00
  -15    9   27    -10.13      0.00
  -13    9   27      6.03      0.00
  -11    9   27    -10.58      0.00
   -9    9   27      8.92      0.00
   -7    9   27      2.40      0.00
   -5    9   27      1.04      0.00
   -3    9   27      2.92      0.00
   -1    9   27    -10.02      0.00
    1    9   27     -4.27      0.00
    3    9   27     -8.24      0.00
  -18   10   27      4.06      0.00
  -16   10   27     -3.86      0.00
  -14   10   27     -6.95      0.00
  -12   10   27    -15.19      0.00
  -10   10   27     -3.19      0.00
   -8   10   27    -16.01      0.00
   -6   10   27    -10.49      0.00
   -4   10   27     -7.84      0.00
   -2   10   27      0.37      0.00
    0   10   27      3.10      0.00
    2   10   27     -3.57      0.00
  -19   11   27     -1.83      0.00
  -17   11   27     -3.38      0.00
  -15   11   27      1.04      0.00
  -13   11   27      5.03      0.00
  -11   11   27     -3.92      0.00
   -9   11   27     -2.55      0.00
   -7   11   27     -1.44      0.00
   -5   11   27     -4.19      0.00
   -3   11   27     -4.79      0.00
   -1   11   27     -5.11      0.00
    1   11   27     -3.53      0.00
    3   11   27      0.96      0.00
  -18   12   27     -0.23      0.00
  -16   12   27     -2.06      0.00
  -14   12   27      2.82      0.00
  -12   12   27      2.81      0.00
  -10   12   27      2.91      0.00
   -8   12   27      0.88      0.00
   -6   12   27     12.68      0.00
   -4   12   27     -3.79      0.00
   -2   12   27      5.13      0.00
    0   12   27     -0.42      0.00
    2   12   27      2.77      0.00
  -17   13   27      4.17      0.00
  -15   13   27     -4.69      0.00
  -13   13   27      6.06      0.00
  -11   13   27      2.69      0.00
   -9   13   27      8.35      0.00
   -7   13   27     -7.69      0.00
   -5   13   27      6.99      0.00
   -3   13   27      0.38      0.00
  -16   14   27      6.07      0.00
  -14   14   27     -0.63      0.00
  -12   14   27     -1.05      0.00
  -10   14   27      3.49      0.00
   -8   14   27      8.80      0.00
   -6   14   27      2.40      0.00
   -4   14   27      7.85      0.00
   -2   14   27      4.09      0.00
    0   14   27      4.31      0.00
  -15   15   27     -0.67      0.00
  -13   15   27     -1.09      0.00
  -11   15   27     -5.35      0.00
   -9   15   27     -7.03      0.00
   -7   15   27     -2.48      0.00
   -5   15   27      0.27      0.00
   -3   15   27     -3.39      0.00
   -1   15   27     -2.11      0.00
  -14   16   27      1.31      0.00
  -12   16   27      4.50      0.00
  -10   16   27      0.94      0.00
   -8   16   27      2.64      0.00
   -6   16   27     -7.03      0.00
   -4   16   27     -2.68      0.00
  -11   17   27      1.09      0.00
   -9   17   27     -4.25      0.00
   -7   17   27      0.50      0.00
  -20    0   28     -3.59      0.00
  -18    0   28      2.15      0.00
  -16    0   28     -6.61      0.00
  -14    0   28      3.87      0.00
  -12    0   28      2.03      0.00
  -10    0   28     13.18      0.00
   -8    0   28     -1.49      0.00
   -6    0   28      4.40      0.00
   -4    0   28      2.39      0.00
   -2    0   28     -3.48      0.00
    0    0   28      9.52      0.00
    2    0   28     -9.92      0.00
    4    0   28      5.88      0.00
  -19    1   28      2.37      0.00
  -17    1   28      0.63      0.00
  -15    1   28      0.17      0.00
  -13    1   28     -2.60      0.00
  -11    1   28     -6.87      0.00
   -9    1   28     -7.28      0.00
   -7    1   28     -0.05      0.00
   -5    1   28     -7.56      0.00
   -3    1   28     13.30      0.00
   -1    1   28     -5.22      0.00
    1    1   28      9.02      0.00
    3    1   28     -0.73      0.00
  -20    2   28     -1.45      0.00
  -18    2   28     -1.58      0.00
  -16    2   28      5.43      0.00
  -14    2   28      4.53      0.00
  -12    2   28     -0.56      0.00
  -10    2   28      5.12      0.00
   -8    2   28      8.03      0.00
   -6    2   28      2.63      0.00
   -4    2   28     -1.78      0.00
   -2    2   28    -11.01      0.00
    0    2   28      2.61      0.00
    2    2   28     -6.17      0.00
    4    2   28      5.39      0.00
  -19    3   28      2.02      0.00
  -17    3   28     -0.64      0.00
  -15    3   28     -3.46      0.00
  -13    3   28     -1.61      0.00
  -11    3   28      5.63      0.00
   -9    3   28     -7.34      0.00
   -7    3   28      2.72      0.00
   -5    3   28     -4.92      0.00
   -3    3   28      5.80      0.00
   -1    3   28     -1.33      0.00
    1    3   28      3.36      0.00
    3    3   28      2.18      0.00
  -20    4   28     -0.11      0.00
  -18    4   28     -4.49      0.00
  -16    4   28      0.08      0.00
  -14    4   28     -0.97      0.00
  -12    4   28     12.12      0.00
  -10    4   28      0.97      0.00
   -8    4   28      4.28      0.00
   -6    4   28      5.15      0.00
   -4    4   28      5.98      0.00
   -2    4   28      0.73      0.00
    0    4   28     -3.28      0.00
    2    4   28     -9.04      0.00
    4    4   28     -3.16      0.00
  -19    5   28     -1.58      0.00
  -17    5   28      5.37      0.00
  -15    5   28     -1.55      0.00
  -13    5   28     -7.04      0.00
  -11    5   28    -17.14      0.00
   -9    5   28     -2.65      0.00
   -7    5   28    -18.13      0.00
   -5    5   28      5.02      0.00
   -3    5   28    -12.48      0.00
   -1    5   28      7.21      0.00
    1    5   28      1.07      0.00
  -20    6   28      0.60      0.00
  -18    6   28      0.00      0.00
  -16    6   28     -7.03      0.00
  -14    6   28     -1.09      0.00
  -12    6   28     -2.26      0.00
  -10    6   28      2.27      0.00
   -8    6   28      7.99      0.00
   -6    6   28    -16.33      0.00
   -4    6   28     -5.70      0.00
   -2    6   28    -10.12      0.00
    0    6   28     -3.12      0.00
    2    6   28      0.61      0.00
  -19    7   28      0.61      0.00
  -17    7   28     -6.75      0.00
  -15    7   28      5.14      0.00
  -13    7   28     -5.52      0.00
  -11    7   28      5.88      0.00
   -9    7   28     -8.56      0.00
   -7    7   28      8.61      0.00
   -5    7   28      3.46      0.00
   -3    7   28      5.37      0.00
   -1    7   28      1.24      0.00
    1    7   28     -1.51      0.00
    3    7   28     -1.29      0.00
  -18    8   28     -1.48      0.00
  -16    8   28      7.28      0.00
  -14    8   28      2.01      0.00
  -12    8   28      6.68      0.00
  -10    8   28     -4.14      0.00
   -8    8   28      0.42      0.00
   -6    8   28      6.74      0.00
   -4    8   28      7.95      0.00
   -2    8   28      8.77      0.00
    0    8   28     -1.16      0.00
    2    8   28      4.30      0.00
  -19    9   28      0.75      0.00
  -17    9   28      8.83      0.00
  -15    9   28      1.46      0.00
  -13    9   28      5.76      0.00
  -11    9   28      6.06      0.00
   -9    9   28     14.95      0.00
   -7    9   28      5.87      0.00
   -5    9   28      2.50      0.00
   -3    9   28     -3.87      0.00
   -1    9   28      7.45      0.00
    1    9   28      3.95      0.00
  -18   10   28     -1.52      0.00
  -16   10   28     -4.51      0.00
  -14   10   28      4.51      0.00
  -12   10   28     -1.30      0.00
  -10   10   28      5.72      0.00
   -8   10   28     -6.71      0.00
   -6   10   28      2.17      0.00
   -4   10   28     -1.88      0.00
   -2   10   28     -0.31      0.00
    0   10   28     -1.37      0.00
  -17   11   28     -1.48      0.00
  -15   11   28     -5.21      0.00
  -13   11   28     -5.63      0.00
  -11   11   28     -5.50      0.00
   -9   11   28     -7.48      0.00
   -7   11   28     -7.35      0.00
   -5   11   28     -0.40      0.00
   -3   11   28     -5.63      0.00
   -1   11   28     -4.01      0.00
    1   11   28     -3.06      0.00
  -16   12   28      0.12      0.00
  -14   12   28     -4.21      0.00
  -12   12   28     -8.39      0.00
  -10   12   28     -2.92      0.00
   -8   12   28     -7.48      0.00
   -6   12   28     -3.07      0.00
    0   12   28     -2.60      0.00
  -15   13   28      2.20      0.00
  -13   13   28      3.56      0.00
  -11   13   28     -0.86      0.00
   -9   13   28      6.57      0.00
   -7   13   28      6.33      0.00
   -5   13   28     -3.50      0.00
  -14   14   28      4.42      0.00
  -12   14   28      1.91      0.00
  -10   14   28      3.71      0.00
   -8   14   28     -6.45      0.00
   -6   14   28      8.45      0.00
  -11   15   28      2.01      0.00
   -9   15   28      2.76      0.00
   -7   15   28     -0.45      0.00
   -8   16   28      0.50      0.00
  -19    1   29     -0.40      0.00
  -17    1   29     -5.47      0.00
  -15    1   29      1.18      0.00
  -13    1   29     -1.06      0.00
  -11    1   29     -2.44      0.00
   -9    1   29     -0.32      0.00
   -7    1   29      4.92      0.00
   -5    1   29      2.11      0.00
   -3    1   29      4.80      0.00
   -1    1   29     -3.26      0.00
    1    1   29      1.40      0.00
  -18    2   29      2.02      0.00
  -16    2   29      0.11      0.00
  -14    2   29      1.02      0.00
  -12    2   29     -3.17      0.00
  -10    2   29     10.23      0.00
   -8    2   29     -3.39      0.00
   -6    2   29      5.32      0.00
   -4    2   29     -5.28      0.00
   -2    2   29      1.11      0.00
    0    2   29      1.86      0.00
    2    2   29     -3.66      0.00
  -19    3   29      3.12      0.00
  -17    3   29     -0.85      0.00
  -15    3   29     -3.64      0.00
  -13    3   29     -1.40      0.00
  -11    3   29     -1.73      0.00
   -9    3   29     -1.22      0.00
   -7    3   29     -4.66      0.00
   -5    3   29     -2.76      0.00
   -3    3   29     12.06      0.00
   -1    3   29      0.16      0.00
    1    3   29     10.39      0.00
  -18    4   29      0.76      0.00
  -16    4   29      9.29      0.00
  -14    4   29      8.15      0.00
  -12    4   29      6.78      0.00
  -10    4   29     -1.03      0.00
   -8    4   29      1.12      0.00
   -6    4   29      3.64      0.00
   -4    4   29     -2.94      0.00
   -2    4   29     -3.89      0.00
    0    4   29      1.27      0.00
  -19    5   29      0.52      0.00
  -17    5   29      0.10      0.00
  -15    5   29     -5.87      0.00
  -13    5   29     -0.74      0.00
  -11    5   29     -3.44      0.00
   -9    5   29      0.73      0.00
   -7    5   29     11.97      0.00
   -5    5   29     -2.67      0.00
   -3    5   29      5.74      0.00
   -1    5   29     -9.97      0.00
    1    5   29      0.03      0.00
  -18    6   29      2.55      0.00
  -16    6   29     -6.68      0.00
  -14    6   29      3.44      0.00
  -12    6   29     -2.60      0.00
  -10    6   29     10.96      0.00
   -8    6   29     -8.66      0.00
   -6    6   29      2.12      0.00
   -4    6   29     -9.39      0.00
   -2    6   29      1.58      0.00
    0    6   29     -2.09      0.00
  -17    7   29     -8.40      0.00
  -15    7   29      1.26      0.00
  -13    7   29    -10.32      0.00
  -11    7   29     -1.69      0.00
   -9    7   29    -13.53      0.00
   -7    7   29    -11.39      0.00
   -5    7   29     -2.03      0.00
   -3    7   29      1.03      0.00
   -1    7   29      2.81      0.00
    1    7   29      0.62      0.00
  -18    8   29     -3.46      0.00
  -16    8   29      7.40      0.00
  -14    8   29     -0.92      0.00
  -12    8   29      2.49      0.00
  -10    8   29     -7.76      0.00
   -8    8   29     10.19      0.00
   -6    8   29     -7.08      0.00
   -4    8   29      2.22      0.00
   -2    8   29     -7.84      0.00
    0    8   29      1.86      0.00
  -17    9   29     -0.45      0.00
  -15    9   29     -3.55      0.00
  -13    9   29     -6.85      0.00
  -11    9   29      2.37      0.00
   -9    9   29      1.55      0.00
   -7    9   29     10.27      0.00
   -5    9   29      4.23      0.00
   -3    9   29      4.16      0.00
   -1    9   29      3.28      0.00
  -16   10   29      3.17      0.00
  -14   10   29     10.40      0.00
  -12   10   29      9.54      0.00
  -10   10   29      4.85      0.00
   -8   10   29      3.32      0.00
   -6   10   29     -3.01      0.00
   -4   10   29      5.15      0.00
   -2   10   29     -2.27      0.00
  -15   11   29      3.83      0.00
  -13   11   29     -1.96      0.00
  -11   11   29      9.82      0.00
   -9   11   29      1.82      0.00
   -7   11   29      5.82      0.00
  -14   12   29     -1.80      0.00
  -12   12   29     -6.60      0.00
  -10   12   29    -15.30      0.00
   -6   12   29     -2.00      0.00
  -13   13   29     -3.07      0.00
  -11   13   29      4.96      0.00
   -9   13   29      3.22      0.00
  -10   14   29     -0.84      0.00
   -8   14   29     -0.56      0.00
  -18    0   30      3.46      0.00
  -16    0   30     -5.25      0.00
  -14    0   30      7.44      0.00
  -12    0   30     -1.33      0.00
  -10    0   30     -3.59      0.00
   -8    0   30      3.87      0.00
   -6    0   30     -2.17      0.00
   -4    0   30      9.10      0.00
   -2    0   30     -3.66      0.00
    0    0   30     -2.89      0.00
  -17    1   30      1.46      0.00
  -15    1   30      0.82      0.00
  -13    1   30     -3.37      0.00
  -11    1   30      1.51      0.00
   -9    1   30     -5.69      0.00
   -7    1   30      0.04      0.00
   -5    1   30     -3.68      0.00
   -3    1   30     -7.45      0.00
   -1    1   30      6.36      0.00
  -18    2   30      1.06      0.00
  -16    2   30     -2.97      0.00
  -14    2   30     -2.28      0.00
  -12    2   30     -2.12      0.00
  -10    2   30      1.81      0.00
   -8    2   30      5.64      0.00
   -6    2   30     -4.42      0.00
   -4    2   30      0.51      0.00
   -2    2   30     -3.23      0.00
    0    2   30     -2.83      0.00
  -17    3   30     -1.67      0.00
  -15    3   30      4.22      0.00
  -13    3   30      1.37      0.00
  -11    3   30      7.03      0.00
   -9    3   30     -5.44      0.00
   -7    3   30     -2.67      0.00
   -5    3   30      0.38      0.00
   -3    3   30     -0.22      0.00
   -1    3   30      3.41      0.00
  -18    4   30      0.01      0.00
  -16    4   30     -0.27      0.00
  -14    4   30     -1.85      0.00
  -12    4   30     -2.47      0.00
  -10    4   30      0.19      0.00
   -8    4   30      0.06      0.00
   -6    4   30     12.92      0.00
   -4    4   30      6.60      0.00
   -2    4   30      7.92      0.00
  -17    5   30      6.93      0.00
  -15    5   30     -4.72      0.00
  -13    5   30      5.38      0.00
  -11    5   30     -6.93      0.00
   -9    5   30     10.56      0.00
   -7    5   30     -4.33      0.00
   -5    5   30     -0.55      0.00
   -3    5   30     -3.23      0.00
   -1    5   30      2.19      0.00
  -16    6   30     -2.10      0.00
  -14    6   30      5.15      0.00
  -12    6   30      2.78      0.00
  -10    6   30      5.35      0.00
   -8    6   30      0.03      0.00
   -6    6   30     -0.96      0.00
   -4    6   30     -4.23      0.00
   -2    6   30     -0.64      0.00
  -17    7   30     -4.87      0.00
  -15    7   30      4.28      0.00
  -13    7   30      0.67      0.00
  -11    7   30     -0.19      0.00
   -9    7   30     -7.16      0.00
   -7    7   30      1.94      0.00
   -5    7   30     -6.25      0.00
   -3    7   30      1.25      0.00
  -16    8   30      0.39      0.00
  -14    8   30     -6.71      0.00
  -12    8   30     -3.64      0.00
  -10    8   30     -5.79      0.00
   -8    8   30     -5.60      0.00
   -6    8   30      4.25      0.00
   -4    8   30     -1.46      0.00
  -15    9   30     -4.46      0.00
  -13    9   30     -0.29      0.00
  -11    9   30     -2.53      0.00
   -9    9   30      5.41      0.00
   -7    9   30     -2.51      0.00
   -5    9   30     -0.95      0.00
  -14   10   30     -1.23      0.00
  -12   10   30      1.87      0.00
  -10   10   30      0.90      0.00
   -8   10   30      2.18      0.00
  -11   11   30      3.16      0.00
   -9   11   30      0.23      0.00
   -7   11   30      4.40      0.00
   -8   12   30      1.72      0.00
  -17    1   31      1.48      0.00
  -15    1   31      3.40      0.00
  -13    1   31     -2.84      0.00
  -11    1   31      1.39      0.00
   -9    1   31      0.76      0.00
   -7    1   31      5.18      0.00
   -5    1   31     -1.55      0.00
   -3    1   31     -4.34      0.00
  -16    2   31     -4.86      0.00
  -14    2   31      2.09      0.00
  -12    2   31     -1.80      0.00
  -10    2   31      1.59      0.00
   -8    2   31      1.32      0.00
   -6    2   31     -8.89      0.00
   -4    2   31      2.12      0.00
  -15    3   31      0.86      0.00
  -13    3   31     -3.09      0.00
  -11    3   31     -0.81      0.00
   -9    3   31    -10.92      0.00
   -7    3   31     -5.05      0.00
   -5    3   31     -4.12      0.00
   -3    3   31     -2.07      0.00
  -16    4   31      3.43      0.00
  -14    4   31     -2.94      0.00
  -12    4   31      1.57      0.00
  -10    4   31     -3.94      0.00
   -8    4   31      7.94      0.00
   -6    4   31      1.39      0.00
   -4    4   31      7.38      0.00
  -15    5   31     -2.92      0.00
  -13    5   31      0.85      0.00
  -11    5   31      4.72      0.00
   -9    5   31      0.85      0.00
   -7    5   31      6.71      0.00
   -5    5   31     -0.47      0.00
   -3    5   31      1.94      0.00
  -14    6   31      4.51      0.00
  -12    6   31      0.07      0.00
  -10    6   31      9.26      0.00
   -8    6   31     -1.26      0.00
   -6    6   31      4.07      0.00
   -4    6   31      3.22      0.00
  -13    7   31      2.64      0.00
  -11    7   31     -3.44      0.00
   -9    7   31     -2.99      0.00
   -7    7   31     -7.35      0.00
  -12    8   31     -1.48      0.00
  -10    8   31     -3.39      0.00
   -8    8   31      4.68      0.00
  -11    9   31     -5.20      0.00
   -9    9   31      0.17      0.00
  -14    0   32     -4.87      0.00
  -12    0   32     -1.05      0.00
  -10    0   32     -6.97      0.00
  -13    1   32      3.78      0.00
  -11    1   32      0.00      0.00
   -9    1   32      6.89      0.00
   -7    1   32      1.24      0.00
   -5    1   32      2.52      0.00
  -14    2   32     -3.52      0.00
  -12    2   32      4.32      0.00
  -10    2   32      0.80      0.00
   -8    2   32     -0.74      0.00
   -6    2   32     -3.23      0.00
  -13    3   32     -2.29      0.00
  -11    3   32      0.22      0.00
   -9    3   32     -0.91      0.00
   -7    3   32     -3.55      0.00
  -12    4   32     -5.51      0.00
  -10    4   32     -6.05      0.00
   -8    4   32     -4.66      0.00
  -11    5   32      0.35      0.00
   -9    5   32      5.26      0.00
  -10    6   32      2.58      0.00
    1    1    0   -568.00      0.00
    0    2    0    -13.91      0.00
    0    4    0    307.19      0.00
   25    7    0      0.27      0.00
   24   10    0      0.44      0.00
   22   16    0     -2.78      0.00
   20   20    0     -2.03      0.00
   19   21    0     -1.47      0.00
   14   26    0     -1.66      0.00
   11   29    0     -2.56      0.00
    1   31    0      0.27      0.00
    5   31    0      5.33      0.00
    7   31    0     -0.71      0.00
    0   32    0      1.27      0.00
    2   32    0      4.72      0.00
   -1    1    1    520.83      0.00
   25    1    1      1.38      0.00
   25    3    1      2.04      0.00
   25    5    1     -0.41      0.00
  -24   10    1      5.71      0.00
   24   10    1      1.99      0.00
  -24   12    1      0.84      0.00
   23   13    1      0.30      0.00
  -23   15    1      0.45      0.00
  -21   19    1      1.84      0.00
  -20   20    1     -1.47      0.00
   19   21    1     -0.47      0.00
   18   22    1     -0.11      0.00
  -15   25    1     -3.68      0.00
  -14   26    1      3.79      0.00
   13   27    1      2.73      0.00
   12   28    1     -3.93      0.00
  -11   29    1     -0.74      0.00
   -7   31    1     -2.74      0.00
   -1   31    1     -1.82      0.00
    1   31    1     -4.95      0.00
    3   31    1     -0.19      0.00
   -2   32    1      2.35      0.00
    0   32    1     -0.77      0.00
    2   32    1      2.72      0.00
  -26    0    2     -6.80      0.00
   25    1    2      1.38      0.00
  -26    2    2     -1.11      0.00
  -26    4    2     -1.74      0.00
  -24    8    2      0.02      0.00
   24    8    2     -1.90      0.00
  -25    9    2     -3.58      0.00
  -23   15    2      0.27      0.00
   21   17    2     -5.13      0.00
  -21   19    2     -0.30      0.00
   19   19    2      1.69      0.00
   18   22    2     -0.44      0.00
   17   23    2      0.37      0.00
  -16   24    2     -0.63      0.00
   16   24    2     -1.85      0.00
   13   27    2     -1.63      0.00
   12   28    2      1.92      0.00
  -11   29    2      3.04      0.00
    8   30    2      1.96      0.00
   -7   31    2     -3.27      0.00
   -1   31    2     -3.81      0.00
    1   31    2      2.05      0.00
    3   31    2     -1.74      0.00
    5   31    2     -3.17      0.00
   -2   32    2     -3.30      0.00
    0   32    2     -1.06      0.00
    2   32    2     -2.64      0.00
   24    2    3      1.61      0.00
   24    4    3     -2.42      0.00
  -26    6    3      1.33      0.00
  -24    6    3      0.43      0.00
   24    6    3      1.51      0.00
  -25    7    3     -1.16      0.00
   20    8    3      4.82      0.00
   23   11    3     -0.03      0.00
   22   14    3      0.47      0.00
  -23   15    3      3.74      0.00
  -22   18    3      1.64      0.00
   20   18    3     -2.11      0.00
   19   19    3      1.09      0.00
   16   24    3      3.59      0.00
   15   25    3     -2.32      0.00
   14   26    3     -4.47      0.00
   11   27    3     -6.24      0.00
   10   28    3     -1.18      0.00
  -10   30    3      2.17      0.00
   -8   30    3      0.18      0.00
    8   30    3      4.09      0.00
   -7   31    3      5.61      0.00
   -1   31    3     -0.41      0.00
    1   31    3      0.91      0.00
    3   31    3     -2.81      0.00
    5   31    3     -0.62      0.00
   -2   32    3      0.05      0.00
    0   32    3      4.50      0.00
   24    0    4      1.05      0.00
   24    2    4     -2.66      0.00
   24    4    4     -0.25      0.00
  -25    5    4      1.12      0.00
  -26    6    4      0.18      0.00
  -25   11    4     -0.71      0.00
  -24   14    4      0.59      0.00
   21   15    4     -0.76      0.00
   20   16    4      0.55      0.00
  -22   18    4     -0.44      0.00
   19   19    4      1.81      0.00
   18   20    4     -0.36      0.00
   17   21    4     -4.55      0.00
  -18   22    4      0.75      0.00
  -18   24    4      3.51      0.00
  -17   25    4     -3.19      0.00
  -16   26    4      1.65      0.00
   10   28    4     -1.45      0.00
    9   29    4     -1.14      0.00
  -10   30    4     -3.82      0.00
   -8   30    4      2.31      0.00
   -7   31    4      2.26      0.00
   -1   31    4      3.06      0.00
    3   31    4      5.41      0.00
    5   31    4      2.46      0.00
   23    1    5      3.97      0.00
  -26    4    5     -1.21      0.00
  -25    5    5      0.97      0.00
  -26    8    5     -0.56      0.00
   -1    9    5     68.44      0.00
  -25   11    5      1.37      0.00
  -24   14    5     -1.48      0.00
   20   16    5     -0.66      0.00
   19   17    5     -1.62      0.00
   18   18    5      0.81      0.00
   18   20    5      1.39      0.00
   17   21    5     -2.67      0.00
   16   22    5     -2.77      0.00
  -19   23    5     -0.59      0.00
  -18   24    5     -0.64      0.00
  -17   25    5      5.47      0.00
  -16   26    5     -1.68      0.00
   -9   29    5     -2.84      0.00
    9   29    5      0.19      0.00
  -10   30    5     -4.01      0.00
   -7   31    5     -0.10      0.00
   -1   31    5      3.76      0.00
    1   31    5     -4.26      0.00
    3   31    5      3.00      0.00
  -27    1    6     -3.65      0.00
   23    1    6     -3.52      0.00
   23    3    6      1.53      0.00
  -26    4    6      4.77      0.00
   23    5    6      0.94      0.00
  -26    8    6      0.29      0.00
   22   10    6     -1.00      0.00
  -25   11    6     -0.80      0.00
   21   13    6      3.46      0.00
  -24   14    6     -3.62      0.00
  -23   17    6     -1.32      0.00
   19   17    6      1.15      0.00
   18   18    6     -3.42      0.00
   17   19    6      3.13      0.00
   17   21    6      0.77      0.00
   16   22    6     -1.94      0.00
  -19   23    6     -0.49      0.00
   15   23    6     -1.78      0.00
  -18   24    6     -4.65      0.00
   14   24    6      1.24      0.00
  -17   25    6      1.87      0.00
   13   25    6      0.23      0.00
  -16   26    6     -2.85      0.00
   12   26    6      0.73      0.00
  -15   27    6      3.07      0.00
   11   27    6     -1.20      0.00
   10   28    6     -1.31      0.00
  -11   29    6     -1.24      0.00
    7   29    6     -0.82      0.00
    6   30    6     -1.06      0.00
   -7   31    6     -2.12      0.00
   -5   31    6     -1.96      0.00
   -3   31    6     -4.59      0.00
   -1   31    6     -3.60      0.00
    1   31    6      3.83      0.00
    3   31    6     -4.63      0.00
  -27    1    7     -1.01      0.00
  -27    3    7     -4.60      0.00
  -26    8    7      2.44      0.00
   22    8    7     -0.83      0.00
  -25   11    7     -2.55      0.00
  -23   17    7     -0.67      0.00
   19   17    7     -2.77      0.00
   18   18    7      0.84      0.00
   17   19    7     -1.48      0.00
   16   20    7     -2.14      0.00
  -20   22    7      0.16      0.00
  -19   23    7      1.17      0.00
   15   23    7      6.62      0.00
  -18   24    7      2.60      0.00
   14   24    7     -0.68      0.00
  -17   25    7      0.69      0.00
   13   25    7     -1.13      0.00
  -16   26    7     -5.42      0.00
   12   26    7     -2.66      0.00
  -15   27    7     -1.03      0.00
  -12   28    7      0.32      0.00
    6   28    7     -5.25      0.00
  -11   29    7      3.66      0.00
    5   29    7      1.70      0.00
   -5   31    7      0.85      0.00
   -3   31    7     -1.40      0.00
   -1   31    7      1.49      0.00
    1   31    7     -0.72      0.00
  -26    0    8      6.21      0.00
   22    0    8      1.43      0.00
  -27    1    8      0.23      0.00
   22    2    8      1.46      0.00
  -27    3    8     -2.47      0.00
   -2    4    8    -18.59      0.00
   22    4    8     -0.75      0.00
   22    6    8      2.39      0.00
  -25   13    8      0.10      0.00
  -21   19    8     -4.04      0.00
   17   19    8      1.55      0.00
   16   20    8      0.85      0.00
   15   21    8     -5.45      0.00
  -20   22    8     -1.95      0.00
   14   22    8     -0.51      0.00
  -19   23    8      1.51      0.00
  -18   24    8      2.61      0.00
  -17   25    8     -1.61      0.00
  -16   26    8      1.61      0.00
  -12   28    8     -8.47      0.00
    4   28    8      4.02      0.00
   -1   29    8    -12.61      0.00
    5   29    8     -3.67      0.00
   -8   30    8     -0.69      0.00
    4   30    8      4.96      0.00
   -5   31    8     -0.39      0.00
   -3   31    8      4.02      0.00
   -1   31    8      2.83      0.00
  -27    1    9      2.51      0.00
  -27    5    9      3.50      0.00
    9    7    9     42.58      0.00
  -26    8    9      2.27      0.00
  -26   10    9      0.06      0.00
   20   10    9      6.35      0.00
   20   12    9      0.22      0.00
  -25   13    9     -1.03      0.00
   18   16    9     -1.81      0.00
  -22   18    9     -0.86      0.00
   16   20    9      1.39      0.00
   15   21    9     -4.42      0.00
  -20   22    9     -2.71      0.00
   14   22    9      1.06      0.00
  -19   23    9     -1.47      0.00
   13   23    9      0.35      0.00
  -18   24    9      1.22      0.00
   12   24    9     -0.42      0.00
  -17   25    9     -2.50      0.00
   11   25    9     -3.01      0.00
  -16   26    9      3.74      0.00
   10   26    9      2.05      0.00
  -13   27    9      3.49      0.00
    9   27    9      3.04      0.00
  -11   29    9      3.39      0.00
    3   29    9     -3.91      0.00
   -8   30    9     -0.47      0.00
   -6   30    9     -2.78      0.00
   -4   30    9     -5.47      0.00
   -3   31    9      2.44      0.00
  -27    1   10     -1.19      0.00
   21    1   10     -0.80      0.00
  -27    3   10      2.65      0.00
   21    3   10      2.72      0.00
  -27    5   10      0.59      0.00
   21    5   10      4.01      0.00
    9    7   10      1.93      0.00
  -26   10   10      4.28      0.00
   20   10   10      4.43      0.00
  -25   13   10      0.08      0.00
   19   13   10     -3.32      0.00
  -23   17   10      2.22      0.00
  -20   22   10      2.29      0.00
   14   22   10     -1.99      0.00
  -19   23   10      1.32      0.00
   13   23   10      0.39      0.00
  -18   24   10     -0.83      0.00
   12   24   10      1.50      0.00
  -17   25   10     -4.42      0.00
   11   25   10     -4.24      0.00
  -16   26   10      2.74      0.00
  -14   26   10     -3.88      0.00
   10   26   10      1.06      0.00
  -11   29   10      2.07      0.00
    5   29   10     -0.57      0.00
   -8   30   10     -1.98      0.00
   -6   30   10     -5.39      0.00
   -4   30   10      2.78      0.00
    2   30   10      2.69      0.00
  -27    1   11     -0.56      0.00
   20    2   11      0.66      0.00
  -27    3   11      2.10      0.00
  -27    5   11      1.72      0.00
   20    8   11     -4.18      0.00
  -26   10   11      0.06      0.00
   19   11   11      0.23      0.00
  -25   13   11      5.25      0.00
   18   14   11      1.68      0.00
   16   18   11     -4.77      0.00
  -19   23   11     -4.46      0.00
  -18   24   11      1.71      0.00
   10   24   11      2.72      0.00
  -17   25   11     -1.21      0.00
  -15   25   11     -2.90      0.00
    9   25   11      1.29      0.00
    8   26   11     -2.19      0.00
    7   27   11     -5.04      0.00
  -12   28   11     -1.01      0.00
    6   28   11     -2.31      0.00
   -9   29   11      1.89      0.00
   -7   29   11     -3.14      0.00
   -5   29   11     -4.40      0.00
    1   29   11     -2.34      0.00
   -6   30   11     -0.06      0.00
   -4   30   11      1.27      0.00
    0   30   11      6.70      0.00
   20    0   12      1.17      0.00
  -27    1   12      3.34      0.00
   20    2   12      0.24      0.00
  -27    3   12      1.87      0.00
   20    4   12     -0.47      0.00
  -27    5   12      0.34      0.00
   19    9   12      2.60      0.00
  -26   10   12      3.57      0.00
  -25   13   12     -6.33      0.00
  -24   14   12      5.30      0.00
   17   15   12      2.46      0.00
   14   20   12      0.91      0.00
   13   21   12     -3.35      0.00
   12   22   12     -4.60      0.00
   11   23   12      2.26      0.00
  -16   24   12     -2.88      0.00
   10   24   12      0.69      0.00
    9   25   12      8.57      0.00
    8   26   12     -6.03      0.00
  -12   28   12     -3.48      0.00
    4   28   12      0.45      0.00
   -9   29   12     -0.27      0.00
   -7   29   12     -4.88      0.00
   -5   29   12     -3.49      0.00
   -3   29   12     -4.76      0.00
   -1   29   12     -2.59      0.00
   -4   30   12     -0.31      0.00
  -27    1   13     -0.09      0.00
   19    1   13      2.04      0.00
  -27    3   13      1.33      0.00
   19    3   13      2.85      0.00
  -27    5   13     -1.34      0.00
   19    5   13     -2.43      0.00
  -26   10   13      1.36      0.00
  -25   13   13      1.40      0.00
   14   16   13     -6.47      0.00
  -23   17   13      5.58      0.00
   13   17   13      8.33      0.00
   15   17   13     -0.82      0.00
  -17   23   13      0.21      0.00
    8   24   13      0.85      0.00
    7   25   13      2.59      0.00
    6   26   13      6.12      0.00
  -13   27   13      1.75      0.00
    5   27   13      0.39      0.00
  -10   28   13      3.00      0.00
   -7   29   13      0.99      0.00
   -5   29   13      1.55      0.00
   -3   29   13      0.78      0.00
   18    0   14     -2.35      0.00
  -27    1   14     -1.36      0.00
   18    2   14      1.31      0.00
  -27    3   14     -1.96      0.00
  -27    5   14     -2.24      0.00
   18    8   14     -1.93      0.00
  -26   10   14      0.21      0.00
  -25   11   14      1.71      0.00
   17   11   14      1.94      0.00
   16   14   14     -5.33      0.00
  -23   17   14      0.75      0.00
   13   17   14     -0.86      0.00
  -22   18   14     -0.70      0.00
   14   18   14     -1.42      0.00
  -18   22   14     -5.15      0.00
   10   22   14      1.45      0.00
    9   23   14      3.75      0.00
    8   24   14     -3.34      0.00
    7   25   14     -3.40      0.00
  -14   26   14     -0.86      0.00
   -6   26   14      0.88      0.00
    6   26   14      0.66      0.00
  -13   27   14     -1.84      0.00
  -11   27   14     -2.63      0.00
  -10   28   14      2.30      0.00
   -8   28   14      1.13      0.00
    2   28   14     -0.45      0.00
   -5   29   14     -0.30      0.00
   -3   29   14      6.16      0.00
  -27    1   15      0.91      0.00
   17    1   15     -2.99      0.00
   18    2   15     -0.81      0.00
  -27    3   15     -2.52      0.00
   18    4   15     -0.16      0.00
  -27    5   15     -1.72      0.00
   17    9   15     -5.92      0.00
   16   12   15     -0.34      0.00
   13   17   15     -7.92      0.00
  -22   18   15     -1.25      0.00
  -19   21   15     -0.55      0.00
   11   21   15      1.90      0.00
  -18   22   15      2.93      0.00
   10   22   15      5.10      0.00
    7   23   15      4.00      0.00
    9   23   15     -0.36      0.00
    6   24   15      2.31      0.00
    8   24   15     -1.46      0.00
  -15   25   15      0.53      0.00
    5   25   15     -1.55      0.00
  -14   26   15     -3.58      0.00
   -8   26   15      4.16      0.00
    4   26   15     -7.94      0.00
  -11   27   15     -2.73      0.00
    3   27   15     -4.46      0.00
   -8   28   15     -1.09      0.00
    0   28   15      2.63      0.00
  -27    1   16      2.63      0.00
   17    1   16      2.63      0.00
  -27    3   16      2.23      0.00
   17    3   16     -2.49      0.00
   17    5   16      0.04      0.00
  -26    8   16     -0.94      0.00
   16   10   16      3.18      0.00
   15   13   16     -6.41      0.00
  -24   14   16     -1.62      0.00
   13   17   16     -0.54      0.00
  -22   18   16     -3.81      0.00
  -19   21   16     -6.50      0.00
    8   22   16      4.17      0.00
    5   23   16      4.02      0.00
    7   23   16      4.23      0.00
  -16   24   16      0.48      0.00
    6   24   16      0.02      0.00
  -15   25   16      0.71      0.00
    5   25   16     -1.80      0.00
  -12   26   16      3.02      0.00
  -10   26   16     -5.13      0.00
   -8   26   16     -1.55      0.00
    2   26   16     -1.06      0.00
  -11   27   16      0.34      0.00
    1   27   16     -3.46      0.00
   -6   28   16     -6.06      0.00
   -4   28   16      2.97      0.00
  -27    1   17     -1.01      0.00
   16    2   17      3.89      0.00
  -26    4   17     -1.34      0.00
   16    4   17     -2.84      0.00
  -26    6   17      0.10      0.00
   16    6   17      1.95      0.00
  -26    8   17     -0.30      0.00
  -25   11   17      0.68      0.00
   15   11   17      5.50      0.00
  -24   14   17      2.77      0.00
   11   17   17     -4.42      0.00
  -21   19   17     -1.65      0.00
  -20   20   17      1.57      0.00
   10   20   17      1.27      0.00
  -19   21   17     -0.87      0.00
    9   21   17      0.12      0.00
  -18   22   17     -2.52      0.00
    8   22   17     -2.14      0.00
  -17   23   17     -1.57      0.00
    5   23   17     -0.43      0.00
    7   23   17     -1.61      0.00
    4   24   17      3.50      0.00
  -13   25   17     -2.32      0.00
  -11   25   17      3.33      0.00
    3   25   17     -2.14      0.00
  -12   26   17      0.18      0.00
  -10   26   17     -1.14      0.00
    0   26   17     -0.52      0.00
    2   26   17      3.48      0.00
   -9   27   17     -0.88      0.00
   -1   27   17     -1.35      0.00
   16    0   18     -2.25      0.00
   15    1   18     -3.96      0.00
   16    2   18      1.55      0.00
  -26    4   18      1.56      0.00
   14   10   18     -6.75      0.00
  -25   11   18     -2.29      0.00
   13   13   18     -3.19      0.00
  -23   15   18      1.73      0.00
   11   17   18      0.17      0.00
    7   21   18      4.95      0.00
    6   22   18      0.95      0.00
    3   23   18     -0.48      0.00
    5   23   18     -3.40      0.00
  -14   24   18     -0.84      0.00
    4   24   18     -3.28      0.00
  -13   25   18     -0.38      0.00
  -11   25   18     -2.36      0.00
  -10   26   18      0.81      0.00
   -2   26   18      6.57      0.00
    0   26   18     -1.78      0.00
   15    1   19     -3.79      0.00
  -26    2   19      0.42      0.00
   15    3   19      1.23      0.00
  -26    6   19     -0.28      0.00
   14    8   19     -2.22      0.00
  -25    9   19      0.93      0.00
   13    9   19      5.73      0.00
   12   14   19      3.97      0.00
  -22   16   19      0.21      0.00
   10   16   19     -5.78      0.00
  -16   22   19      3.25      0.00
    4   22   19     -1.50      0.00
  -15   23   19      2.52      0.00
    3   23   19      5.77      0.00
  -14   24   19      2.95      0.00
  -12   24   19      0.83      0.00
    2   24   19     -6.07      0.00
  -11   25   19      2.46      0.00
   -9   25   19     -4.81      0.00
   -8   26   19      2.68      0.00
   -6   26   19     -2.53      0.00
   -4   26   19     -2.38      0.00
  -26    0   20     -1.90      0.00
   -6    0   20     28.50      0.00
   14    0   20      4.88      0.00
  -26    2   20     -1.28      0.00
   14    2   20     -0.93      0.00
  -26    4   20      3.35      0.00
   14    4   20      0.58      0.00
  -25    9   20      1.63      0.00
   13    9   20      1.16      0.00
  -24   12   20      1.35      0.00
  -21   17   20     -0.65      0.00
    9   17   20     -0.93      0.00
  -18   20   20     -1.99      0.00
    6   20   20     -1.15      0.00
  -17   21   20     -3.33      0.00
    5   21   20      0.68      0.00
  -16   22   20      1.30      0.00
    2   22   20      3.18      0.00
    4   22   20      0.99      0.00
  -13   23   20      3.72      0.00
  -12   24   20     -0.59      0.00
   -9   25   20     -0.44      0.00
   -3   25   20     -1.66      0.00
   13    1   21      2.72      0.00
  -26    2   21     -1.71      0.00
   13    3   21      2.44      0.00
   13    5   21     -1.09      0.00
  -25    7   21     -1.37      0.00
   11    9   21     -2.29      0.00
  -23   11   21      5.00      0.00
  -23   13   21      0.78      0.00
    8   16   21     -1.48      0.00
  -19   19   21      1.54      0.00
  -18   20   21     -0.78      0.00
    3   21   21     -3.77      0.00
  -14   22   21     -5.91      0.00
    2   22   21      0.94      0.00
  -13   23   21      1.53      0.00
    1   23   21     -1.01      0.00
   -2   24   21      1.60      0.00
   12    0   22      0.25      0.00
   12    2   22     -0.21      0.00
   12    4   22     -0.71      0.00
  -25    5   22     -1.02      0.00
  -23    9   22     -2.64      0.00
   11    9   22     -6.32      0.00
    9   13   22      0.17      0.00
  -22   14   22     -1.72      0.00
    7   15   22     -0.56      0.00
    5   19   22      3.13      0.00
  -15   21   22     -3.23      0.00
    1   21   22      3.65      0.00
  -14   22   22      5.41      0.00
    0   22   22     -0.17      0.00
  -11   23   22     -5.42      0.00
  -25    1   23      0.05      0.00
   11    1   23     -0.91      0.00
  -25    3   23     -0.60      0.00
   11    3   23      0.44      0.00
  -24    8   23      1.37      0.00
   10    8   23      0.90      0.00
  -23   11   23     -2.52      0.00
    9   11   23      1.74      0.00
    5   15   23      5.81      0.00
    7   15   23      0.38      0.00
  -20   16   23      0.80      0.00
    6   16   23     -0.05      0.00
  -19   17   23     -4.46      0.00
    5   17   23     -5.94      0.00
  -18   18   23      1.46      0.00
    4   18   23     -2.43      0.00
  -17   19   23      2.31      0.00
    3   19   23     -0.57      0.00
  -16   20   23      1.14      0.00
    0   20   23     -3.05      0.00
    2   20   23      3.37      0.00
  -12   22   23     -0.47      0.00
   -2   22   23      5.03      0.00
   -7   23   23     -0.88      0.00
  -24    0   24      0.04      0.00
   10    0   24      2.77      0.00
  -24    2   24      0.95      0.00
   10    2   24      0.06      0.00
   10    4   24     -0.69      0.00
  -24    6   24     -1.08      0.00
    8    8   24      4.39      0.00
  -23    9   24     -1.98      0.00
  -20   14   24     -3.86      0.00
    6   14   24      0.96      0.00
  -19   15   24     -0.40      0.00
    5   15   24      2.63      0.00
  -18   16   24     -1.34      0.00
    2   18   24     -0.55      0.00
    1   19   24     -3.44      0.00
  -14   20   24     -2.02      0.00
    0   20   24     -0.56      0.00
   -7   21   24      1.39      0.00
   -5   21   24      0.64      0.00
   -8   22   24      3.08      0.00
    9    1   25     -0.02      0.00
  -24    2   25      4.19      0.00
  -23    7   25     -0.24      0.00
    7    7   25      2.22      0.00
  -22   10   25      2.54      0.00
    6   12   25      4.36      0.00
    4   14   25     -1.19      0.00
  -19   15   25      1.46      0.00
  -18   16   25     -1.72      0.00
  -17   17   25     -0.87      0.00
  -15   17   25      2.14      0.00
  -16   18   25      3.45      0.00
  -14   18   25      4.89      0.00
    0   18   25     -2.73      0.00
  -13   19   25      4.09      0.00
  -11   19   25     -0.19      0.00
   -1   19   25     -1.37      0.00
  -12   20   25     -0.79      0.00
  -10   20   25      0.69      0.00
  -23    3   26      1.00      0.00
  -23    5   26      3.20      0.00
    6    6   26      0.56      0.00
  -22    8   26     -2.71      0.00
    5   11   26      1.68      0.00
  -20   12   26     -1.15      0.00
    0   14   26      3.53      0.00
    2   14   26     -5.67      0.00
   -1   17   26      1.63      0.00
  -14   18   26     -6.12      0.00
   -2   18   26     -0.74      0.00
  -11   19   26     -2.36      0.00
   -5   19   26      0.26      0.00
  -22    2   27     -3.81      0.00
    6    2   27      1.21      0.00
  -22    4   27      1.26      0.00
    6    4   27      1.59      0.00
  -20    8   27     -0.11      0.00
  -20   10   27     -4.16      0.00
    4   10   27     -3.22      0.00
   -1   13   27      2.05      0.00
    1   13   27      1.75      0.00
   -2   16   27     -2.64      0.00
  -13   17   27     -4.22      0.00
   -5   17   27      1.02      0.00
   -3   17   27     -2.34      0.00
  -10   18   27      0.46      0.00
   -8   18   27      2.28      0.00
   -6   18   27      1.16      0.00
  -21    1   28      1.78      0.00
    5    1   28     -0.15      0.00
  -21    3   28      1.22      0.00
  -21    5   28     -1.73      0.00
    3    5   28      1.81      0.00
    4    6   28      0.27      0.00
  -20    8   28      4.88      0.00
    2   10   28     -0.03      0.00
   -4   12   28     -5.33      0.00
   -2   12   28      2.25      0.00
  -17   13   28     -2.90      0.00
   -3   13   28      3.04      0.00
   -1   13   28     -1.17      0.00
   -4   14   28     -1.44      0.00
   -2   14   28      1.48      0.00
  -13   15   28      1.53      0.00
   -5   15   28      2.62      0.00
   -3   15   28      0.49      0.00
  -12   16   28     -2.95      0.00
  -10   16   28      2.83      0.00
   -6   16   28      0.48      0.00
    3    1   29     -0.10      0.00
  -20    2   29     -2.03      0.00
    3    3   29      0.31      0.00
  -20    4   29     -2.95      0.00
    2    4   29     -3.00      0.00
    2    6   29     -3.70      0.00
  -19    7   29      1.25      0.00
    1    9   29     -0.13      0.00
    0   10   29     -2.27      0.00
  -17   11   29      0.91      0.00
   -5   11   29      0.82      0.00
   -3   11   29      2.50      0.00
   -1   11   29      6.87      0.00
  -16   12   29     -4.37      0.00
   -8   12   29     -7.66      0.00
   -4   12   29     -8.04      0.00
   -2   12   29     -3.62      0.00
   -7   13   29     -1.94      0.00
   -5   13   29      0.65      0.00
   -3   13   29      3.71      0.00
  -12   14   29     -2.44      0.00
   -6   14   29     -0.08      0.00
   -9   15   29      1.13      0.00
   -7   15   29      2.73      0.00
  -19    1   30     -2.00      0.00
    1    1   30     -4.88      0.00
  -19    3   30     -2.76      0.00
    1    3   30     -1.81      0.00
    0    4   30      1.33      0.00
  -18    6   30      4.14      0.00
    0    6   30     -2.76      0.00
   -1    7   30     -8.61      0.00
   -2    8   30      4.62      0.00
   -3    9   30      1.37      0.00
   -6   10   30     -3.28      0.00
   -4   10   30      0.51      0.00
  -13   11   30      3.55      0.00
   -5   11   30      5.52      0.00
  -12   12   30      3.00      0.00
  -10   12   30     -3.03      0.00
   -6   12   30     -5.31      0.00
   -9   13   30      1.61      0.00
   -1    1   31     -0.05      0.00
   -2    2   31     -3.99      0.00
  -17    3   31      0.26      0.00
   -2    4   31     -4.63      0.00
  -16    6   31     -5.21      0.00
  -15    7   31      4.43      0.00
   -5    7   31     -2.73      0.00
   -3    7   31     -4.40      0.00
  -14    8   31     -4.59      0.00
   -6    8   31     -0.12      0.00
   -4    8   31      0.35      0.00
  -13    9   31      0.19      0.00
   -7    9   31     -1.03      0.00
   -5    9   31     -0.75      0.00
  -12   10   31      3.43      0.00
  -10   10   31      5.04      0.00
   -8   10   31     -2.51      0.00
   -8    0   32     -0.34      0.00
   -6    0   32      5.61      0.00
   -4    0   32      1.38      0.00
  -15    1   32      2.43      0.00
   -4    2   32     -3.03      0.00
  -15    3   32      5.98      0.00
   -5    3   32      0.42      0.00
  -14    4   32     -4.31      0.00
   -6    4   32     -2.18      0.00
  -13    5   32      2.19      0.00
   -7    5   32      1.60      0.00
  -12    6   32      2.05      0.00
   -8    6   32      3.31      0.00
  -11    7   32      3.55      0.00
   -9    7   32     -6.40      0.00
    0    0    0      0.00      0.00
# SQUEEZE RESULTS (Version = 260918)
# Note: Data are Listed for all Voids in the P1 Unit Cell
# i.e. Centre of Gravity, Solvent Accessible Volume,
# Recovered number of Electrons in the Void and
# Details about the Squeezed Material
loop_
  _platon_squeeze_void_nr
  _platon_squeeze_void_average_x
  _platon_squeeze_void_average_y
  _platon_squeeze_void_average_z
  _platon_squeeze_void_volume
  _platon_squeeze_void_count_electrons
  _platon_squeeze_void_content
   1  0.160  0.326 -0.020      5427      1769 ' '
# Missing Reflections Below sin(th)/lambda = 0.25
loop_
  _platon_missing_refln_index_h
  _platon_missing_refln_index_k
  _platon_missing_refln_index_l
  _platon_missing_refln_theta
    1    1    0     2.721
    0    2    0     3.390
    0    4    0     6.792
   -1    1    1     2.802
   -1    9    5    17.674
   -2    4    8    15.114
_platon_squeeze_void_probe_radius                  1.20
_platon_squeeze_details
)
TITL 180617b_sq       C 1 2/c 1    R = 0.06
CELL   22.2435   26.0724   26.5968     90.00    111.07     90.00
SPGR C2/c
# Solvent Accessible Volume =      5442
# Electrons Found in S.A.V. =      1768
# Note: Atoms in Void are Labelled as Cxxx and Qxxx for all Others
Q101 0.500 0.375 0.253 !      10.66 eA-3
C102 0.781 0.456 0.170 !       7.22 eA-3
C103 0.515 0.322 0.343 !       7.17 eA-3
C104 0.774 0.480 0.214 !       6.77 eA-3
C105 0.955 0.468 0.123 !       6.59 eA-3
C106 0.226 0.407 0.329 !       6.11 eA-3
C107 0.885 0.280 0.412 !       5.81 eA-3
C108 0.931 0.236 0.426 !       5.42 eA-3
C109 0.899 0.329 0.388 !       5.10 eA-3
C110 0.265 0.303 0.029 !       4.02 eA-3
C111 0.210 0.311 0.083 !       3.57 eA-3
C112 0.948 0.440 0.078 !       3.56 eA-3
C113 0.484 0.057 0.674 !       3.49 eA-3
C114 0.244 0.350 0.010 !       3.38 eA-3
C115 0.329 0.227 0.918 !       3.37 eA-3
C116 0.767 0.020 0.285 !       3.15 eA-3
C117 0.460 0.182 0.088 !       3.07 eA-3
C118 0.806 0.452 0.276 !       3.00 eA-3
C119 0.514 0.210 0.174 !       2.85 eA-3
C120 0.322 0.327 0.082 !       2.60 eA-3
C121 0.983 0.437 0.341 !       2.54 eA-3
C122 0.751 0.473 0.242 !       2.49 eA-3
C123 0.688 0.222 0.471 !       2.36 eA-3
C124 0.548 0.246 0.408 !       2.25 eA-3
C125 0.486 0.183 0.140 !       2.24 eA-3
C126 0.975 0.426 0.221 !       2.24 eA-3
C127 0.698 0.037 0.295 !       2.22 eA-3
C128 0.500 0.273 0.362 !       2.16 eA-3
C129 0.687 0.299 0.502 !       2.04 eA-3
C130 0.881 0.193 0.567 !       2.04 eA-3
C131 0.180 0.203 0.996 !       2.04 eA-3
C132 0.725 0.224 0.482 !       2.02 eA-3
C133 0.960 0.460 0.327 !       2.00 eA-3
C134 0.952 0.483 0.586 !       1.92 eA-3
Q135 0.273 0.240 0.055 !       1.90 eA-3
C136 0.937 0.500 0.671 !       1.89 eA-3
C137 0.923 0.438 0.154 !       1.87 eA-3
C138 0.492 0.005 0.349 !       1.80 eA-3
C139 0.429 0.081 0.180 !       1.78 eA-3
C140 0.422 0.217 0.065 !       1.66 eA-3
C141 0.079 0.361 0.934 !       1.47 eA-3
C142 0.393 0.062 0.210 !       1.46 eA-3
C143 0.383 0.006 0.593 !       1.43 eA-3
C144 0.580 0.075 0.372 !       1.39 eA-3
C145 0.501 0.236 0.101 !       1.34 eA-3
C146 0.007 0.362 0.835 !       1.23 eA-3
C147 0.457 0.094 0.109 !       1.16 eA-3
C148 0.503 0.102 0.264 !       1.12 eA-3
C149 0.803 0.250 0.484 !       1.09 eA-3
C150 0.553 0.156 0.493 !       1.07 eA-3
C151 0.045 0.308 0.005 !       0.92 eA-3
C152 0.852 0.459 0.610 !       0.91 eA-3
C153 0.019 0.326 0.973 !       0.90 eA-3
C154 0.093 0.314 0.953 !       0.80 eA-3
Q155 0.274 0.191 0.235 !       0.75 eA-3
C156 0.565 0.271 0.132 !       0.74 eA-3
Q157 0.749 0.029 0.866 !       0.66 eA-3
Q158 0.885 0.227 0.026 !       0.65 eA-3
C159 0.492 0.147 0.066 !       0.65 eA-3
C160 0.489 0.170 0.415 !       0.64 eA-3
Q161 0.173 0.233 0.074 !       0.63 eA-3
Q162 0.674 0.244 0.101 !       0.62 eA-3
Q163 0.947 0.271 0.251 !       0.59 eA-3
C164 0.281 0.280 0.072 !       0.51 eA-3
Q165 0.022 0.080 0.752 !       0.50 eA-3
)
;
_shelx_fab_checksum              27033
_platon_squeeze_void_probe_radius 1.20
_olex2_submission_special_instructions 'No special instructions were received'
_oxdiff_exptl_absorpt_empirical_details
;
Empirical correction (ABSPACK) includes:
- Absorption correction using spherical harmonics
- Frame scaling
;
_oxdiff_exptl_absorpt_empirical_full_max 2.701
_oxdiff_exptl_absorpt_empirical_full_min 0.705
loop_
_space_group_symop_operation_xyz
'x, y, z'
'-x, y, -z+1/2'
'x+1/2, y+1/2, z'
'-x+1/2, y+1/2, -z+1/2'
'-x, -y, -z'
'x, -y, z-1/2'
'-x+1/2, -y+1/2, -z'
'x+1/2, -y+1/2, z-1/2'
loop_
_atom_site_label
_atom_site_type_symbol
_atom_site_fract_x
_atom_site_fract_y
_atom_site_fract_z
_atom_site_U_iso_or_equiv
_atom_site_adp_type
_atom_site_occupancy
_atom_site_site_symmetry_order
_atom_site_calc_flag
_atom_site_refinement_flags_posn
_atom_site_refinement_flags_adp
_atom_site_refinement_flags_occupancy
_atom_site_disorder_assembly
_atom_site_disorder_group
Cu01 Cu 0.500000 0.52637(2) 0.750000 0.02153(9) Uani 1 2 d S T P . .
Cu02 Cu 0.42936(2) 0.45183(2) 0.94144(2) 0.02684(8) Uani 1 1 d . . . . .
Cu03 Cu 0.500000 0.22627(2) 0.750000 0.03495(11) Uani 1 2 d S T P . .
Cu04 Cu 0.34601(2) 0.29300(2) 0.51760(2) 0.03571(9) Uani 1 1 d . . . . .
Cu05 Cu 0.22345(2) 0.46415(2) 0.61693(2) 0.03671(9) Uani 1 1 d . . . . .
Cu06 Cu 0.25505(2) 0.28671(2) 0.78535(2) 0.04195(10) Uani 1 1 d . . . . .
Si07 Si 0.500000 0.37442(3) 0.750000 0.02810(16) Uani 1 2 d S T P . .
F008 F 0.500000 0.43901(6) 0.750000 0.0294(3) Uani 1 2 d S T P A .
F009 F 0.500000 0.30957(6) 0.750000 0.0363(4) Uani 1 2 d S T P A .
N00A N 0.47372(8) 0.52350(6) 0.81565(6) 0.0247(3) Uani 1 1 d . . . . .
N00B N 0.40769(8) 0.52599(6) 0.70354(6) 0.0255(3) Uani 1 1 d . . . . .
N00C N 0.45109(8) 0.48741(6) 0.88313(6) 0.0264(3) Uani 1 1 d . . . . .
N00D N 0.49663(8) 0.39672(6) 0.96341(7) 0.0289(4) Uani 1 1 d . . . . .
N00E N 0.57243(9) 0.33542(7) 0.98544(7) 0.0340(4) Uani 1 1 d . . . . .
N00F N 0.42437(9) 0.43480(7) 1.01466(7) 0.0324(4) Uani 1 1 d . . . . .
N00G N 0.38009(9) 0.51762(7) 0.93859(7) 0.0333(4) Uani 1 1 d . . . . .
N00H N 0.29912(9) 0.35095(7) 0.53793(7) 0.0348(4) Uani 1 1 d . . . . .
N00I N 0.22048(9) 0.40722(8) 0.66745(8) 0.0372(4) Uani 1 1 d . . . . .
N00K N 0.30921(8) 0.49522(7) 0.65852(7) 0.0313(4) Uani 1 1 d . . . . .
N00L N 0.24926(9) 0.41545(7) 0.56340(7) 0.0361(4) Uani 1 1 d . . . . .
N00M N 0.29995(10) 0.34007(7) 0.83928(8) 0.0379(4) Uani 1 1 d . . . . .
N00N N 0.35120(9) 0.40286(7) 0.89595(7) 0.0370(4) Uani 1 1 d . . . . .
N00O N 0.39031(9) 0.25829(7) 0.58930(7) 0.0358(4) Uani 1 1 d . . . . .
N00P N 0.45111(10) 0.22663(7) 0.66974(7) 0.0374(4) Uani 1 1 d . . . . .
N00Q N 0.41696(10) 0.22302(7) 0.76068(7) 0.0384(4) Uani 1 1 d . . . . .
N00R N 0.33064(10) 0.25497(7) 0.77412(8) 0.0394(4) Uani 1 1 d . . . . .
N00S N 0.20951(9) 0.53380(8) 0.58078(8) 0.0441(5) Uani 1 1 d . . . . .
N00T N 0.22015(10) 0.34024(8) 0.72039(8) 0.0408(4) Uani 1 1 d . . . . .
C00U C 0.53868(10) 0.37003(8) 0.94857(8) 0.0304(4) Uani 1 1 d . . . . .
H00U H 0.544130 0.374886 0.915833 0.037 Uiso 1 1 calc R . . . .
N00V N 0.36362(11) 0.22371(8) 0.49006(8) 0.0449(5) Uani 1 1 d . . . . .
N00W N 0.28121(11) 0.31022(9) 0.44332(8) 0.0464(5) Uani 1 1 d . . . . .
N00X N 0.12547(9) 0.45497(9) 0.59121(9) 0.0482(5) Uani 1 1 d . . . . .
C00Y C 0.42167(10) 0.53517(8) 0.87194(8) 0.0294(4) Uani 1 1 d . . . . .
C00Z C 0.48114(9) 0.48255(7) 0.84841(7) 0.0253(4) Uani 1 1 d . . . . .
H00Z H 0.505011 0.453725 0.846793 0.030 Uiso 1 1 calc R . . . .
C010 C 0.50308(11) 0.37703(8) 1.01363(8) 0.0333(5) Uani 1 1 d . . . . .
C011 C 0.38414(11) 0.54956(8) 0.90350(9) 0.0362(5) Uani 1 1 d . . . . .
H011 H 0.363364 0.581128 0.898633 0.043 Uiso 1 1 calc R . . . .
C012 C 0.37269(9) 0.56435(8) 0.67155(8) 0.0282(4) Uani 1 1 d . . . . .
H012 H 0.387154 0.597401 0.669152 0.034 Uiso 1 1 calc R . . . .
N013 N 0.21323(12) 0.21940(9) 0.75201(11) 0.0571(6) Uani 1 1 d . . . . .
C014 C 0.31215(10) 0.54551(8) 0.64342(8) 0.0299(4) Uani 1 1 d . . . . .
C015 C 0.35084(11) 0.37124(8) 0.85599(9) 0.0330(4) Uani 1 1 d . . . . .
H015 H 0.383045 0.371089 0.841362 0.040 Uiso 1 1 calc R . . . .
C016 C 0.43585(10) 0.55666(8) 0.83045(8) 0.0289(4) Uani 1 1 d . . . . .
H016 H 0.421894 0.588557 0.815013 0.035 Uiso 1 1 calc R . . . .
C017 C 0.29697(11) 0.38066(8) 0.57832(9) 0.0345(5) Uani 1 1 d . . . . .
H017 H 0.325904 0.377490 0.613539 0.041 Uiso 1 1 calc R . . . .
C018 C 0.25652(10) 0.56527(9) 0.60133(9) 0.0380(5) Uani 1 1 d . . . . .
H018 H 0.254528 0.599021 0.589505 0.046 Uiso 1 1 calc R . . . .
C019 C 0.46293(11) 0.39905(9) 1.03947(9) 0.0367(5) Uani 1 1 d . . . . .
H019 H 0.464792 0.387766 1.073163 0.044 Uiso 1 1 calc R . . . .
C01A C 0.36748(9) 0.48515(8) 0.69441(8) 0.0289(4) Uani 1 1 d . . . . .
H01A H 0.379308 0.453572 0.711363 0.035 Uiso 1 1 calc R . . . .
C01B C 0.38118(12) 0.45740(9) 1.03916(9) 0.0378(5) Uani 1 1 d . . . . .
H01B H 0.397954 0.450602 1.077582 0.045 Uiso 1 1 calc R . . . .
H01C H 0.339139 0.441358 1.023977 0.045 Uiso 1 1 calc R . . . .
C01C C 0.41115(13) 0.20982(8) 0.58236(9) 0.0392(5) Uani 1 1 d . . . . .
C01D C 0.24865(11) 0.36894(9) 0.49348(9) 0.0381(5) Uani 1 1 d . . . . .
C01E C 0.54966(12) 0.33968(9) 1.02646(9) 0.0380(5) Uani 1 1 d . . . . .
H01E H 0.563433 0.320426 1.058001 0.046 Uiso 1 1 calc R . . . .
N01F N 0.18739(12) 0.29536(10) 0.81946(11) 0.0603(7) Uani 1 1 d . . . . .
C01G C 0.21854(11) 0.40785(10) 0.50943(9) 0.0403(5) Uani 1 1 d . . . . .
H01G H 0.183018 0.426139 0.487219 0.048 Uiso 1 1 calc R . . . .
C01H C 0.37411(12) 0.51471(9) 1.02991(9) 0.0388(5) Uani 1 1 d . . . . .
H01D H 0.416573 0.530212 1.043635 0.047 Uiso 1 1 calc R . . . .
H01F H 0.349608 0.528468 1.050525 0.047 Uiso 1 1 calc R . . . .
C01I C 0.39098(12) 0.26290(8) 0.77831(9) 0.0367(5) Uani 1 1 d . . . . .
H01I H 0.413366 0.292959 0.792050 0.044 Uiso 1 1 calc R . . . .
C01J C 0.41527(11) 0.26635(8) 0.64192(8) 0.0353(5) Uani 1 1 d . . . . .
H01J H 0.408810 0.296370 0.658181 0.042 Uiso 1 1 calc R . . . .
C01K C 0.25551(11) 0.37445(9) 0.70437(9) 0.0371(5) Uani 1 1 d . . . . .
H01K H 0.300311 0.374851 0.718076 0.045 Uiso 1 1 calc R . . . .
C01L C 0.15717(11) 0.39349(10) 0.65871(10) 0.0427(5) Uani 1 1 d . . . . .
F01N F 0.48330(16) 0.37050(9) 0.80663(11) 0.0410(6) Uani 0.5 1 d . . . A 1
C01O C 0.34128(12) 0.53020(10) 0.97146(10) 0.0431(6) Uani 1 1 d . . . . .
H01H H 0.300044 0.512860 0.956708 0.052 Uiso 1 1 calc R . . . .
H01L H 0.333151 0.566836 0.969575 0.052 Uiso 1 1 calc R . . . .
C01P C 0.15811(12) 0.35290(10) 0.69137(11) 0.0468(6) Uani 1 1 d . . . . .
H01P H 0.121946 0.336491 0.693427 0.056 Uiso 1 1 calc R . . . .
C01Q C 0.44824(13) 0.19088(9) 0.63189(10) 0.0431(6) Uani 1 1 d . . . . .
H01Q H 0.468093 0.158911 0.638448 0.052 Uiso 1 1 calc R . . . .
C01R C 0.36880(13) 0.18712(9) 0.74363(10) 0.0424(5) Uani 1 1 d . . . . .
H01R H 0.371723 0.155208 0.729052 0.051 Uiso 1 1 calc R . . . .
C01S C 0.31595(13) 0.20616(9) 0.75170(10) 0.0417(5) Uani 1 1 d . . . . .
F01T F 0.42055(12) 0.37081(9) 0.71270(12) 0.0416(6) Uani 0.5 1 d . . . A 1
C01U C 0.24133(13) 0.34511(11) 0.44300(9) 0.0453(6) Uani 1 1 d . . . . .
H01U H 0.208610 0.354867 0.411269 0.054 Uiso 1 1 calc R . . . .
C01V C 0.26483(14) 0.35260(12) 0.87070(11) 0.0542(7) Uani 1 1 d . . . . .
C01W C 0.39377(14) 0.19271(9) 0.52754(10) 0.0459(6) Uani 1 1 d . . . . .
H01W H 0.404299 0.159893 0.519739 0.055 Uiso 1 1 calc R . . . .
C01X C 0.25186(14) 0.18904(10) 0.74138(11) 0.0530(7) Uani 1 1 d . . . . .
H01X H 0.238578 0.156571 0.727271 0.064 Uiso 1 1 calc R . . . .
F01Y F 0.45446(17) 0.37802(10) 0.68447(11) 0.0508(8) Uani 0.5 1 d . . . A 2
C020 C 0.10828(12) 0.42110(11) 0.61785(12) 0.0498(6) Uani 1 1 d . . . . .
H020 H 0.064909 0.414546 0.610815 0.060 Uiso 1 1 calc R . . . .
C021 C 0.29726(15) 0.39059(12) 0.90569(12) 0.0585(8) Uani 1 1 d . . . . .
H021 H 0.284257 0.405499 0.931878 0.070 Uiso 1 1 calc R . . . .
F022 F 0.43339(16) 0.37769(10) 0.76568(15) 0.0523(8) Uani 0.5 1 d . . . A 2
C023 C 0.28032(16) 0.22888(12) 0.39780(11) 0.0622(8) Uani 1 1 d . . . . .
H02A H 0.268825 0.214028 0.362129 0.075 Uiso 1 1 calc R . . . .
H02B H 0.248233 0.217919 0.412396 0.075 Uiso 1 1 calc R . . . .
C025 C 0.27729(16) 0.28581(12) 0.39245(10) 0.0576(8) Uani 1 1 d . . . . .
H02C H 0.312605 0.297741 0.382239 0.069 Uiso 1 1 calc R . . . .
H02D H 0.237253 0.295578 0.364221 0.069 Uiso 1 1 calc R . . . .
C026 C 0.15153(12) 0.55176(12) 0.53684(13) 0.0591(8) Uani 1 1 d . . . . .
H02E H 0.148545 0.534993 0.503473 0.071 Uiso 1 1 calc R . . . .
H02F H 0.154517 0.588443 0.532114 0.071 Uiso 1 1 calc R . . . .
C027 C 0.34540(17) 0.20747(11) 0.43324(11) 0.0576(8) Uani 1 1 d . . . . .
H02G H 0.343924 0.170311 0.431448 0.069 Uiso 1 1 calc R . . . .
H02H H 0.378058 0.218973 0.419540 0.069 Uiso 1 1 calc R . . . .
C029 C 0.07669(12) 0.48346(12) 0.54801(13) 0.0584(7) Uani 1 1 d . . . . .
H02I H 0.035014 0.478880 0.551353 0.070 Uiso 1 1 calc R . . . .
H02J H 0.074072 0.469536 0.513464 0.070 Uiso 1 1 calc R . . . .
C02B C 0.09175(12) 0.53997(12) 0.54953(14) 0.0627(8) Uani 1 1 d . . . . .
H02K H 0.097580 0.553198 0.585065 0.075 Uiso 1 1 calc R . . . .
H02L H 0.055270 0.557649 0.523751 0.075 Uiso 1 1 calc R . . . .
C02C C 0.20470(17) 0.32700(14) 0.85881(14) 0.0739(11) Uani 1 1 d . . . . .
H02M H 0.178899 0.333100 0.879011 0.089 Uiso 1 1 calc R . . . .
C02E C 0.12462(18) 0.26912(15) 0.80386(17) 0.0837(13) Uani 1 1 d . . . . .
H02N H 0.094394 0.285349 0.771957 0.100 Uiso 1 1 calc R . . . .
H02O H 0.107787 0.272406 0.832665 0.100 Uiso 1 1 calc R . . . .
C02G C 0.14698(18) 0.20413(15) 0.74247(19) 0.0854(13) Uani 1 1 d . . . . .
H02P H 0.141381 0.168153 0.732572 0.102 Uiso 1 1 calc R . . . .
H02Q H 0.117837 0.223916 0.712811 0.102 Uiso 1 1 calc R . . . .
C02I C 0.1308(2) 0.21279(16) 0.7925(2) 0.0989(15) Uani 1 1 d . . . . .
H02R H 0.164255 0.197545 0.823169 0.119 Uiso 1 1 calc R . . . .
H02S H 0.090609 0.195563 0.788118 0.119 Uiso 1 1 calc R . . . .
loop_
_atom_site_aniso_label
_atom_site_aniso_U_11
_atom_site_aniso_U_22
_atom_site_aniso_U_33
_atom_site_aniso_U_23
_atom_site_aniso_U_13
_atom_site_aniso_U_12
Cu01 0.02106(18) 0.02079(19) 0.02026(18) 0.000 0.00442(15) 0.000
Cu02 0.03444(16) 0.02476(15) 0.02393(14) -0.00184(11) 0.01365(12) 0.00351(11)
Cu03 0.0550(3) 0.0223(2) 0.0313(2) 0.000 0.0200(2) 0.000
Cu04 0.04848(19) 0.03434(18) 0.02597(16) -0.00944(12) 0.01540(14) -0.01535(14)
Cu05 0.02465(16) 0.03975(18) 0.03903(18) -0.00588(14) 0.00333(13) -0.00486(13)
Cu06 0.0511(2) 0.03728(19) 0.0464(2) -0.01528(15) 0.02834(17) -0.02038(15)
Si07 0.0369(4) 0.0241(4) 0.0243(4) 0.000 0.0122(3) 0.000
F008 0.0358(9) 0.0244(8) 0.0282(8) 0.000 0.0117(7) 0.000
F009 0.0516(10) 0.0249(8) 0.0339(9) 0.000 0.0174(8) 0.000
N00A 0.0259(8) 0.0231(8) 0.0232(8) -0.0016(6) 0.0063(6) 0.0025(6)
N00B 0.0250(8) 0.0279(8) 0.0219(8) -0.0002(6) 0.0063(6) -0.0002(6)
N00C 0.0322(8) 0.0224(8) 0.0244(8) -0.0016(6) 0.0099(7) 0.0037(6)
N00D 0.0396(9) 0.0252(8) 0.0252(8) 0.0015(6) 0.0158(7) 0.0031(7)
N00E 0.0427(10) 0.0319(9) 0.0300(9) 0.0072(7) 0.0161(8) 0.0106(8)
N00F 0.0407(10) 0.0324(9) 0.0291(9) -0.0044(7) 0.0186(8) 0.0007(8)
N00G 0.0375(9) 0.0352(10) 0.0310(9) -0.0013(7) 0.0171(8) 0.0071(8)
N00H 0.0386(10) 0.0365(10) 0.0290(9) -0.0020(7) 0.0117(8) -0.0131(8)
N00I 0.0307(9) 0.0415(11) 0.0389(10) -0.0122(8) 0.0117(8) -0.0103(8)
N00K 0.0236(8) 0.0330(9) 0.0332(9) -0.0020(7) 0.0052(7) -0.0017(7)
N00L 0.0350(9) 0.0354(10) 0.0344(9) -0.0017(8) 0.0084(8) -0.0096(8)
N00M 0.0464(11) 0.0372(10) 0.0361(10) -0.0086(8) 0.0222(9) -0.0106(8)
N00N 0.0423(10) 0.0383(10) 0.0342(9) -0.0101(8) 0.0182(8) -0.0078(8)
N00O 0.0518(11) 0.0268(9) 0.0326(9) -0.0076(7) 0.0199(8) -0.0097(8)
N00P 0.0566(12) 0.0261(9) 0.0347(10) -0.0050(7) 0.0226(9) -0.0035(8)
N00Q 0.0579(12) 0.0269(9) 0.0337(10) -0.0034(7) 0.0206(9) -0.0074(8)
N00R 0.0559(12) 0.0306(10) 0.0372(10) -0.0085(8) 0.0235(9) -0.0156(9)
N00S 0.0282(9) 0.0480(12) 0.0427(11) -0.0002(9) -0.0035(8) 0.0028(8)
N00T 0.0427(11) 0.0405(11) 0.0439(11) -0.0136(8) 0.0214(9) -0.0142(8)
C00U 0.0393(11) 0.0274(10) 0.0279(10) 0.0036(8) 0.0161(9) 0.0067(8)
N00V 0.0695(14) 0.0378(11) 0.0329(10) -0.0144(9) 0.0248(10) -0.0219(10)
N00W 0.0539(12) 0.0573(13) 0.0273(10) -0.0111(9) 0.0139(9) -0.0180(11)
N00X 0.0298(10) 0.0559(13) 0.0487(12) -0.0114(10) 0.0016(9) -0.0060(9)
C00Y 0.0337(10) 0.0253(10) 0.0290(10) 0.0001(8) 0.0110(8) 0.0079(8)
C00Z 0.0303(10) 0.0243(9) 0.0220(9) 0.0000(7) 0.0102(8) 0.0034(7)
C010 0.0421(12) 0.0334(11) 0.0266(10) 0.0035(8) 0.0151(9) 0.0038(9)
C011 0.0402(12) 0.0309(11) 0.0393(12) 0.0014(9) 0.0163(10) 0.0115(9)
C012 0.0285(10) 0.0286(10) 0.0246(9) 0.0031(8) 0.0062(8) 0.0011(8)
N013 0.0601(14) 0.0489(13) 0.0711(16) -0.0244(11) 0.0342(12) -0.0282(11)
C014 0.0241(9) 0.0342(11) 0.0282(10) -0.0010(8) 0.0056(8) 0.0015(8)
C015 0.0389(11) 0.0308(11) 0.0324(11) -0.0056(8) 0.0163(9) -0.0071(9)
C016 0.0337(10) 0.0226(9) 0.0303(10) 0.0020(8) 0.0114(8) 0.0070(8)
C017 0.0393(11) 0.0341(11) 0.0299(10) -0.0051(8) 0.0123(9) -0.0109(9)
C018 0.0303(11) 0.0391(12) 0.0369(12) 0.0020(9) 0.0030(9) 0.0028(9)
C019 0.0491(13) 0.0390(12) 0.0267(10) 0.0007(9) 0.0193(10) 0.0026(10)
C01A 0.0238(9) 0.0286(10) 0.0319(10) -0.0005(8) 0.0073(8) -0.0028(8)
C01B 0.0452(12) 0.0435(13) 0.0332(11) -0.0061(9) 0.0245(10) -0.0001(10)
C01C 0.0583(14) 0.0284(11) 0.0362(12) -0.0099(9) 0.0233(11) -0.0114(10)
C01D 0.0384(12) 0.0431(13) 0.0296(11) 0.0010(9) 0.0085(9) -0.0157(10)
C01E 0.0503(13) 0.0363(12) 0.0299(11) 0.0083(9) 0.0176(10) 0.0090(10)
N01F 0.0649(15) 0.0654(15) 0.0688(15) -0.0278(12) 0.0459(13) -0.0366(12)
C01G 0.0362(12) 0.0450(13) 0.0363(12) 0.0018(10) 0.0088(10) -0.0102(10)
C01H 0.0457(13) 0.0409(12) 0.0376(12) -0.0096(9) 0.0244(10) 0.0033(10)
C01I 0.0530(13) 0.0277(11) 0.0347(11) -0.0070(9) 0.0223(10) -0.0113(9)
C01J 0.0533(13) 0.0273(10) 0.0283(10) -0.0053(8) 0.0182(10) -0.0033(9)
C01K 0.0363(11) 0.0392(12) 0.0369(12) -0.0107(9) 0.0143(10) -0.0111(9)
C01L 0.0311(11) 0.0513(14) 0.0462(13) -0.0167(11) 0.0145(10) -0.0111(10)
F01N 0.075(2) 0.0227(12) 0.0376(14) -0.0031(10) 0.0344(15) -0.0040(12)
C01O 0.0473(13) 0.0455(13) 0.0474(13) 0.0018(11) 0.0301(11) 0.0150(11)
C01P 0.0403(13) 0.0520(15) 0.0530(14) -0.0183(12) 0.0227(11) -0.0181(11)
C01Q 0.0661(16) 0.0253(11) 0.0460(13) -0.0085(10) 0.0300(12) -0.0045(10)
C01R 0.0616(15) 0.0269(11) 0.0408(12) -0.0058(9) 0.0211(11) -0.0085(10)
C01S 0.0618(15) 0.0269(11) 0.0383(12) -0.0067(9) 0.0204(11) -0.0140(10)
F01T 0.0362(14) 0.0233(12) 0.0548(17) -0.0069(11) 0.0037(12) -0.0017(10)
C01U 0.0459(13) 0.0580(16) 0.0291(11) -0.0019(10) 0.0102(10) -0.0176(12)
C01V 0.0630(17) 0.0634(17) 0.0516(15) -0.0219(13) 0.0391(14) -0.0271(14)
C01W 0.0716(17) 0.0299(12) 0.0439(14) -0.0166(10) 0.0300(13) -0.0155(11)
C01X 0.0696(18) 0.0376(13) 0.0565(16) -0.0158(12) 0.0283(14) -0.0225(13)
F01Y 0.084(2) 0.0247(13) 0.0295(14) -0.0021(10) 0.0036(14) -0.0067(13)
C020 0.0322(12) 0.0563(16) 0.0574(16) -0.0162(13) 0.0119(11) -0.0103(11)
C021 0.0646(17) 0.0723(19) 0.0539(16) -0.0311(14) 0.0397(14) -0.0276(15)
F022 0.0626(19) 0.0273(14) 0.085(2) 0.0016(14) 0.0490(19) -0.0037(13)
C023 0.087(2) 0.0696(19) 0.0335(13) -0.0202(13) 0.0257(14) -0.0403(17)
C025 0.0711(18) 0.0724(19) 0.0303(12) -0.0134(12) 0.0193(12) -0.0263(15)
C026 0.0340(13) 0.0584(17) 0.0607(17) 0.0051(14) -0.0122(12) 0.0012(12)
C027 0.096(2) 0.0474(15) 0.0402(14) -0.0231(11) 0.0372(15) -0.0254(15)
C029 0.0259(12) 0.0691(19) 0.0620(17) -0.0071(14) -0.0063(11) -0.0020(12)
C02B 0.0294(12) 0.0627(18) 0.075(2) -0.0054(15) -0.0062(13) 0.0065(12)
C02C 0.079(2) 0.091(2) 0.079(2) -0.0433(19) 0.0607(19) -0.0482(19)
C02E 0.079(2) 0.096(3) 0.107(3) -0.050(2) 0.071(2) -0.055(2)
C02G 0.073(2) 0.071(2) 0.130(3) -0.060(2) 0.058(2) -0.0473(18)
C02I 0.100(3) 0.088(3) 0.143(4) -0.046(3) 0.085(3) -0.067(2)
loop_
_atom_type_symbol
_atom_type_description
_atom_type_scat_dispersion_real
_atom_type_scat_dispersion_imag
_atom_type_scat_source
C C 0.0181 0.0091 'International Tables Vol C Tables 4.2.6.8 and 6.1.1.4'
H H 0.0000 0.0000 'International Tables Vol C Tables 4.2.6.8 and 6.1.1.4'
Cu Cu -1.9646 0.5888 'International Tables Vol C Tables 4.2.6.8 and 6.1.1.4'
F F 0.0727 0.0534 'International Tables Vol C Tables 4.2.6.8 and 6.1.1.4'
N N 0.0311 0.0180 'International Tables Vol C Tables 4.2.6.8 and 6.1.1.4'
Si Si 0.2541 0.3302 'International Tables Vol C Tables 4.2.6.8 and 6.1.1.4'
loop_
_geom_angle_atom_site_label_1
_geom_angle_atom_site_label_2
_geom_angle_atom_site_label_3
_geom_angle
_geom_angle_site_symmetry_1
_geom_angle_site_symmetry_3
N00A Cu01 F008 87.89(5) . .
N00A Cu01 F008 87.89(5) 2_656 .
N00A Cu01 N00A 175.78(9) . 2_656
N00B Cu01 F008 89.72(5) . .
N00B Cu01 F008 89.72(5) 2_656 .
N00B Cu01 N00A 91.01(6) 2_656 .
N00B Cu01 N00A 88.97(6) 2_656 2_656
N00B Cu01 N00A 88.97(6) . .
N00B Cu01 N00A 91.01(6) . 2_656
N00B Cu01 N00B 179.44(10) . 2_656
N00C Cu02 N00F 161.52(7) . .
N00C Cu02 N00G 81.78(7) . .
N00C Cu02 N00N 102.15(7) . .
N00D Cu02 N00C 101.22(7) . .
N00D Cu02 N00F 81.76(7) . .
N00D Cu02 N00G 163.11(7) . .
N00D Cu02 N00N 96.11(7) . .
N00F Cu02 N00N 95.60(7) . .
N00G Cu02 N00F 90.32(7) . .
N00G Cu02 N00N 99.51(8) . .
N00P Cu03 F009 89.73(5) 2_656 .
N00P Cu03 F009 89.73(5) . .
N00P Cu03 N00P 179.46(11) . 2_656
N00Q Cu03 F009 92.46(5) . .
N00Q Cu03 F009 92.46(5) 2_656 .
N00Q Cu03 N00P 88.63(8) 2_656 2_656
N00Q Cu03 N00P 91.40(8) . 2_656
N00Q Cu03 N00P 88.63(8) . .
N00Q Cu03 N00P 91.40(8) 2_656 .
N00Q Cu03 N00Q 175.07(11) 2_656 .
N00H Cu04 N00E 98.59(7) . 2_656
N00H Cu04 N00O 101.91(7) . .
N00H Cu04 N00V 160.79(8) . .
N00H Cu04 N00W 80.83(8) . .
N00O Cu04 N00E 97.71(7) . 2_656
N00O Cu04 N00V 81.41(8) . .
N00O Cu04 N00W 162.09(8) . .
N00V Cu04 N00E 99.70(8) . 2_656
N00W Cu04 N00E 99.37(8) . 2_656
N00W Cu04 N00V 90.42(9) . .
N00I Cu05 N00L 95.02(8) . .
N00I Cu05 N00S 159.85(9) . .
N00I Cu05 N00X 81.43(9) . .
N00K Cu05 N00I 100.51(7) . .
N00K Cu05 N00L 100.25(7) . .
N00K Cu05 N00S 81.51(7) . .
N00K Cu05 N00X 156.91(8) . .
N00S Cu05 N00L 104.39(8) . .
N00S Cu05 N00X 89.05(9) . .
N00X Cu05 N00L 102.50(8) . .
N00M Cu06 N00R 99.60(8) . .
N00M Cu06 N00T 93.92(8) . .
N00M Cu06 N013 161.73(10) . .
N00M Cu06 N01F 82.00(8) . .
N00R Cu06 N00T 103.35(8) . .
N00R Cu06 N013 81.64(9) . .
N00R Cu06 N01F 156.24(10) . .
N013 Cu06 N00T 103.57(10) . .
N01F Cu06 N00T 100.17(10) . .
N01F Cu06 N013 89.67(9) . .
F008 Si07 F009 180.0 . .
F008 Si07 F01T 93.20(9) . 2_656
F008 Si07 F01T 93.20(9) . .
F01N Si07 F008 93.49(8) . .
F01N Si07 F008 93.49(8) 2_656 .
F01N Si07 F009 86.51(8) . .
F01N Si07 F009 86.51(8) 2_656 .
F01N Si07 F01N 173.02(17) 2_656 .
F01N Si07 F01T 89.54(16) 2_656 .
F01N Si07 F01T 89.55(16) . 2_656
F01N Si07 F01T 90.07(16) . .
F01N Si07 F01T 90.07(16) 2_656 2_656
F01T Si07 F009 86.80(9) 2_656 .
F01T Si07 F009 86.80(9) . .
F01T Si07 F01T 173.60(17) . 2_656
F01Y Si07 F008 86.79(9) 2_656 .
F01Y Si07 F008 86.79(9) . .
F01Y Si07 F009 93.21(9) 2_656 .
F01Y Si07 F009 93.21(9) . .
F01Y Si07 F01Y 173.57(18) 2_656 .
F01Y Si07 F022 89.78(19) . 2_656
F01Y Si07 F022 89.89(19) . .
F01Y Si07 F022 89.89(19) 2_656 2_656
F01Y Si07 F022 89.78(19) 2_656 .
F022 Si07 F008 87.10(9) 2_656 .
F022 Si07 F008 87.09(9) . .
F022 Si07 F009 92.90(9) 2_656 .
F022 Si07 F009 92.91(9) . .
F022 Si07 F022 174.19(19) . 2_656
Si07 F008 Cu01 180.0 . .
Si07 F009 Cu03 180.0 . .
C00Z N00A Cu01 125.26(13) . .
C00Z N00A C016 105.11(16) . .
C016 N00A Cu01 128.65(13) . .
C012 N00B Cu01 128.18(14) . .
C01A N00B Cu01 125.82(13) . .
C01A N00B C012 105.84(16) . .
C00Y N00C Cu02 110.73(13) . .
C00Z N00C Cu02 144.52(14) . .
C00Z N00C C00Y 104.66(16) . .
C00U N00D Cu02 144.78(14) . .
C00U N00D C010 104.51(17) . .
C010 N00D Cu02 110.70(13) . .
C00U N00E Cu04 125.09(14) . 2_656
C00U N00E C01E 104.96(17) . .
C01E N00E Cu04 129.30(14) . 2_656
C019 N00F Cu02 113.27(14) . .
C019 N00F C01B 119.32(18) . .
C01B N00F Cu02 127.37(15) . .
C011 N00G Cu02 113.61(14) . .
C011 N00G C01O 119.98(19) . .
C01O N00G Cu02 126.40(15) . .
C017 N00H Cu04 145.02(16) . .
C017 N00H C01D 103.7(2) . .
C01D N00H Cu04 111.28(15) . .
C01K N00I Cu05 144.79(16) . .
C01K N00I C01L 104.4(2) . .
C01L N00I Cu05 110.60(17) . .
C014 N00K Cu05 111.06(13) . .
C01A N00K Cu05 143.72(15) . .
C01A N00K C014 105.10(17) . .
C017 N00L Cu05 125.31(15) . .
C017 N00L C01G 104.9(2) . .
C01G N00L Cu05 129.42(16) . .
C015 N00M Cu06 144.32(16) . .
C015 N00M C01V 104.65(19) . .
C01V N00M Cu06 110.92(16) . .
C015 N00N Cu02 125.78(15) . .
C015 N00N C021 104.64(19) . .
C021 N00N Cu02 128.83(16) . .
C01C N00O Cu04 110.93(14) . .
C01J N00O Cu04 143.55(16) . .
C01J N00O C01C 104.66(19) . .
C01J N00P Cu03 124.72(14) . .
C01J N00P C01Q 105.00(19) . .
C01Q N00P Cu03 130.22(17) . .
C01I N00Q Cu03 123.84(15) . .
C01I N00Q C01R 105.0(2) . .
C01R N00Q Cu03 130.06(16) . .
C01I N00R Cu06 143.98(16) . .
C01I N00R C01S 104.7(2) . .
C01S N00R Cu06 111.29(16) . .
C018 N00S Cu05 114.07(16) . .
C018 N00S C026 118.8(2) . .
C026 N00S Cu05 127.09(17) . .
C01K N00T Cu06 126.90(16) . .
C01K N00T C01P 104.3(2) . .
C01P N00T Cu06 128.15(17) . .
N00D C00U N00E 113.65(18) . .
N00D C00U H00U 123.2 . .
N00E C00U H00U 123.2 . .
C01W N00V Cu04 113.38(15) . .
C01W N00V C027 119.5(2) . .
C027 N00V Cu04 127.09(19) . .
C01U N00W Cu04 114.51(16) . .
C01U N00W C025 119.6(2) . .
C025 N00W Cu04 125.8(2) . .
C020 N00X Cu05 113.02(18) . .
C020 N00X C029 120.1(2) . .
C029 N00X Cu05 126.89(19) . .
N00C C00Y C011 116.04(18) . .
C016 C00Y N00C 108.18(17) . .
C016 C00Y C011 135.75(19) . .
N00A C00Z H00Z 123.3 . .
N00C C00Z N00A 113.47(17) . .
N00C C00Z H00Z 123.3 . .
N00D C010 C019 116.58(19) . .
C01E C010 N00D 108.00(18) . .
C01E C010 C019 135.4(2) . .
N00G C011 C00Y 117.83(19) . .
N00G C011 H011 121.1 . .
C00Y C011 H011 121.1 . .
N00B C012 H012 126.1 . .
N00B C012 C014 107.81(18) . .
C014 C012 H012 126.1 . .
C01X N013 Cu06 113.20(18) . .
C01X N013 C02G 120.8(2) . .
C02G N013 Cu06 125.9(2) . .
N00K C014 C018 116.82(19) . .
C012 C014 N00K 108.71(17) . .
C012 C014 C018 134.3(2) . .
N00M C015 N00N 113.63(19) . .
N00M C015 H015 123.2 . .
N00N C015 H015 123.2 . .
N00A C016 C00Y 108.57(17) . .
N00A C016 H016 125.7 . .
C00Y C016 H016 125.7 . .
N00H C017 N00L 113.9(2) . .
N00H C017 H017 123.0 . .
N00L C017 H017 123.0 . .
N00S C018 C014 116.4(2) . .
N00S C018 H018 121.8 . .
C014 C018 H018 121.8 . .
N00F C019 C010 117.68(19) . .
N00F C019 H019 121.2 . .
C010 C019 H019 121.2 . .
N00B C01A H01A 123.7 . .
N00K C01A N00B 112.54(18) . .
N00K C01A H01A 123.7 . .
N00F C01B H01B 109.3 . .
N00F C01B H01C 109.3 . .
N00F C01B C01H 111.81(18) . .
H01B C01B H01C 107.9 . .
C01H C01B H01B 109.3 . .
C01H C01B H01C 109.3 . .
N00O C01C C01W 116.0(2) . .
C01Q C01C N00O 108.43(19) . .
C01Q C01C C01W 135.4(2) . .
N00H C01D C01U 115.8(2) . .
C01G C01D N00H 108.9(2) . .
C01G C01D C01U 135.2(2) . .
N00E C01E C010 108.88(19) . .
N00E C01E H01E 125.6 . .
C010 C01E H01E 125.6 . .
C02C N01F Cu06 112.59(18) . .
C02C N01F C02E 120.4(2) . .
C02E N01F Cu06 127.02(19) . .
N00L C01G C01D 108.6(2) . .
N00L C01G H01G 125.7 . .
C01D C01G H01G 125.7 . .
C01B C01H H01D 108.7 . .
C01B C01H H01F 108.7 . .
C01B C01H C01O 114.4(2) . .
H01D C01H H01F 107.6 . .
C01O C01H H01D 108.7 . .
C01O C01H H01F 108.7 . .
N00Q C01I H01I 123.3 . .
N00R C01I N00Q 113.44(19) . .
N00R C01I H01I 123.3 . .
N00O C01J N00P 113.41(19) . .
N00O C01J H01J 123.3 . .
N00P C01J H01J 123.3 . .
N00I C01K N00T 113.9(2) . .
N00I C01K H01K 123.1 . .
N00T C01K H01K 123.1 . .
N00I C01L C020 116.6(2) . .
C01P C01L N00I 108.1(2) . .
C01P C01L C020 135.2(2) . .
N00G C01O C01H 112.41(19) . .
N00G C01O H01H 109.1 . .
N00G C01O H01L 109.1 . .
C01H C01O H01H 109.1 . .
C01H C01O H01L 109.1 . .
H01H C01O H01L 107.9 . .
N00T C01P C01L 109.3(2) . .
N00T C01P H01P 125.4 . .
C01L C01P H01P 125.4 . .
N00P C01Q C01C 108.5(2) . .
N00P C01Q H01Q 125.7 . .
C01C C01Q H01Q 125.7 . .
N00Q C01R H01R 125.8 . .
C01S C01R N00Q 108.4(2) . .
C01S C01R H01R 125.8 . .
N00R C01S C01X 115.7(2) . .
C01R C01S N00R 108.5(2) . .
C01R C01S C01X 135.8(2) . .
N00W C01U C01D 117.4(2) . .
N00W C01U H01U 121.3 . .
C01D C01U H01U 121.3 . .
N00M C01V C02C 116.6(2) . .
C021 C01V N00M 108.0(2) . .
C021 C01V C02C 135.3(3) . .
N00V C01W C01C 118.1(2) . .
N00V C01W H01W 120.9 . .
C01C C01W H01W 120.9 . .
N013 C01X C01S 118.1(2) . .
N013 C01X H01X 120.9 . .
C01S C01X H01X 120.9 . .
N00X C020 C01L 118.3(2) . .
N00X C020 H020 120.8 . .
C01L C020 H020 120.8 . .
N00N C021 C01V 109.1(2) . .
N00N C021 H021 125.5 . .
C01V C021 H021 125.5 . .
H02A C023 H02B 107.5 . .
C025 C023 H02A 108.5 . .
C025 C023 H02B 108.5 . .
C025 C023 C027 115.1(2) . .
C027 C023 H02A 108.5 . .
C027 C023 H02B 108.5 . .
N00W C025 C023 111.0(2) . .
N00W C025 H02C 109.4 . .
N00W C025 H02D 109.4 . .
C023 C025 H02C 109.4 . .
C023 C025 H02D 109.4 . .
H02C C025 H02D 108.0 . .
N00S C026 H02E 109.6 . .
N00S C026 H02F 109.6 . .
N00S C026 C02B 110.3(3) . .
H02E C026 H02F 108.1 . .
C02B C026 H02E 109.6 . .
C02B C026 H02F 109.6 . .
N00V C027 C023 112.2(2) . .
N00V C027 H02G 109.2 . .
N00V C027 H02H 109.2 . .
C023 C027 H02G 109.2 . .
C023 C027 H02H 109.2 . .
H02G C027 H02H 107.9 . .
N00X C029 H02I 109.1 . .
N00X C029 H02J 109.1 . .
N00X C029 C02B 112.3(2) . .
H02I C029 H02J 107.9 . .
C02B C029 H02I 109.1 . .
C02B C029 H02J 109.1 . .
C026 C02B H02K 108.9 . .
C026 C02B H02L 108.9 . .
C029 C02B C026 113.3(3) . .
C029 C02B H02K 108.9 . .
C029 C02B H02L 108.9 . .
H02K C02B H02L 107.7 . .
N01F C02C C01V 117.8(3) . .
N01F C02C H02M 121.1 . .
C01V C02C H02M 121.1 . .
N01F C02E H02N 109.4 . .
N01F C02E H02O 109.4 . .
N01F C02E C02I 111.1(3) . .
H02N C02E H02O 108.0 . .
C02I C02E H02N 109.4 . .
C02I C02E H02O 109.4 . .
N013 C02G H02P 109.5 . .
N013 C02G H02Q 109.5 . .
N013 C02G C02I 110.5(3) . .
H02P C02G H02Q 108.1 . .
C02I C02G H02P 109.5 . .
C02I C02G H02Q 109.5 . .
C02E C02I H02R 109.0 . .
C02E C02I H02S 109.0 . .
C02G C02I C02E 112.8(4) . .
C02G C02I H02R 109.0 . .
C02G C02I H02S 109.0 . .
H02R C02I H02S 107.8 . .
loop_
_geom_bond_atom_site_label_1
_geom_bond_atom_site_label_2
_geom_bond_distance
_geom_bond_site_symmetry_2
Cu01 F008 2.2776(16) .
Cu01 N00A 2.0322(16) .
Cu01 N00A 2.0323(16) 2_656
Cu01 N00B 1.9797(16) 2_656
Cu01 N00B 1.9796(16) .
Cu02 N00C 2.0094(17) .
Cu02 N00D 2.0043(17) .
Cu02 N00F 2.0391(17) .
Cu02 N00G 2.0220(18) .
Cu02 N00N 2.1457(19) .
Cu03 F009 2.1719(17) .
Cu03 N00P 2.0175(19) 2_656
Cu03 N00P 2.0175(19) .
Cu03 N00Q 1.969(2) 2_656
Cu03 N00Q 1.969(2) .
Cu04 N00E 2.1507(18) 2_656
Cu04 N00H 2.017(2) .
Cu04 N00O 2.0187(19) .
Cu04 N00V 2.039(2) .
Cu04 N00W 2.033(2) .
Cu05 N00I 2.019(2) .
Cu05 N00K 2.0004(17) .
Cu05 N00L 2.135(2) .
Cu05 N00S 2.026(2) .
Cu05 N00X 2.050(2) .
Cu06 N00M 1.9900(19) .
Cu06 N00R 1.991(2) .
Cu06 N00T 2.138(2) .
Cu06 N013 2.034(2) .
Cu06 N01F 2.030(2) .
Si07 F008 1.6840(17) .
Si07 F009 1.6909(18) .
Si07 F01N 1.679(2) 2_656
Si07 F01N 1.679(2) .
Si07 F01T 1.690(3) .
Si07 F01T 1.690(3) 2_656
Si07 F01Y 1.674(3) 2_656
Si07 F01Y 1.674(3) .
Si07 F022 1.679(3) 2_656
Si07 F022 1.679(3) .
N00A C00Z 1.350(2) .
N00A C016 1.360(3) .
N00B C012 1.362(3) .
N00B C01A 1.355(3) .
N00C C00Y 1.388(3) .
N00C C00Z 1.327(2) .
N00D C00U 1.334(3) .
N00D C010 1.389(3) .
N00E C00U 1.345(3) .
N00E C01E 1.363(3) .
N00F C019 1.278(3) .
N00F C01B 1.464(3) .
N00G C011 1.278(3) .
N00G C01O 1.470(3) .
N00H C017 1.339(3) .
N00H C01D 1.387(3) .
N00I C01K 1.323(3) .
N00I C01L 1.389(3) .
N00K C014 1.380(3) .
N00K C01A 1.331(3) .
N00L C017 1.343(3) .
N00L C01G 1.364(3) .
N00M C015 1.333(3) .
N00M C01V 1.373(3) .
N00N C015 1.343(3) .
N00N C021 1.354(3) .
N00O C01C 1.381(3) .
N00O C01J 1.324(3) .
N00P C01J 1.353(3) .
N00P C01Q 1.356(3) .
N00Q C01I 1.353(3) .
N00Q C01R 1.371(3) .
N00R C01I 1.322(3) .
N00R C01S 1.394(3) .
N00S C018 1.286(3) .
N00S C026 1.471(3) .
N00T C01K 1.355(3) .
N00T C01P 1.358(3) .
C00U H00U 0.9300 .
N00V C01W 1.271(4) .
N00V C027 1.479(3) .
N00W C01U 1.269(4) .
N00W C025 1.469(3) .
N00X C020 1.274(4) .
N00X C029 1.467(3) .
C00Y C011 1.430(3) .
C00Y C016 1.372(3) .
C00Z H00Z 0.9300 .
C010 C019 1.429(3) .
C010 C01E 1.373(3) .
C011 H011 0.9300 .
C012 H012 0.9300 .
C012 C014 1.375(3) .
N013 C01X 1.273(4) .
N013 C02G 1.458(4) .
C014 C018 1.433(3) .
C015 H015 0.9300 .
C016 H016 0.9300 .
C017 H017 0.9300 .
C018 H018 0.9300 .
C019 H019 0.9300 .
C01A H01A 0.9300 .
C01B H01B 0.9700 .
C01B H01C 0.9700 .
C01B C01H 1.513(3) .
C01C C01Q 1.370(4) .
C01C C01W 1.438(3) .
C01D C01G 1.364(4) .
C01D C01U 1.435(3) .
C01E H01E 0.9300 .
N01F C02C 1.279(4) .
N01F C02E 1.474(3) .
C01G H01G 0.9300 .
C01H H01D 0.9700 .
C01H H01F 0.9700 .
C01H C01O 1.516(3) .
C01I H01I 0.9300 .
C01J H01J 0.9300 .
C01K H01K 0.9300 .
C01L C01P 1.364(4) .
C01L C020 1.426(4) .
C01O H01H 0.9700 .
C01O H01L 0.9700 .
C01P H01P 0.9300 .
C01Q H01Q 0.9300 .
C01R H01R 0.9300 .
C01R C01S 1.362(4) .
C01S C01X 1.423(4) .
C01U H01U 0.9300 .
C01V C021 1.373(4) .
C01V C02C 1.425(4) .
C01W H01W 0.9300 .
C01X H01X 0.9300 .
C020 H020 0.9300 .
C021 H021 0.9300 .
C023 H02A 0.9700 .
C023 H02B 0.9700 .
C023 C025 1.490(5) .
C023 C027 1.521(5) .
C025 H02C 0.9700 .
C025 H02D 0.9700 .
C026 H02E 0.9700 .
C026 H02F 0.9700 .
C026 C02B 1.516(4) .
C027 H02G 0.9700 .
C027 H02H 0.9700 .
C029 H02I 0.9700 .
C029 H02J 0.9700 .
C029 C02B 1.508(4) .
C02B H02K 0.9700 .
C02B H02L 0.9700 .
C02C H02M 0.9300 .
C02E H02N 0.9700 .
C02E H02O 0.9700 .
C02E C02I 1.516(6) .
C02G H02P 0.9700 .
C02G H02Q 0.9700 .
C02G C02I 1.514(5) .
C02I H02R 0.9700 .
C02I H02S 0.9700 .
loop_
_platon_squeeze_void_nr
_platon_squeeze_void_average_x
_platon_squeeze_void_average_y
_platon_squeeze_void_average_z
_platon_squeeze_void_volume
_platon_squeeze_void_count_electrons
_platon_squeeze_void_content
1 0.160 0.326 -0.020 5427 1769 ' '
