#------------------------------------------------------------------------------
#$Date: 2019-11-19 04:58:33 +0200 (Tue, 19 Nov 2019) $
#$Revision: 231022 $
#$URL: file:///home/coder/svn-repositories/cod/cif/7/70/19/7701974.cif $
#------------------------------------------------------------------------------
#
# This file is available in the Crystallography Open Database (COD),
# http://www.crystallography.net/
#
# All data on this site have been placed in the public domain by the
# contributors.
#
data_7701974
loop_
_publ_author_name
'Wang, Xue-Zhi'
'Sun, Meng-Ying'
'Zheng, Ji'
'Luo, Dong'
'Li, Qi'
'Zhou, Xiao-Ping'
'Li, Dan'
_publ_section_title
;
 Coordination-Driven Self-Assembly of M10L8 Metal-Organic Bi-capped Square
 Antiprisms with Adaptable Cavity
;
_journal_name_full               'Dalton Transactions'
_journal_paper_doi               10.1039/C9DT04368C
_journal_year                    2019
_chemical_formula_moiety         'C88 H96 Br Cu10 N48'
_chemical_formula_sum            'C88 H96 Br Cu10 N48'
_chemical_formula_weight         2541.43
_space_group_crystal_system      tetragonal
_space_group_IT_number           85
_space_group_name_Hall           '-P 4a'
_space_group_name_H-M_alt        'P 4/n :2'
_atom_sites_solution_hydrogens   geom
_atom_sites_solution_primary     dual
_audit_block_doi                 10.5517/ccdc.csd.cc20ncdg
_audit_creation_date             2018-12-19
_audit_creation_method
;
Olex2 1.2
(compiled 2018.05.29 svn.r3508 for OlexSys, GUI svn.r5506)
;
_audit_update_record
;
2019-10-06 deposited with the CCDC.	2019-11-18 downloaded from the CCDC.
;
_cell_angle_alpha                90
_cell_angle_beta                 90
_cell_angle_gamma                90
_cell_formula_units_Z            2
_cell_length_a                   19.2461(2)
_cell_length_b                   19.2461(2)
_cell_length_c                   14.4823(3)
_cell_measurement_reflns_used    4065
_cell_measurement_temperature    100.00(11)
_cell_measurement_theta_max      71.8890
_cell_measurement_theta_min      3.2170
_cell_volume                     5364.42(14)
_computing_cell_refinement       'CrysAlisPro 1.171.39.33c (Rigaku OD, 2017)'
_computing_data_collection       'CrysAlisPro 1.171.39.33c (Rigaku OD, 2017)'
_computing_data_reduction        'CrysAlisPro 1.171.39.33c (Rigaku OD, 2017)'
_computing_molecular_graphics    'Olex2 (Dolomanov et al., 2009)'
_computing_publication_material  'Olex2 (Dolomanov et al., 2009)'
_computing_structure_refinement  'ShelXL (Sheldrick, 2015)'
_computing_structure_solution    'ShelXT (Sheldrick, 2015)'
_diffrn_ambient_environment      N~2~
_diffrn_ambient_temperature      100.00(11)
_diffrn_detector                 'CCD plate'
_diffrn_measured_fraction_theta_full 0.996
_diffrn_measured_fraction_theta_max 0.968
_diffrn_measurement_details
;
List of Runs (angles in degrees, time in seconds):

  # Type    Start    End  Width  t~exp~   \w     \q     \k     \f   Frames
#--------------------------------------------------------------------------
  1  \w    -56.00 -26.00   0.50    7.00    --    0.00 -57.00   1.00   60
  2  \w    103.00 128.00   0.50   13.00    --   96.10  64.00 -24.00   50
  3  \w    112.00 153.00   0.50   13.00    --   96.10  57.00 142.00   82
  4  \w    -32.00  36.00   0.50    7.00    --    0.00  82.00   0.00  136
  5  \w    112.00 172.00   0.50   13.00    --   96.10  77.00  90.00  120
  6  \w     82.00 115.00   0.50   13.00    --   96.10  38.00 120.00   66
  7  \w    133.00 180.00   0.50   13.00    --   96.10  38.00 120.00   94
  8  \w     97.00 182.00   0.50   13.00    --   96.10  82.00-180.00  170
;
_diffrn_measurement_device       'four-circle diffractometer'
_diffrn_measurement_device_type  'XtaLAB AFC12 (RINC): Kappa single'
_diffrn_measurement_method       '\w scans'
_diffrn_orient_matrix_type
'CrysAlisPro convention (1999,Acta A55,543-557)'
_diffrn_orient_matrix_UB_11      -0.0782322000
_diffrn_orient_matrix_UB_12      -0.0167581000
_diffrn_orient_matrix_UB_13      0.0043531000
_diffrn_orient_matrix_UB_21      0.0135629000
_diffrn_orient_matrix_UB_22      -0.0517971000
_diffrn_orient_matrix_UB_23      0.0790943000
_diffrn_orient_matrix_UB_31      -0.0103632000
_diffrn_orient_matrix_UB_32      0.0586687000
_diffrn_orient_matrix_UB_33      0.0709634000
_diffrn_radiation_monochromator  mirror
_diffrn_radiation_probe          x-ray
_diffrn_radiation_type           CuK\a
_diffrn_radiation_wavelength     1.54184
_diffrn_reflns_av_R_equivalents  0.0446
_diffrn_reflns_av_unetI/netI     0.0594
_diffrn_reflns_Laue_measured_fraction_full 0.996
_diffrn_reflns_Laue_measured_fraction_max 0.968
_diffrn_reflns_limit_h_max       23
_diffrn_reflns_limit_h_min       -23
_diffrn_reflns_limit_k_max       18
_diffrn_reflns_limit_k_min       -19
_diffrn_reflns_limit_l_max       16
_diffrn_reflns_limit_l_min       -17
_diffrn_reflns_number            15561
_diffrn_reflns_point_group_measured_fraction_full 0.996
_diffrn_reflns_point_group_measured_fraction_max 0.968
_diffrn_reflns_theta_full        67.684
_diffrn_reflns_theta_max         73.346
_diffrn_reflns_theta_min         3.051
_diffrn_source                   'Rotating-anode X-ray tube (dual wavelength)'
_diffrn_source_type              'Rigaku (Cu) X-ray DW Source'
_exptl_absorpt_coefficient_mu    3.086
_exptl_absorpt_correction_T_max  1.00000
_exptl_absorpt_correction_T_min  0.95888
_exptl_absorpt_correction_type   multi-scan
_exptl_absorpt_process_details
;
CrysAlisPro 1.171.39.33c (Rigaku Oxford Diffraction, 2017)
Empirical absorption correction using spherical harmonics,
 implemented in SCALE3 ABSPACK scaling algorithm.
;
_exptl_crystal_colour            'clear dark green'
_exptl_crystal_colour_lustre     clear
_exptl_crystal_colour_modifier   dark
_exptl_crystal_colour_primary    green
_exptl_crystal_density_diffrn    1.573
_exptl_crystal_description       plate
_exptl_crystal_F_000             2570
_exptl_crystal_size_max          0.01
_exptl_crystal_size_mid          0.01
_exptl_crystal_size_min          0.01
_refine_diff_density_max         0.787
_refine_diff_density_min         -0.560
_refine_diff_density_rms         0.096
_refine_ls_extinction_method     none
_refine_ls_goodness_of_fit_ref   1.044
_refine_ls_hydrogen_treatment    constr
_refine_ls_matrix_type           full
_refine_ls_number_parameters     334
_refine_ls_number_reflns         5222
_refine_ls_number_restraints     0
_refine_ls_restrained_S_all      1.044
_refine_ls_R_factor_all          0.0761
_refine_ls_R_factor_gt           0.0491
_refine_ls_shift/su_max          0.001
_refine_ls_shift/su_mean         0.000
_refine_ls_structure_factor_coef Fsqd
_refine_ls_weighting_details
'w=1/[\s^2^(Fo^2^)+(0.0628P)^2^+5.6974P] where P=(Fo^2^+2Fc^2^)/3'
_refine_ls_weighting_scheme      calc
_refine_ls_wR_factor_gt          0.1195
_refine_ls_wR_factor_ref         0.1310
_reflns_Friedel_coverage         0.000
_reflns_number_gt                3731
_reflns_number_total             5222
_reflns_threshold_expression     'I > 2\s(I)'
_cod_data_source_file            c9dt04368c2.cif
_cod_data_source_block           cage3
_cod_original_cell_volume        5364.42(16)
_cod_original_sg_symbol_H-M      'P 4/n'
_cod_database_code               7701974
_shelx_shelxl_version_number     2017/1
_chemical_oxdiff_formula         CNHOBrCu
_shelx_space_group_comment
;
The symmetry employed for this shelxl refinement is uniquely defined
by the following loop, which should always be used as a source of
symmetry information in preference to the above space-group names.
They are only intended as comments.
;
_shelx_estimated_absorpt_t_max   0.970
_shelx_estimated_absorpt_t_min   0.970
_reflns_odcompleteness_completeness 99.66
_reflns_odcompleteness_iscentric 1
_reflns_odcompleteness_theta     66.97
_olex2_refinement_description
;
1. Fixed Uiso
 At 1.2 times of:
  All C(H) groups, All C(H,H) groups
2.a Secondary CH2 refined with riding coordinates:
 C7(H7a,H7b), C6(H6a,H6b), C5(H5a,H5b), C16(H16a,H16b), C18(H18a,H18b),
 C17(H17a,H17b)
2.b Aromatic/amide H refined with riding coordinates:
 C11(H11), C22(H22), C12(H12), C4(H4), C13(H13), C10(H10), C2(H2), C21(H21),
 C1(H1), C8(H8), C19(H19), C15(H15)
;
_shelx_res_file
;
TITL 180725b_a.res in P4/n
    180725b_sq.res
    created by SHELXL-2017/1 at 22:06:58 on 25-Jul-2018
REM Old TITL 180725b in P4/n
REM SHELXT solution in P4/n
REM R1 0.154, Rweak 0.007, Alpha 0.027, Orientation as input
REM Formula found by SHELXT: C96 N41 O8 Cu10 Br
CELL 1.54184 19.2461 19.2461 14.4823 90 90 90
ZERR 2 0.0002 0.0002 0.0003 0 0 0
LATT 1
SYMM 0.5-X,0.5-Y,+Z
SYMM 0.5-Y,+X,+Z
SYMM +Y,0.5-X,+Z
SFAC C H Br Cu N
UNIT 176 192 2 20 96

L.S. 5 0 39
PLAN  1
SIZE 0.01 0.01 0.01
BOND $H
list 4
ABIN
fmap 2 53
acta
REM <olex2.extras>
REM <HklSrc "%.\\180725b_sq.hkl">
REM </olex2.extras>

WGHT    0.062800    5.697400
FVAR       0.21352
BR1   3    0.750000    0.750000    0.249450    10.25000    0.02492    0.02492 =
         0.02461    0.00000    0.00000    0.00000
CU1   4    0.750000    0.750000    0.054193    10.25000    0.02070    0.02070 =
         0.02938    0.00000    0.00000    0.00000
CU2   4    0.602351    0.470054    0.109603    11.00000    0.02459    0.02085 =
         0.02781   -0.00350   -0.00344   -0.00161
CU4   4    0.750000    0.750000    0.453873    10.25000    0.01938    0.01938 =
         0.03488    0.00000    0.00000    0.00000
CU3   4    0.449980    0.658476    0.397243    11.00000    0.01881    0.02279 =
         0.03002    0.00445    0.00124   -0.00082
N5    5    0.543716    0.511208    0.208651    11.00000    0.02367    0.02326 =
         0.02912    0.00019   -0.00186   -0.00080
N1    5    0.706759    0.656142    0.040968    11.00000    0.02285    0.02121 =
         0.02840   -0.00378   -0.00082    0.00305
N12   5    0.659010    0.701008    0.460877    11.00000    0.01973    0.02691 =
         0.02723    0.00448   -0.00255    0.00347
N6    5    0.475220    0.572848    0.304463    11.00000    0.02329    0.02213 =
         0.02656    0.00251    0.00299   -0.00123
N7    5    0.423984    0.814322    0.193770    11.00000    0.02490    0.02100 =
         0.02475    0.00408    0.00119    0.00033
N8    5    0.434600    0.732862    0.303615    11.00000    0.02036    0.02149 =
         0.03046    0.00052    0.00055    0.00173
N2    5    0.651393    0.558264    0.073614    11.00000    0.02203    0.02150 =
         0.02782    0.00028   -0.00298   -0.00257
N3    5    0.634990    0.440368   -0.016849    11.00000    0.02687    0.02214 =
         0.03544   -0.00512   -0.00373    0.00185
N11   5    0.547502    0.680159    0.432462    11.00000    0.02160    0.02035 =
         0.02835    0.00378    0.00210    0.00227
N9    5    0.345537    0.651542    0.388535    11.00000    0.01953    0.02588 =
         0.03707    0.00476    0.00354   -0.00152
N4    5    0.519874    0.405263    0.098937    11.00000    0.03442    0.02571 =
         0.03052   -0.00380   -0.00677   -0.00506
N10   5    0.452416    0.605309    0.516748    11.00000    0.02539    0.03249 =
         0.03655    0.00420    0.00305   -0.00333
C14   1    0.365675    0.735508    0.275556    11.00000    0.02145    0.02412 =
         0.02827    0.00116   -0.00259    0.00070
C3    1    0.678857    0.552574   -0.013534    11.00000    0.02222    0.02417 =
         0.03037   -0.00315   -0.00083    0.00142
C9    1    0.478124    0.482080    0.210046    11.00000    0.02681    0.02245 =
         0.02665    0.00598   -0.00451   -0.00460
C11   1    0.538813    0.565440    0.266721    11.00000    0.02103    0.02366 =
         0.03028   -0.00141    0.00224   -0.00186
AFIX  43
H11   2    0.575757    0.595031    0.279636    11.00000   -1.20000
AFIX   0
C22   1    0.604127    0.714194    0.407476    11.00000    0.01986    0.01939 =
         0.03132    0.00356    0.00022   -0.00187
AFIX  43
H22   2    0.605550    0.744444    0.357435    11.00000   -1.20000
AFIX   0
C12   1    0.466325    0.780579    0.252544    11.00000    0.02221    0.02475 =
         0.02610    0.00534   -0.00116   -0.00160
AFIX  43
H12   2    0.513629    0.789855    0.257005    11.00000   -1.20000
AFIX   0
C4    1    0.667778    0.488006   -0.060624    11.00000    0.03067    0.02842 =
         0.02675   -0.00470   -0.00377    0.00245
AFIX  43
H4    2    0.683745    0.480989   -0.120512    11.00000   -1.20000
AFIX   0
C13   1    0.359982    0.785598    0.207844    11.00000    0.02218    0.02955 =
         0.03305    0.00287   -0.00288    0.00422
AFIX  43
H13   2    0.319389    0.797755    0.176979    11.00000   -1.20000
AFIX   0
C20   1    0.566951    0.642557    0.509279    11.00000    0.02680    0.03142 =
         0.02900    0.00845    0.00186   -0.00319
C10   1    0.436969    0.520515    0.268040    11.00000    0.02684    0.02788 =
         0.02990    0.00346   -0.00316   -0.00259
AFIX  43
H10   2    0.390315    0.512023    0.280378    11.00000   -1.20000
AFIX   0
C2    1    0.712643    0.613685   -0.033764    11.00000    0.02449    0.02995 =
         0.02588   -0.00708   -0.00110   -0.00456
AFIX  43
H2    2    0.735424    0.624119   -0.088672    11.00000   -1.20000
AFIX   0
C21   1    0.636521    0.655267    0.525443    11.00000    0.02572    0.03812 =
         0.03260    0.01558   -0.00574   -0.00412
AFIX  43
H21   2    0.663219    0.635865    0.572347    11.00000   -1.20000
AFIX   0
C1    1    0.669501    0.620956    0.102498    11.00000    0.02902    0.02000 =
         0.03133    0.00002   -0.00134   -0.00626
AFIX  43
H1    2    0.657373    0.638611    0.160061    11.00000   -1.20000
AFIX   0
C8    1    0.468779    0.422848    0.150067    11.00000    0.03241    0.02969 =
         0.03597   -0.00259   -0.00383   -0.00844
AFIX  43
H8    2    0.427094    0.398429    0.148746    11.00000   -1.20000
AFIX   0
C19   1    0.512885    0.603057    0.553163    11.00000    0.03357    0.03971 =
         0.03362    0.01305   -0.00076   -0.00337
AFIX  43
H19   2    0.521531    0.576907    0.605927    11.00000   -1.20000
AFIX   0
C15   1    0.320011    0.688615    0.323940    11.00000    0.01830    0.03049 =
         0.03475   -0.00011   -0.00012    0.00047
AFIX  43
H15   2    0.273218    0.685490    0.308464    11.00000   -1.20000
AFIX   0
C7    1    0.514763    0.344800    0.038644    11.00000    0.04437    0.02781 =
         0.04362   -0.01416   -0.00884   -0.00881
AFIX  23
H7A   2    0.466401    0.331052    0.034002    11.00000   -1.20000
H7B   2    0.540123    0.306558    0.066348    11.00000   -1.20000
AFIX   0
C6    1    0.542940    0.357627   -0.057618    11.00000    0.04485    0.02611 =
         0.04141   -0.01014   -0.00917   -0.00235
AFIX  23
H6A   2    0.534002    0.316789   -0.095029    11.00000   -1.20000
H6B   2    0.517582    0.396056   -0.084863    11.00000   -1.20000
AFIX   0
C5    1    0.619533    0.373797   -0.061793    11.00000    0.04516    0.02447 =
         0.03036   -0.00693   -0.00384   -0.00345
AFIX  23
H5A   2    0.645362    0.337025   -0.031465    11.00000   -1.20000
H5B   2    0.634297    0.375650   -0.125785    11.00000   -1.20000
AFIX   0
C16   1    0.301288    0.606617    0.445467    11.00000    0.02049    0.03390 =
         0.06558    0.01429    0.00928   -0.00311
AFIX  23
H16A  2    0.264415    0.587802    0.407261    11.00000   -1.20000
H16B  2    0.279881    0.634457    0.493509    11.00000   -1.20000
AFIX   0
C18   1    0.393865    0.568078    0.560072    11.00000    0.03195    0.05237 =
         0.03539    0.02207    0.00936   -0.01051
AFIX  23
H18A  2    0.372534    0.597669    0.606290    11.00000   -1.20000
H18B  2    0.411141    0.526788    0.590862    11.00000   -1.20000
AFIX   0
C17   1    0.340167    0.547514    0.489618    11.00000    0.03139    0.03922 =
         0.04913    0.00356    0.01107   -0.00671
AFIX  23
H17A  2    0.362994    0.521073    0.441336    11.00000   -1.20000
H17B  2    0.306768    0.516990    0.519124    11.00000   -1.20000
AFIX   0
HKLF 4




REM  180725b_a.res in P4/n
REM R1 =  0.0491 for    3731 Fo > 4sig(Fo)  and  0.0761 for all    5222 data
REM    334 parameters refined using      0 restraints

END

WGHT      0.0628      5.7181

REM Highest difference peak  0.787,  deepest hole -0.560,  1-sigma level  0.096
Q1    1   0.7500  0.7500  0.5229  10.25000  0.05    0.79
;
_shelx_res_checksum              52102
_shelx_fab_file
;
    1    1    0    -70.78      0.00
    0    2    0    -73.31      0.00
    2    2    0   -144.55      0.00
   -1    3    0     -9.36      0.00
    1    3    0    -29.28      0.00
    3    3    0     66.11      0.00
   -2    4    0     44.84      0.00
    0    4    0    149.09      0.00
    2    4    0     -6.86      0.00
    4    4    0     79.08      0.00
   -3    5    0     39.27      0.00
   -1    5    0     43.82      0.00
    1    5    0    -18.69      0.00
    3    5    0     22.62      0.00
    5    5    0    -52.88      0.00
   -4    6    0    -59.24      0.00
   -2    6    0    -55.76      0.00
    0    6    0    -71.91      0.00
    2    6    0    -33.94      0.00
    4    6    0     -9.37      0.00
    6    6    0      5.29      0.00
   -5    7    0    -59.16      0.00
   -3    7    0    -42.46      0.00
   -1    7    0    -24.41      0.00
    1    7    0    -13.97      0.00
    3    7    0     21.86      0.00
    5    7    0    -18.97      0.00
    7    7    0     14.05      0.00
   -6    8    0      0.59      0.00
   -4    8    0     47.24      0.00
   -2    8    0     40.99      0.00
    0    8    0     50.48      0.00
    2    8    0     18.04      0.00
    4    8    0      8.03      0.00
    6    8    0    -12.99      0.00
    8    8    0      3.70      0.00
   -7    9    0     49.20      0.00
   -5    9    0     31.94      0.00
   -3    9    0     53.65      0.00
   -1    9    0     15.12      0.00
    1    9    0     11.36      0.00
    3    9    0     -4.93      0.00
    5    9    0      1.15      0.00
    7    9    0     17.91      0.00
    9    9    0      7.41      0.00
   -8   10    0      1.85      0.00
   -6   10    0     -8.79      0.00
   -4   10    0    -30.85      0.00
   -2   10    0    -33.71      0.00
    0   10    0    -36.21      0.00
    2   10    0     -3.54      0.00
    4   10    0     -9.13      0.00
    6   10    0     17.00      0.00
    8   10    0     -6.35      0.00
   10   10    0      8.83      0.00
   -9   11    0    -20.33      0.00
   -7   11    0    -24.26      0.00
   -5   11    0    -55.65      0.00
   -3   11    0    -23.59      0.00
   -1   11    0    -34.06      0.00
    1   11    0      6.31      0.00
    3   11    0     -9.68      0.00
    5   11    0      0.32      0.00
    7   11    0    -13.12      0.00
    9   11    0    -14.10      0.00
   11   11    0     -2.43      0.00
  -10   12    0    -11.02      0.00
   -8   12    0      2.96      0.00
   -6   12    0     -4.19      0.00
   -4   12    0     37.78      0.00
   -2   12    0      8.37      0.00
    0   12    0     39.41      0.00
    2   12    0    -13.57      0.00
    4   12    0     10.96      0.00
    6   12    0    -17.71      0.00
    8   12    0      4.31      0.00
   10   12    0     -6.88      0.00
   12   12    0      1.84      0.00
  -11   13    0      4.19      0.00
   -9   13    0     13.52      0.00
   -7   13    0     38.54      0.00
   -5   13    0     33.06      0.00
   -3   13    0     39.58      0.00
   -1   13    0     10.38      0.00
    1   13    0      9.64      0.00
    3   13    0     -3.46      0.00
    5   13    0     12.54      0.00
    7   13    0      4.05      0.00
    9   13    0     15.07      0.00
   11   13    0     -1.06      0.00
   13   13    0     -0.32      0.00
  -12   14    0     -4.64      0.00
  -10   14    0     16.11      0.00
   -8   14    0     -1.08      0.00
   -6   14    0      0.99      0.00
   -4   14    0    -15.37      0.00
   -2   14    0    -22.21      0.00
    0   14    0     -4.10      0.00
    2   14    0     -7.46      0.00
    4   14    0     14.69      0.00
    6   14    0     -0.75      0.00
    8   14    0      8.36      0.00
   10   14    0     -1.21      0.00
   12   14    0      3.26      0.00
   14   14    0      3.86      0.00
  -13   15    0      0.53      0.00
  -11   15    0     -6.33      0.00
   -9   15    0    -16.59      0.00
   -7   15    0    -31.03      0.00
   -5   15    0    -35.55      0.00
   -3   15    0    -27.55      0.00
   -1   15    0    -10.08      0.00
    1   15    0     -3.72      0.00
    3   15    0     -1.40      0.00
    5   15    0    -10.17      0.00
    7   15    0     -5.90      0.00
    9   15    0     -7.25      0.00
   11   15    0      0.16      0.00
   13   15    0      0.97      0.00
   15   15    0      0.14      0.00
  -14   16    0      2.16      0.00
  -12   16    0     -5.98      0.00
  -10   16    0     -9.18      0.00
   -8   16    0     -6.78      0.00
   -6   16    0     -2.11      0.00
   -4   16    0      9.49      0.00
   -2   16    0     10.80      0.00
    0   16    0      6.12      0.00
    2   16    0    -12.35      0.00
    4   16    0      2.92      0.00
    6   16    0    -16.61      0.00
    8   16    0      7.81      0.00
   10   16    0    -13.10      0.00
   12   16    0      7.19      0.00
   14   16    0     -8.61      0.00
   16   16    0      1.18      0.00
  -15   17    0      1.64      0.00
  -13   17    0     -0.95      0.00
  -11   17    0      6.47      0.00
   -9   17    0     15.58      0.00
   -7   17    0     27.57      0.00
   -5   17    0     26.46      0.00
   -3   17    0     23.73      0.00
   -1   17    0      2.82      0.00
    1   17    0      4.11      0.00
    3   17    0      4.12      0.00
    5   17    0      5.28      0.00
    7   17    0      8.02      0.00
    9   17    0     -0.11      0.00
   11   17    0      1.00      0.00
   13   17    0     -1.38      0.00
   15   17    0      2.47      0.00
  -12   18    0      1.57      0.00
  -10   18    0     14.51      0.00
   -8   18    0      1.97      0.00
   -6   18    0     10.48      0.00
   -4   18    0    -11.43      0.00
   -2   18    0      2.18      0.00
    0   18    0     -4.90      0.00
    2   18    0     11.77      0.00
    4   18    0      4.60      0.00
    6   18    0      6.67      0.00
    8   18    0      1.94      0.00
   10   18    0      2.96      0.00
   12   18    0      1.89      0.00
   14   18    0      0.10      0.00
  -13   19    0     -1.60      0.00
  -11   19    0     -3.81      0.00
   -9   19    0    -11.71      0.00
   -7   19    0    -22.42      0.00
   -5   19    0    -16.89      0.00
   -3   19    0    -13.54      0.00
   -1   19    0     -6.23      0.00
    1   19    0      0.19      0.00
    3   19    0     -4.48      0.00
    5   19    0     -5.73      0.00
    7   19    0     -1.34      0.00
    9   19    0     -2.10      0.00
   11   19    0      4.27      0.00
   13   19    0     -4.17      0.00
  -12   20    0     -2.58      0.00
  -10   20    0     -9.53      0.00
   -8   20    0     -7.53      0.00
   -6   20    0     -0.93      0.00
   -4   20    0     -1.83      0.00
   -2   20    0      2.60      0.00
    0   20    0     -4.20      0.00
    2   20    0     -4.27      0.00
    4   20    0     -8.90      0.00
    6   20    0     -4.03      0.00
    8   20    0     -1.22      0.00
   10   20    0     -2.83      0.00
   -9   21    0      5.96      0.00
   -7   21    0     15.38      0.00
   -5   21    0      5.41      0.00
   -3   21    0     12.18      0.00
   -1   21    0     -0.82      0.00
    1   21    0      5.17      0.00
    3   21    0     -0.71      0.00
    5   21    0      5.68      0.00
    7   21    0     -0.37      0.00
    9   21    0     -0.23      0.00
   -4   22    0     -1.13      0.00
   -2   22    0      1.23      0.00
    0   22    0      1.14      0.00
    2   22    0      6.97      0.00
    4   22    0      1.31      0.00
    6   22    0      7.26      0.00
   -3   23    0     -2.87      0.00
   -1   23    0     -1.47      0.00
    1   23    0     -0.30      0.00
    3   23    0     -3.45      0.00
    0    0    1    -22.53      0.00
    0    1    1   -193.80      0.00
   -1    2    1     29.46      0.00
    0    2    1     -6.75      0.00
    1    2    1    -60.49      0.00
    2    2    1     31.20      0.00
   -2    3    1    103.50      0.00
   -1    3    1     11.92      0.00
    0    3    1     89.93      0.00
    1    3    1     -7.33      0.00
    2    3    1     96.88      0.00
    3    3    1     -1.39      0.00
   -3    4    1     22.37      0.00
   -2    4    1    -11.37      0.00
   -1    4    1     67.88      0.00
    0    4    1    -12.23      0.00
    1    4    1    -47.59      0.00
    2    4    1     -5.84      0.00
    3    4    1     38.02      0.00
    4    4    1     -5.64      0.00
   -4    5    1    -60.62      0.00
   -3    5    1      2.56      0.00
   -2    5    1    -58.23      0.00
   -1    5    1    -18.22      0.00
    0    5    1    -99.05      0.00
    1    5    1     17.23      0.00
    2    5    1    -11.57      0.00
    3    5    1    -13.38      0.00
    4    5    1    -57.43      0.00
    5    5    1     16.14      0.00
   -5    6    1    -56.48      0.00
   -4    6    1      1.56      0.00
   -3    6    1    -41.20      0.00
   -2    6    1     13.20      0.00
   -1    6    1    -29.89      0.00
    0    6    1      2.75      0.00
    1    6    1     -7.15      0.00
    2    6    1     10.92      0.00
    3    6    1     14.95      0.00
    4    6    1     -2.66      0.00
    5    6    1     -2.01      0.00
    6    6    1      3.61      0.00
   -6    7    1     -5.21      0.00
   -5    7    1     13.97      0.00
   -4    7    1     51.67      0.00
   -3    7    1      0.39      0.00
   -2    7    1     51.48      0.00
   -1    7    1     10.16      0.00
    0    7    1     51.28      0.00
    1    7    1     -6.98      0.00
    2    7    1     35.54      0.00
    3    7    1      2.86      0.00
    4    7    1     -7.44      0.00
    5    7    1     -3.51      0.00
    6    7    1     12.67      0.00
    7    7    1      2.76      0.00
   -7    8    1     25.32      0.00
   -6    8    1     -5.27      0.00
   -5    8    1     52.80      0.00
   -4    8    1      0.15      0.00
   -3    8    1     38.98      0.00
   -2    8    1    -10.21      0.00
   -1    8    1     26.58      0.00
    0    8    1     -1.97      0.00
    1    8    1      6.20      0.00
    2    8    1     -7.65      0.00
    3    8    1     -5.70      0.00
    4    8    1      2.74      0.00
    5    8    1      0.26      0.00
    6    8    1     -3.02      0.00
    7    8    1     13.74      0.00
    8    8    1      5.72      0.00
   -8    9    1     17.44      0.00
   -7    9    1     -1.67      0.00
   -6    9    1    -23.17      0.00
   -5    9    1     -9.69      0.00
   -4    9    1    -22.66      0.00
   -3    9    1     -1.80      0.00
   -2    9    1    -48.63      0.00
   -1    9    1     -7.14      0.00
    0    9    1    -32.34      0.00
    1    9    1      5.84      0.00
    2    9    1    -17.34      0.00
    3    9    1     -4.98      0.00
    4    9    1     -3.53      0.00
    5    9    1      6.35      0.00
    6    9    1     13.82      0.00
    7    9    1     -8.03      0.00
    8    9    1     -8.09      0.00
    9    9    1      5.23      0.00
   -9   10    1    -10.38      0.00
   -8   10    1     -4.84      0.00
   -7   10    1    -35.46      0.00
   -6   10    1      4.41      0.00
   -5   10    1    -41.05      0.00
   -4   10    1      0.47      0.00
   -3   10    1    -41.27      0.00
   -2   10    1      6.92      0.00
   -1   10    1    -21.54      0.00
    0   10    1      1.83      0.00
    1   10    1     -3.08      0.00
    2   10    1      5.69      0.00
    3   10    1     -4.32      0.00
    4   10    1     -3.36      0.00
    5   10    1      1.53      0.00
    6   10    1      1.76      0.00
    7   10    1    -16.97      0.00
    8   10    1     -3.39      0.00
    9   10    1     -9.17      0.00
   10   10    1      1.86      0.00
  -10   11    1    -13.77      0.00
   -9   11    1      7.54      0.00
   -8   11    1      6.73      0.00
   -7   11    1     -1.31      0.00
   -6   11    1     -4.65      0.00
   -5   11    1     12.30      0.00
   -4   11    1     41.16      0.00
   -3   11    1     -2.73      0.00
   -2   11    1     14.67      0.00
   -1   11    1      9.74      0.00
    0   11    1     39.56      0.00
    1   11    1     -7.84      0.00
    2   11    1     -5.28      0.00
    3   11    1      6.12      0.00
    4   11    1      7.85      0.00
    5   11    1     -5.30      0.00
    6   11    1    -13.61      0.00
    7   11    1      6.77      0.00
    8   11    1      0.09      0.00
    9   11    1     -3.71      0.00
   10   11    1     -0.84      0.00
   11   11    1      3.81      0.00
  -11   12    1      2.18      0.00
  -10   12    1     -1.97      0.00
   -9   12    1     17.40      0.00
   -8   12    1      3.85      0.00
   -7   12    1     27.21      0.00
   -6   12    1     -2.73      0.00
   -5   12    1     50.78      0.00
   -4   12    1     -0.64      0.00
   -3   12    1     21.10      0.00
   -2   12    1     -5.20      0.00
   -1   12    1     34.29      0.00
    0   12    1     -1.91      0.00
    1   12    1    -10.80      0.00
    2   12    1     -3.07      0.00
    3   12    1     14.48      0.00
    4   12    1      3.15      0.00
    5   12    1     -3.03      0.00
    6   12    1     -1.61      0.00
    7   12    1     16.25      0.00
    8   12    1      3.46      0.00
    9   12    1      7.71      0.00
   10   12    1     -2.21      0.00
   11   12    1      5.90      0.00
   12   12    1      2.94      0.00
  -12   13    1     -0.86      0.00
  -11   13    1      0.63      0.00
  -10   13    1      8.02      0.00
   -9   13    1     -5.27      0.00
   -8   13    1      6.82      0.00
   -7   13    1     -0.98      0.00
   -6   13    1     -9.23      0.00
   -5   13    1     -8.05      0.00
   -4   13    1    -13.79      0.00
   -3   13    1     -0.92      0.00
   -2   13    1    -26.17      0.00
   -1   13    1     -4.44      0.00
    0   13    1    -11.38      0.00
    1   13    1      3.37      0.00
    2   13    1     -4.63      0.00
    3   13    1     -3.26      0.00
    4   13    1      7.88      0.00
    5   13    1      2.78      0.00
    6   13    1      3.29      0.00
    7   13    1     -4.48      0.00
    8   13    1      6.62      0.00
    9   13    1      1.71      0.00
   10   13    1     -0.81      0.00
   11   13    1     -2.83      0.00
   12   13    1      2.21      0.00
   13   13    1      1.25      0.00
  -12   14    1     -1.37      0.00
  -11   14    1      0.93      0.00
  -10   14    1      0.38      0.00
   -9   14    1    -21.69      0.00
   -8   14    1     -3.56      0.00
   -7   14    1    -28.97      0.00
   -6   14    1      3.03      0.00
   -5   14    1    -36.55      0.00
   -4   14    1     -1.44      0.00
   -3   14    1    -34.25      0.00
   -2   14    1      5.98      0.00
   -1   14    1     -6.04      0.00
    0   14    1     -1.03      0.00
    1   14    1    -13.30      0.00
    2   14    1      4.23      0.00
    3   14    1      8.49      0.00
    4   14    1     -5.22      0.00
    5   14    1    -17.63      0.00
    6   14    1      2.64      0.00
    7   14    1     -0.66      0.00
    8   14    1     -3.92      0.00
    9   14    1    -14.36      0.00
   10   14    1      2.86      0.00
   11   14    1      3.17      0.00
   12   14    1     -2.90      0.00
   13   14    1     -0.58      0.00
   14   14    1      0.86      0.00
  -14   15    1      0.92      0.00
  -13   15    1      1.48      0.00
  -12   15    1     -3.55      0.00
  -11   15    1     -0.47      0.00
  -10   15    1     -9.41      0.00
   -9   15    1      5.21      0.00
   -8   15    1     -5.17      0.00
   -7   15    1      0.24      0.00
   -6   15    1     -1.25      0.00
   -5   15    1      7.42      0.00
   -4   15    1     13.61      0.00
   -3   15    1      0.01      0.00
   -2   15    1     13.48      0.00
   -1   15    1      4.24      0.00
    0   15    1      7.17      0.00
    1   15    1     -2.83      0.00
    2   15    1     -3.67      0.00
    3   15    1      2.64      0.00
    4   15    1     -6.79      0.00
    5   15    1     -1.56      0.00
    6   15    1     -5.39      0.00
    7   15    1      3.60      0.00
    8   15    1     -3.01      0.00
    9   15    1     -1.53      0.00
   10   15    1     -3.00      0.00
   11   15    1      3.06      0.00
   12   15    1     -0.97      0.00
   13   15    1     -1.36      0.00
   14   15    1     -3.63      0.00
   15   15    1      0.62      0.00
  -15   16    1      2.79      0.00
  -14   16    1     -0.90      0.00
  -13   16    1     -2.81      0.00
  -12   16    1      1.71      0.00
  -11   16    1      8.04      0.00
  -10   16    1     -0.34      0.00
   -9   16    1     14.83      0.00
   -8   16    1      3.86      0.00
   -7   16    1     30.42      0.00
   -6   16    1     -2.73      0.00
   -5   16    1     29.88      0.00
   -4   16    1      1.35      0.00
   -3   16    1     25.75      0.00
   -2   16    1     -4.07      0.00
   -1   16    1      7.96      0.00
    0   16    1      0.36      0.00
    1   16    1     -1.07      0.00
    2   16    1     -0.79      0.00
    3   16    1     10.70      0.00
    4   16    1      2.24      0.00
    5   16    1     -1.37      0.00
    6   16    1     -0.11      0.00
    7   16    1     15.75      0.00
    8   16    1      1.85      0.00
    9   16    1     -4.70      0.00
   10   16    1     -1.52      0.00
   11   16    1      7.74      0.00
   12   16    1      1.44      0.00
   13   16    1     -7.02      0.00
   14   16    1      0.43      0.00
   15   16    1      4.28      0.00
   16   16    1      0.24      0.00
  -16   17    1     -0.72      0.00
  -15   17    1     -0.14      0.00
  -14   17    1     -0.56      0.00
  -13   17    1     -1.49      0.00
  -12   17    1      5.20      0.00
  -11   17    1      0.72      0.00
  -10   17    1     10.27      0.00
   -9   17    1     -4.94      0.00
   -8   17    1      6.73      0.00
   -7   17    1      0.68      0.00
   -6   17    1      3.22      0.00
   -5   17    1     -6.82      0.00
   -4   17    1     -5.34      0.00
   -3   17    1      0.56      0.00
   -2   17    1     -9.98      0.00
   -1   17    1     -3.91      0.00
    0   17    1      1.29      0.00
    1   17    1      2.40      0.00
    2   17    1      6.52      0.00
    3   17    1     -2.75      0.00
    4   17    1      4.88      0.00
    5   17    1      1.96      0.00
    6   17    1      8.98      0.00
    7   17    1     -3.84      0.00
    8   17    1     -1.19      0.00
    9   17    1      1.88      0.00
   10   17    1      6.33      0.00
   11   17    1     -2.54      0.00
   12   17    1     -1.21      0.00
   13   17    1      1.26      0.00
   14   17    1      3.91      0.00
   15   17    1     -1.06      0.00
   16   17    1     -0.73      0.00
  -15   18    1      1.32      0.00
  -14   18    1      0.21      0.00
  -13   18    1     -2.56      0.00
  -12   18    1     -1.93      0.00
  -11   18    1     -1.99      0.00
  -10   18    1      0.46      0.00
   -9   18    1    -18.25      0.00
   -8   18    1     -2.91      0.00
   -7   18    1    -18.82      0.00
   -6   18    1      1.63      0.00
   -5   18    1    -28.70      0.00
   -4   18    1     -0.97      0.00
   -3   18    1    -11.20      0.00
   -2   18    1      3.06      0.00
   -1   18    1    -10.71      0.00
    0   18    1     -1.57      0.00
    1   18    1      2.59      0.00
    2   18    1      0.81      0.00
    3   18    1     -6.43      0.00
    4   18    1     -3.22      0.00
    5   18    1     -5.48      0.00
    6   18    1      1.15      0.00
    7   18    1     -3.47      0.00
    8   18    1     -1.53      0.00
    9   18    1     -1.82      0.00
   10   18    1      1.16      0.00
   11   18    1      2.72      0.00
   12   18    1     -1.71      0.00
   13   18    1     -2.61      0.00
   14   18    1      0.20      0.00
   15   18    1      0.35      0.00
  -14   19    1     -2.33      0.00
  -13   19    1      0.52      0.00
  -12   19    1     -3.33      0.00
  -11   19    1      0.17      0.00
  -10   19    1     -9.66      0.00
   -9   19    1      3.30      0.00
   -8   19    1     -8.12      0.00
   -7   19    1     -0.66      0.00
   -6   19    1     -2.69      0.00
   -5   19    1      5.85      0.00
   -4   19    1      2.34      0.00
   -3   19    1     -0.34      0.00
   -2   19    1      0.23      0.00
   -1   19    1      2.41      0.00
    0   19    1      0.90      0.00
    1   19    1     -1.12      0.00
    2   19    1     -9.13      0.00
    3   19    1      1.41      0.00
    4   19    1     -6.02      0.00
    5   19    1     -0.61      0.00
    6   19    1     -5.05      0.00
    7   19    1      1.91      0.00
    8   19    1     -3.11      0.00
    9   19    1     -1.58      0.00
   10   19    1     -0.48      0.00
   11   19    1      2.43      0.00
   12   19    1     -3.20      0.00
   13   19    1     -1.46      0.00
  -12   20    1      0.78      0.00
  -11   20    1      2.32      0.00
  -10   20    1     -0.05      0.00
   -9   20    1      9.40      0.00
   -8   20    1      2.28      0.00
   -7   20    1     18.41      0.00
   -6   20    1     -1.87      0.00
   -5   20    1     10.18      0.00
   -4   20    1      1.28      0.00
   -3   20    1     13.74      0.00
   -2   20    1     -2.36      0.00
   -1   20    1      1.26      0.00
    0   20    1      2.24      0.00
    1   20    1      4.31      0.00
    2   20    1     -0.12      0.00
    3   20    1      0.12      0.00
    4   20    1      1.89      0.00
    5   20    1      6.23      0.00
    6   20    1     -0.75      0.00
    7   20    1      0.88      0.00
    8   20    1      1.22      0.00
    9   20    1     -0.88      0.00
   10   20    1     -1.36      0.00
   11   20    1     -1.02      0.00
   12   20    1      1.88      0.00
  -10   21    1      6.43      0.00
   -9   21    1     -2.32      0.00
   -8   21    1      7.53      0.00
   -7   21    1     -0.51      0.00
   -6   21    1     -0.35      0.00
   -5   21    1     -2.93      0.00
   -4   21    1      3.35      0.00
   -3   21    1     -1.07      0.00
   -2   21    1     -3.00      0.00
   -1   21    1     -0.44      0.00
    0   21    1      5.41      0.00
    1   21    1      0.01      0.00
    2   21    1      2.57      0.00
    3   21    1     -0.35      0.00
    4   21    1      8.36      0.00
    5   21    1      0.41      0.00
    6   21    1      2.63      0.00
    7   21    1     -0.95      0.00
    8   21    1      1.72      0.00
    9   21    1      1.07      0.00
   10   21    1      0.72      0.00
   -6   22    1      1.00      0.00
   -5   22    1     -7.08      0.00
   -4   22    1     -0.63      0.00
   -3   22    1     -5.23      0.00
   -2   22    1      1.35      0.00
   -1   22    1     -2.41      0.00
    0   22    1     -2.31      0.00
    1   22    1     -0.10      0.00
    2   22    1      0.62      0.00
    3   22    1     -4.74      0.00
    4   22    1     -1.30      0.00
    5   22    1      1.29      0.00
    6   22    1      0.70      0.00
    7   22    1     -3.79      0.00
    8   22    1     -0.79      0.00
    9   22    1      3.37      0.00
   -4   23    1      1.40      0.00
   -3   23    1     -0.70      0.00
   -2   23    1     -1.16      0.00
   -1   23    1      1.49      0.00
    0   23    1     -1.25      0.00
    1   23    1     -0.81      0.00
    2   23    1     -4.75      0.00
    3   23    1      0.35      0.00
    4   23    1     -1.44      0.00
    5   23    1     -0.69      0.00
    6   23    1     -4.07      0.00
    0    0    2   -269.45      0.00
    0    1    2     40.30      0.00
    1    1    2     80.87      0.00
   -1    2    2     -9.47      0.00
    0    2    2     36.59      0.00
    1    2    2     15.73      0.00
    2    2    2    155.06      0.00
   -2    3    2    -27.30      0.00
   -1    3    2     22.53      0.00
    0    3    2    -16.78      0.00
    1    3    2     11.93      0.00
    2    3    2    -28.53      0.00
    3    3    2    -48.03      0.00
   -3    4    2     -4.62      0.00
   -2    4    2    -61.27      0.00
   -1    4    2    -24.10      0.00
    0    4    2   -110.85      0.00
    1    4    2     21.05      0.00
    2    4    2    -15.39      0.00
    3    4    2    -11.37      0.00
    4    4    2    -54.98      0.00
   -4    5    2     18.01      0.00
   -3    5    2    -26.81      0.00
   -2    5    2      8.83      0.00
   -1    5    2    -50.19      0.00
    0    5    2     31.89      0.00
    1    5    2     26.84      0.00
    2    5    2     -3.13      0.00
    3    5    2    -28.75      0.00
    4    5    2     21.86      0.00
    5    5    2     55.13      0.00
   -5    6    2     16.76      0.00
   -4    6    2     41.90      0.00
   -3    6    2     12.77      0.00
   -2    6    2     66.54      0.00
   -1    6    2      9.11      0.00
    0    6    2     48.49      0.00
    1    6    2     -3.93      0.00
    2    6    2     47.22      0.00
    3    6    2     -2.65      0.00
    4    6    2     -5.69      0.00
    5    6    2     -3.13      0.00
    6    6    2      7.44      0.00
   -6    7    2      2.80      0.00
   -5    7    2     61.48      0.00
   -4    7    2    -12.12      0.00
   -3    7    2     31.47      0.00
   -2    7    2    -12.08      0.00
   -1    7    2     30.74      0.00
    0    7    2    -14.49      0.00
    1    7    2      4.91      0.00
    2    7    2    -10.57      0.00
    3    7    2    -12.13      0.00
    4    7    2      1.01      0.00
    5    7    2     10.02      0.00
    6    7    2     -3.98      0.00
    7    7    2     -5.28      0.00
   -7    8    2     -9.59      0.00
   -6    8    2    -12.45      0.00
   -5    8    2    -12.63      0.00
   -4    8    2    -33.57      0.00
   -3    8    2    -11.54      0.00
   -2    8    2    -49.80      0.00
   -1    8    2     -6.91      0.00
    0    8    2    -33.01      0.00
    1    8    2      3.40      0.00
    2    8    2    -29.80      0.00
    3    8    2      0.50      0.00
    4    8    2      4.99      0.00
    5    8    2      1.66      0.00
    6    8    2      1.31      0.00
    7    8    2     -2.45      0.00
    8    8    2      6.60      0.00
   -8    9    2     -4.81      0.00
   -7    9    2    -38.71      0.00
   -6    9    2      4.10      0.00
   -5    9    2    -35.53      0.00
   -4    9    2      5.27      0.00
   -3    9    2    -44.16      0.00
   -2    9    2     12.27      0.00
   -1    9    2    -20.16      0.00
    0    9    2      9.95      0.00
    1    9    2     -4.82      0.00
    2    9    2      5.36      0.00
    3    9    2     -1.59      0.00
    4    9    2      2.84      0.00
    5    9    2      4.92      0.00
    6    9    2     -5.56      0.00
    7    9    2    -23.37      0.00
    8    9    2      2.23      0.00
    9    9    2     -0.60      0.00
   -9   10    2      4.93      0.00
   -8   10    2    -11.82      0.00
   -7   10    2      8.91      0.00
   -6   10    2     19.64      0.00
   -5   10    2     12.39      0.00
   -4   10    2     18.55      0.00
   -3   10    2      7.83      0.00
   -2   10    2     41.85      0.00
   -1   10    2      6.52      0.00
    0   10    2     21.98      0.00
    1   10    2     -2.98      0.00
    2   10    2     14.16      0.00
    3   10    2      0.73      0.00
    4   10    2     -2.40      0.00
    5   10    2     -1.41      0.00
    6   10    2     -5.51      0.00
    7   10    2      5.22      0.00
    8   10    2     -3.58      0.00
    9   10    2     -0.22      0.00
   10   10    2      1.19      0.00
  -10   11    2      4.03      0.00
   -9   11    2     24.94      0.00
   -8   11    2     -0.89      0.00
   -7   11    2     16.24      0.00
   -6   11    2      3.02      0.00
   -5   11    2     57.36      0.00
   -4   11    2    -11.35      0.00
   -3   11    2     17.05      0.00
   -2   11    2     -2.22      0.00
   -1   11    2     37.32      0.00
    0   11    2    -14.19      0.00
    1   11    2    -11.27      0.00
    2   11    2      1.42      0.00
    3   11    2     15.37      0.00
    4   11    2     -2.44      0.00
    5   11    2     -6.69      0.00
    6   11    2      4.87      0.00
    7   11    2     19.41      0.00
    8   11    2     -0.82      0.00
    9   11    2      6.86      0.00
   10   11    2      1.66      0.00
   11   11    2      8.34      0.00
  -11   12    2     -1.80      0.00
  -10   12    2      3.39      0.00
   -9   12    2     -5.46      0.00
   -8   12    2      5.47      0.00
   -7   12    2     -6.75      0.00
   -6   12    2     -5.37      0.00
   -5   12    2    -13.06      0.00
   -4   12    2    -26.84      0.00
   -3   12    2     -4.76      0.00
   -2   12    2    -14.98      0.00
   -1   12    2     -7.26      0.00
    0   12    2    -28.79      0.00
    1   12    2      4.59      0.00
    2   12    2      4.72      0.00
    3   12    2     -2.77      0.00
    4   12    2     -1.79      0.00
    5   12    2      0.76      0.00
    6   12    2      8.02      0.00
    7   12    2     -4.07      0.00
    8   12    2      3.63      0.00
    9   12    2     -0.80      0.00
   10   12    2     -1.07      0.00
   11   12    2     -1.57      0.00
   12   12    2      3.68      0.00
  -12   13    2     -1.56      0.00
  -11   13    2      0.41      0.00
  -10   13    2     -1.38      0.00
   -9   13    2    -17.49      0.00
   -8   13    2     -2.65      0.00
   -7   13    2    -30.67      0.00
   -6   13    2      0.95      0.00
   -5   13    2    -35.87      0.00
   -4   13    2      3.46      0.00
   -3   13    2    -32.87      0.00
   -2   13    2      7.61      0.00
   -1   13    2    -14.64      0.00
    0   13    2      4.91      0.00
    1   13    2     -4.33      0.00
    2   13    2      2.08      0.00
    3   13    2     -2.51      0.00
    4   13    2     -2.11      0.00
    5   13    2     -6.08      0.00
    6   13    2     -1.87      0.00
    7   13    2    -10.03      0.00
    8   13    2     -1.81      0.00
    9   13    2     -8.66      0.00
   10   13    2      0.22      0.00
   11   13    2     -4.24      0.00
   12   13    2     -1.03      0.00
   13   13    2      3.67      0.00
  -13   14    2      1.61      0.00
  -12   14    2      0.23      0.00
  -11   14    2      1.30      0.00
  -10   14    2     -9.40      0.00
   -9   14    2      6.04      0.00
   -8   14    2     -6.21      0.00
   -7   14    2      7.16      0.00
   -6   14    2      6.66      0.00
   -5   14    2      8.54      0.00
   -4   14    2      7.39      0.00
   -3   14    2      7.50      0.00
   -2   14    2     26.46      0.00
   -1   14    2      1.62      0.00
    0   14    2     -2.19      0.00
    1   14    2      1.64      0.00
    2   14    2     12.96      0.00
    3   14    2     -2.29      0.00
    4   14    2    -19.50      0.00
    5   14    2      3.48      0.00
    6   14    2      7.00      0.00
    7   14    2      1.10      0.00
    8   14    2    -14.33      0.00
    9   14    2      3.40      0.00
   10   14    2      7.75      0.00
   11   14    2     -0.29      0.00
   12   14    2     -8.16      0.00
   13   14    2      1.90      0.00
   14   14    2     -0.31      0.00
  -14   15    2     -1.01      0.00
  -13   15    2      0.52      0.00
  -12   15    2      1.19      0.00
  -11   15    2      3.07      0.00
  -10   15    2      2.88      0.00
   -9   15    2     19.73      0.00
   -8   15    2      2.20      0.00
   -7   15    2     24.43      0.00
   -6   15    2      0.52      0.00
   -5   15    2     38.07      0.00
   -4   15    2     -3.25      0.00
   -3   15    2     22.20      0.00
   -2   15    2     -4.31      0.00
   -1   15    2     13.78      0.00
    0   15    2     -4.31      0.00
    1   15    2     -0.08      0.00
    2   15    2      0.34      0.00
    3   15    2      5.83      0.00
    4   15    2      2.47      0.00
    5   15    2      4.67      0.00
    6   15    2      1.57      0.00
    7   15    2     10.35      0.00
    8   15    2      1.13      0.00
    9   15    2      2.86      0.00
   10   15    2      0.60      0.00
   11   15    2      3.30      0.00
   12   15    2     -0.19      0.00
   13   15    2     -3.46      0.00
   14   15    2      1.46      0.00
   15   15    2      0.46      0.00
  -15   16    2     -1.24      0.00
  -14   16    2     -4.94      0.00
  -13   16    2     -0.66      0.00
  -12   16    2      9.51      0.00
  -11   16    2     -2.38      0.00
  -10   16    2      3.28      0.00
   -9   16    2     -4.42      0.00
   -8   16    2     13.39      0.00
   -7   16    2     -6.53      0.00
   -6   16    2     -5.72      0.00
   -5   16    2     -7.23      0.00
   -4   16    2     -1.54      0.00
   -3   16    2     -5.32      0.00
   -2   16    2    -15.72      0.00
   -1   16    2     -2.97      0.00
    0   16    2     -1.04      0.00
    1   16    2      0.92      0.00
    2   16    2      6.80      0.00
    3   16    2     -2.27      0.00
    4   16    2      1.54      0.00
    5   16    2      0.67      0.00
    6   16    2     11.01      0.00
    7   16    2     -3.98      0.00
    8   16    2     -2.64      0.00
    9   16    2     -0.79      0.00
   10   16    2      7.36      0.00
   11   16    2     -1.97      0.00
   12   16    2     -2.50      0.00
   13   16    2      0.86      0.00
   14   16    2      5.68      0.00
   15   16    2     -0.93      0.00
   16   16    2     -0.01      0.00
  -16   17    2      0.21      0.00
  -15   17    2     -0.74      0.00
  -14   17    2     -0.15      0.00
  -13   17    2     -0.44      0.00
  -12   17    2     -0.73      0.00
  -11   17    2     -2.72      0.00
  -10   17    2     -3.90      0.00
   -9   17    2    -19.32      0.00
   -8   17    2     -1.12      0.00
   -7   17    2    -20.72      0.00
   -6   17    2     -1.66      0.00
   -5   17    2    -30.07      0.00
   -4   17    2      3.15      0.00
   -3   17    2    -18.53      0.00
   -2   17    2      1.90      0.00
   -1   17    2     -6.94      0.00
    0   17    2      3.10      0.00
    1   17    2     -0.74      0.00
    2   17    2     -2.83      0.00
    3   17    2     -6.89      0.00
    4   17    2     -0.84      0.00
    5   17    2     -1.56      0.00
    6   17    2     -3.36      0.00
    7   17    2    -10.96      0.00
    8   17    2      0.91      0.00
    9   17    2      4.18      0.00
   10   17    2     -0.83      0.00
   11   17    2     -5.05      0.00
   12   17    2     -0.29      0.00
   13   17    2      4.53      0.00
   14   17    2     -1.63      0.00
   15   17    2     -3.18      0.00
   16   17    2     -0.21      0.00
  -15   18    2      0.94      0.00
  -14   18    2     -1.39      0.00
  -13   18    2      0.31      0.00
  -12   18    2     -3.92      0.00
  -11   18    2      2.64      0.00
  -10   18    2     -9.31      0.00
   -9   18    2      3.47      0.00
   -8   18    2     -7.72      0.00
   -7   18    2      3.84      0.00
   -6   18    2     -3.69      0.00
   -5   18    2      7.35      0.00
   -4   18    2      5.13      0.00
   -3   18    2      3.88      0.00
   -2   18    2      1.90      0.00
   -1   18    2      1.88      0.00
    0   18    2      1.70      0.00
    1   18    2      0.93      0.00
    2   18    2     -7.61      0.00
    3   18    2     -0.53      0.00
    4   18    2     -7.48      0.00
    5   18    2      2.29      0.00
    6   18    2     -2.45      0.00
    7   18    2      1.47      0.00
    8   18    2     -6.00      0.00
    9   18    2      0.33      0.00
   10   18    2      2.07      0.00
   11   18    2      1.17      0.00
   12   18    2     -6.01      0.00
   13   18    2      0.16      0.00
   14   18    2      2.62      0.00
   15   18    2      0.44      0.00
  -14   19    2      0.27      0.00
  -13   19    2      1.87      0.00
  -12   19    2      1.88      0.00
  -11   19    2      1.38      0.00
  -10   19    2      1.79      0.00
   -9   19    2     14.35      0.00
   -8   19    2      1.13      0.00
   -7   19    2     16.30      0.00
   -6   19    2      1.71      0.00
   -5   19    2     20.61      0.00
   -4   19    2     -2.65      0.00
   -3   19    2      9.40      0.00
   -2   19    2     -1.38      0.00
   -1   19    2      9.37      0.00
    0   19    2      0.21      0.00
    1   19    2     -2.86      0.00
    2   19    2      2.40      0.00
    3   19    2      6.54      0.00
    4   19    2      1.83      0.00
    5   19    2      2.49      0.00
    6   19    2      0.96      0.00
    7   19    2      3.78      0.00
    8   19    2     -0.22      0.00
    9   19    2     -1.08      0.00
   10   19    2      0.87      0.00
   11   19    2     -1.01      0.00
   12   19    2      0.03      0.00
   13   19    2      1.47      0.00
  -12   20    2      3.99      0.00
  -11   20    2     -1.23      0.00
  -10   20    2      5.44      0.00
   -9   20    2     -2.25      0.00
   -8   20    2     10.84      0.00
   -7   20    2     -3.82      0.00
   -6   20    2     -2.50      0.00
   -5   20    2     -4.79      0.00
   -4   20    2      5.27      0.00
   -3   20    2     -3.91      0.00
   -2   20    2     -5.66      0.00
   -1   20    2      0.05      0.00
    0   20    2      6.55      0.00
    1   20    2     -1.50      0.00
    2   20    2      1.46      0.00
    3   20    2      0.54      0.00
    4   20    2     10.17      0.00
    5   20    2     -1.10      0.00
    6   20    2      1.46      0.00
    7   20    2     -0.37      0.00
    8   20    2      3.70      0.00
    9   20    2     -0.72      0.00
   10   20    2     -0.99      0.00
   11   20    2      0.20      0.00
   12   20    2      2.61      0.00
  -10   21    2     -1.89      0.00
   -9   21    2     -7.06      0.00
   -8   21    2     -0.99      0.00
   -7   21    2    -10.84      0.00
   -6   21    2      1.03      0.00
   -5   21    2     -8.75      0.00
   -4   21    2     -0.61      0.00
   -3   21    2     -8.42      0.00
   -2   21    2      2.38      0.00
   -1   21    2     -1.90      0.00
    0   21    2     -2.81      0.00
    1   21    2     -2.97      0.00
    2   21    2     -1.21      0.00
    3   21    2     -0.75      0.00
    4   21    2     -1.17      0.00
    5   21    2     -3.53      0.00
    6   21    2     -0.39      0.00
    7   21    2     -0.94      0.00
    8   21    2      0.50      0.00
    9   21    2      1.97      0.00
   10   21    2     -0.89      0.00
   -6   22    2     -0.88      0.00
   -5   22    2      3.55      0.00
   -4   22    2     -1.68      0.00
   -3   22    2      2.41      0.00
   -2   22    2      0.90      0.00
   -1   22    2     -1.01      0.00
    0   22    2     -2.59      0.00
    1   22    2      2.11      0.00
    2   22    2     -5.15      0.00
    3   22    2     -1.87      0.00
    4   22    2     -2.26      0.00
    5   22    2      1.08      0.00
    6   22    2     -5.38      0.00
    7   22    2     -0.64      0.00
    8   22    2      1.13      0.00
   -4   23    2     -1.64      0.00
   -3   23    2      1.36      0.00
   -2   23    2      1.66      0.00
   -1   23    2      2.52      0.00
    0   23    2     -0.07      0.00
    1   23    2     -0.35      0.00
    2   23    2      1.53      0.00
    3   23    2      3.51      0.00
    4   23    2     -0.51      0.00
    5   23    2     -0.89      0.00
    6   23    2      0.69      0.00
    0    0    3     93.02      0.00
    0    1    3    144.19      0.00
    1    1    3    -12.54      0.00
   -1    2    3    -31.78      0.00
    0    2    3    -16.93      0.00
    1    2    3     55.94      0.00
    2    2    3    -48.38      0.00
   -2    3    3    -91.71      0.00
   -1    3    3      5.75      0.00
    0    3    3    -62.77      0.00
    1    3    3    -16.96      0.00
    2    3    3    -87.33      0.00
    3    3    3     33.82      0.00
   -3    4    3    -25.08      0.00
   -2    4    3      6.12      0.00
   -1    4    3    -48.62      0.00
    0    4    3     57.38      0.00
    1    4    3     31.86      0.00
    2    4    3     -7.37      0.00
    3    4    3    -25.50      0.00
    4    4    3     33.42      0.00
   -4    5    3     46.77      0.00
   -3    5    3     16.23      0.00
   -2    5    3     54.93      0.00
   -1    5    3     19.49      0.00
    0    5    3     73.07      0.00
    1    5    3    -16.47      0.00
    2    5    3     18.67      0.00
    3    5    3      9.37      0.00
    4    5    3     40.47      0.00
    5    5    3    -21.29      0.00
   -5    6    3     42.98      0.00
   -4    6    3    -20.51      0.00
   -3    6    3     39.28      0.00
   -2    6    3    -16.47      0.00
   -1    6    3     20.38      0.00
    0    6    3    -29.83      0.00
    1    6    3     11.49      0.00
    2    6    3     -9.30      0.00
    3    6    3    -17.00      0.00
    4    6    3    -10.03      0.00
    5    6    3      6.93      0.00
    6    6    3      6.39      0.00
   -6    7    3      0.39      0.00
   -5    7    3    -18.62      0.00
   -4    7    3    -43.04      0.00
   -3    7    3    -20.04      0.00
   -2    7    3    -47.71      0.00
   -1    7    3     -4.87      0.00
    0    7    3    -37.26      0.00
    1    7    3     -3.87      0.00
    2    7    3    -35.30      0.00
    3    7    3     13.77      0.00
    4    7    3     10.44      0.00
    5    7    3    -10.41      0.00
    6    7    3    -12.87      0.00
    7    7    3     11.05      0.00
   -7    8    3    -23.94      0.00
   -6    8    3     -0.87      0.00
   -5    8    3    -41.57      0.00
   -4    8    3     14.78      0.00
   -3    8    3    -36.95      0.00
   -2    8    3     13.58      0.00
   -1    8    3    -19.45      0.00
    0    8    3     22.89      0.00
    1    8    3    -10.45      0.00
    2    8    3      5.31      0.00
    3    8    3      8.45      0.00
    4    8    3      6.82      0.00
    5    8    3     -3.84      0.00
    6    8    3     -6.70      0.00
    7    8    3     -9.93      0.00
    8    8    3     -0.69      0.00
   -8    9    3    -17.31      0.00
   -7    9    3     21.95      0.00
   -6    9    3     24.80      0.00
   -5    9    3      8.59      0.00
   -4    9    3     17.10      0.00
   -3    9    3     22.32      0.00
   -2    9    3     45.70      0.00
   -1    9    3      0.21      0.00
    0    9    3     21.92      0.00
    1    9    3      3.48      0.00
    2    9    3     19.58      0.00
    3    9    3     -5.46      0.00
    4    9    3     -1.94      0.00
    5    9    3      1.62      0.00
    6    9    3     -8.38      0.00
    7    9    3      4.20      0.00
    8    9    3      4.52      0.00
    9    9    3      2.87      0.00
   -9   10    3      5.83      0.00
   -8   10    3     -0.72      0.00
   -7   10    3     33.94      0.00
   -6   10    3      2.26      0.00
   -5   10    3     31.27      0.00
   -4   10    3    -14.49      0.00
   -3   10    3     40.63      0.00
   -2   10    3     -8.70      0.00
   -1   10    3     14.66      0.00
    0   10    3    -18.92      0.00
    1   10    3      7.89      0.00
    2   10    3     -0.98      0.00
    3   10    3      0.17      0.00
    4   10    3     -5.63      0.00
    5   10    3      2.67      0.00
    6   10    3      9.77      0.00
    7   10    3     12.13      0.00
    8   10    3     -4.48      0.00
    9   10    3     10.76      0.00
   10   10    3      6.76      0.00
  -10   11    3     10.30      0.00
   -9   11    3     -5.96      0.00
   -8   11    3     -3.83      0.00
   -7   11    3    -12.33      0.00
   -6   11    3      0.36      0.00
   -5   11    3    -17.62      0.00
   -4   11    3    -33.11      0.00
   -3   11    3     -8.52      0.00
   -2   11    3    -14.63      0.00
   -1   11    3     -9.79      0.00
    0   11    3    -30.61      0.00
    1   11    3      4.29      0.00
    2   11    3      2.19      0.00
    3   11    3     -0.25      0.00
    4   11    3     -4.29      0.00
    5   11    3     -2.20      0.00
    6   11    3      9.95      0.00
    7   11    3     -3.09      0.00
    8   11    3      0.77      0.00
    9   11    3     -4.70      0.00
   10   11    3     -0.96      0.00
   11   11    3      1.32      0.00
  -11   12    3     -2.09      0.00
  -10   12    3     -5.28      0.00
   -9   12    3    -13.99      0.00
   -8   12    3      1.64      0.00
   -7   12    3    -25.59      0.00
   -6   12    3     -5.58      0.00
   -5   12    3    -41.80      0.00
   -4   12    3     14.87      0.00
   -3   12    3    -21.11      0.00
   -2   12    3      3.04      0.00
   -1   12    3    -28.91      0.00
    0   12    3     18.54      0.00
    1   12    3      7.06      0.00
    2   12    3     -4.85      0.00
    3   12    3    -11.17      0.00
    4   12    3      4.96      0.00
    5   12    3      0.38      0.00
    6   12    3     -8.73      0.00
    7   12    3    -13.17      0.00
    8   12    3      3.18      0.00
    9   12    3     -8.44      0.00
   10   12    3     -4.58      0.00
   11   12    3     -4.54      0.00
   12   12    3      1.12      0.00
  -12   13    3     -0.41      0.00
  -11   13    3      5.53      0.00
  -10   13    3     -5.53      0.00
   -9   13    3      3.71      0.00
   -8   13    3     -7.91      0.00
   -7   13    3     16.10      0.00
   -6   13    3     10.69      0.00
   -5   13    3      8.80      0.00
   -4   13    3      9.28      0.00
   -3   13    3     15.79      0.00
   -2   13    3     23.85      0.00
   -1   13    3     -0.80      0.00
    0   13    3      8.03      0.00
    1   13    3      4.56      0.00
    2   13    3      5.10      0.00
    3   13    3     -4.79      0.00
    4   13    3     -7.84      0.00
    5   13    3      6.65      0.00
    6   13    3     -1.71      0.00
    7   13    3     -0.55      0.00
    8   13    3     -6.45      0.00
    9   13    3      7.25      0.00
   10   13    3      1.52      0.00
   11   13    3     -1.75      0.00
   12   13    3     -2.06      0.00
   13   13    3      2.44      0.00
  -13   14    3      4.00      0.00
  -12   14    3     -1.24      0.00
  -11   14    3     -0.39      0.00
  -10   14    3      6.62      0.00
   -9   14    3     18.00      0.00
   -8   14    3      0.03      0.00
   -7   14    3     26.89      0.00
   -6   14    3      2.96      0.00
   -5   14    3     30.88      0.00
   -4   14    3     -7.08      0.00
   -3   14    3     31.98      0.00
   -2   14    3     -7.28      0.00
   -1   14    3      4.66      0.00
    0   14    3     -7.21      0.00
    1   14    3     13.84      0.00
    2   14    3     -1.63      0.00
    3   14    3     -8.10      0.00
    4   14    3      3.19      0.00
    5   14    3     16.28      0.00
    6   14    3      3.12      0.00
    7   14    3     -0.14      0.00
    8   14    3      1.35      0.00
    9   14    3     14.52      0.00
   10   14    3      0.15      0.00
   11   14    3     -4.06      0.00
   12   14    3      1.04      0.00
   13   14    3      1.68      0.00
   14   14    3      0.65      0.00
  -14   15    3     -3.30      0.00
  -13   15    3      0.67      0.00
  -12   15    3      4.88      0.00
  -11   15    3     -5.30      0.00
  -10   15    3      7.04      0.00
   -9   15    3     -4.26      0.00
   -8   15    3      6.11      0.00
   -7   15    3    -13.84      0.00
   -6   15    3     -0.86      0.00
   -5   15    3     -8.05      0.00
   -4   15    3     -9.73      0.00
   -3   15    3    -12.06      0.00
   -2   15    3    -12.07      0.00
   -1   15    3     -1.16      0.00
    0   15    3     -5.72      0.00
    1   15    3     -2.73      0.00
    2   15    3      2.50      0.00
    3   15    3      2.57      0.00
    4   15    3      6.00      0.00
    5   15    3     -5.54      0.00
    6   15    3      4.12      0.00
    7   15    3     -0.56      0.00
    8   15    3      4.17      0.00
    9   15    3     -5.26      0.00
   10   15    3      0.58      0.00
   11   15    3     -0.13      0.00
   12   15    3      2.66      0.00
   13   15    3     -1.10      0.00
   14   15    3      2.84      0.00
   15   15    3      1.46      0.00
  -15   16    3     -3.27      0.00
  -14   16    3      1.25      0.00
  -13   16    3      4.54      0.00
  -12   16    3     -1.20      0.00
  -11   16    3     -8.78      0.00
  -10   16    3     -5.94      0.00
   -9   16    3    -11.30      0.00
   -8   16    3     -1.36      0.00
   -7   16    3    -29.47      0.00
   -6   16    3     -3.30      0.00
   -5   16    3    -23.62      0.00
   -4   16    3      6.26      0.00
   -3   16    3    -26.31      0.00
   -2   16    3      2.89      0.00
   -1   16    3     -5.60      0.00
    0   16    3      7.79      0.00
    1   16    3     -1.62      0.00
    2   16    3     -5.45      0.00
    3   16    3     -7.94      0.00
    4   16    3      2.16      0.00
    5   16    3      0.71      0.00
    6   16    3     -7.66      0.00
    7   16    3    -13.61      0.00
    8   16    3      2.73      0.00
    9   16    3      3.91      0.00
   10   16    3     -3.47      0.00
   11   16    3     -6.37      0.00
   12   16    3      2.87      0.00
   13   16    3      5.97      0.00
   14   16    3     -3.94      0.00
   15   16    3     -2.49      0.00
   16   16    3      0.09      0.00
  -16   17    3      1.23      0.00
  -15   17    3      1.51      0.00
  -14   17    3      0.96      0.00
  -13   17    3      0.61      0.00
  -12   17    3     -3.78      0.00
  -11   17    3      3.97      0.00
  -10   17    3     -9.69      0.00
   -9   17    3      4.28      0.00
   -8   17    3     -5.86      0.00
   -7   17    3     10.27      0.00
   -6   17    3     -2.31      0.00
   -5   17    3      7.62      0.00
   -4   17    3      3.48      0.00
   -3   17    3      8.98      0.00
   -2   17    3      8.41      0.00
   -1   17    3      2.31      0.00
    0   17    3     -0.43      0.00
    1   17    3      1.19      0.00
    2   17    3     -5.35      0.00
    3   17    3      0.15      0.00
    4   17    3     -4.41      0.00
    5   17    3      2.19      0.00
    6   17    3     -7.09      0.00
    7   17    3      2.95      0.00
    8   17    3      0.42      0.00
    9   17    3      2.73      0.00
   10   17    3     -5.40      0.00
   11   17    3     -0.38      0.00
   12   17    3      1.01      0.00
   13   17    3      1.09      0.00
   14   17    3     -3.75      0.00
   15   17    3     -0.26      0.00
   16   17    3      0.53      0.00
  -15   18    3     -0.02      0.00
  -14   18    3      0.14      0.00
  -13   18    3      0.74      0.00
  -12   18    3      1.70      0.00
  -11   18    3      2.65      0.00
  -10   18    3      5.08      0.00
   -9   18    3     14.61      0.00
   -8   18    3     -0.20      0.00
   -7   18    3     17.91      0.00
   -6   18    3      5.25      0.00
   -5   18    3     24.57      0.00
   -4   18    3     -6.51      0.00
   -3   18    3     11.20      0.00
   -2   18    3     -0.75      0.00
   -1   18    3      9.84      0.00
    0   18    3     -3.40      0.00
    1   18    3     -1.16      0.00
    2   18    3      3.70      0.00
    3   18    3      4.16      0.00
    4   18    3      2.47      0.00
    5   18    3      5.51      0.00
    6   18    3      2.83      0.00
    7   18    3      1.58      0.00
    8   18    3     -1.50      0.00
    9   18    3      2.65      0.00
   10   18    3      2.61      0.00
   11   18    3     -3.67      0.00
   12   18    3     -1.16      0.00
   13   18    3      3.10      0.00
   15   18    3     -1.76      0.00
  -13   19    3      0.46      0.00
  -12   19    3      2.36      0.00
  -11   19    3     -4.73      0.00
  -10   19    3      8.44      0.00
   -9   19    3     -1.74      0.00
   -8   19    3      6.93      0.00
   -7   19    3     -7.33      0.00
   -6   19    3      2.67      0.00
   -5   19    3     -7.40      0.00
   -4   19    3     -1.27      0.00
   -3   19    3     -6.89      0.00
   -2   19    3      0.03      0.00
   -1   19    3     -0.30      0.00
    0   19    3     -1.93      0.00
    1   19    3     -2.46      0.00
    2   19    3      8.46      0.00
    3   19    3      1.16      0.00
    4   19    3      4.37      0.00
    5   19    3     -3.12      0.00
    6   19    3      4.41      0.00
    7   19    3     -0.12      0.00
    8   19    3      2.71      0.00
    9   19    3     -2.20      0.00
   10   19    3     -0.26      0.00
   11   19    3      0.99      0.00
   12   19    3      3.13      0.00
   13   19    3     -1.26      0.00
  -12   20    3     -0.67      0.00
  -11   20    3     -3.05      0.00
  -10   20    3     -3.28      0.00
   -9   20    3     -6.60      0.00
   -8   20    3     -0.62      0.00
   -7   20    3    -15.20      0.00
   -6   20    3     -2.04      0.00
   -5   20    3    -10.16      0.00
   -4   20    3      2.96      0.00
   -3   20    3    -12.44      0.00
   -2   20    3      1.56      0.00
   -1   20    3     -0.59      0.00
    0   20    3     -1.51      0.00
    1   20    3     -5.31      0.00
    2   20    3     -2.77      0.00
    3   20    3      1.46      0.00
    4   20    3     -1.55      0.00
    5   20    3     -5.73      0.00
    6   20    3     -1.59      0.00
    7   20    3      0.42      0.00
    8   20    3      0.80      0.00
    9   20    3     -0.14      0.00
   10   20    3     -0.80      0.00
   11   20    3      1.77      0.00
   12   20    3     -0.42      0.00
  -10   21    3     -4.64      0.00
   -9   21    3      1.50      0.00
   -8   21    3     -6.70      0.00
   -7   21    3      6.51      0.00
   -6   21    3     -0.50      0.00
   -5   21    3      2.81      0.00
   -4   21    3     -2.81      0.00
   -3   21    3      7.26      0.00
   -2   21    3      1.99      0.00
   -1   21    3     -2.68      0.00
    0   21    3     -3.77      0.00
    1   21    3      3.23      0.00
    2   21    3     -2.79      0.00
    3   21    3     -1.87      0.00
    4   21    3     -6.23      0.00
    5   21    3      1.64      0.00
    6   21    3     -2.58      0.00
    7   21    3     -0.04      0.00
    8   21    3     -1.07      0.00
    9   21    3      0.53      0.00
   10   21    3      0.04      0.00
   -6   22    3      0.81      0.00
   -5   22    3      5.94      0.00
   -4   22    3     -1.50      0.00
   -3   22    3      4.79      0.00
   -2   22    3     -0.66      0.00
   -1   22    3      2.06      0.00
    0   22    3      3.27      0.00
    1   22    3      0.80      0.00
    2   22    3      0.18      0.00
    3   22    3      2.90      0.00
    4   22    3      1.77      0.00
    5   22    3     -0.73      0.00
    6   22    3     -0.60      0.00
    7   22    3      2.10      0.00
    8   22    3      0.17      0.00
   -3   23    3     -0.66      0.00
   -2   23    3      0.60      0.00
   -1   23    3     -1.33      0.00
    1   23    3      0.19      0.00
    2   23    3      4.07      0.00
    3   23    3      0.47      0.00
    4   23    3      1.03      0.00
    5   23    3      0.52      0.00
    0    0    4    199.58      0.00
    0    1    4    -56.98      0.00
    1    1    4    -35.45      0.00
   -1    2    4     20.78      0.00
    0    2    4    -33.19      0.00
    1    2    4    -30.52      0.00
    2    2    4   -107.05      0.00
   -2    3    4     48.83      0.00
   -1    3    4      3.88      0.00
    0    3    4     24.26      0.00
    1    3    4    -29.38      0.00
    2    3    4     48.40      0.00
    3    3    4     53.65      0.00
   -3    4    4      9.68      0.00
   -2    4    4     40.58      0.00
   -1    4    4     31.93      0.00
    0    4    4     87.68      0.00
    1    4    4    -25.94      0.00
    2    4    4      6.87      0.00
    3    4    4     11.02      0.00
    4    4    4     47.79      0.00
   -4    5    4    -24.73      0.00
   -3    5    4     36.03      0.00
   -2    5    4    -18.94      0.00
   -1    5    4     20.96      0.00
    0    5    4    -51.41      0.00
    1    5    4     -1.11      0.00
    2    5    4      1.75      0.00
    3    5    4      5.52      0.00
    4    5    4    -33.21      0.00
    5    5    4    -27.16      0.00
   -5    6    4    -26.73      0.00
   -4    6    4    -40.06      0.00
   -3    6    4    -21.43      0.00
   -2    6    4    -47.04      0.00
   -1    6    4    -11.94      0.00
    0    6    4    -40.85      0.00
    1    6    4      2.70      0.00
    2    6    4    -33.08      0.00
    3    6    4      8.62      0.00
    4    6    4      1.33      0.00
    5    6    4      1.17      0.00
    6    6    4     -2.14      0.00
   -6    7    4     -1.94      0.00
   -5    7    4    -37.89      0.00
   -4    7    4     17.21      0.00
   -3    7    4    -35.39      0.00
   -2    7    4     25.01      0.00
   -1    7    4    -12.44      0.00
    0    7    4     24.01      0.00
    1    7    4    -18.51      0.00
    2    7    4     20.52      0.00
    3    7    4     20.10      0.00
    4    7    4     -4.79      0.00
    5    7    4    -19.07      0.00
    6    7    4      8.82      0.00
    7    7    4     13.15      0.00
   -7    8    4     18.56      0.00
   -6    8    4      6.47      0.00
   -5    8    4     19.94      0.00
   -4    8    4     33.95      0.00
   -3    8    4     20.69      0.00
   -2    8    4     34.57      0.00
   -1    8    4      8.45      0.00
    0    8    4     29.02      0.00
    1    8    4     -1.11      0.00
    2    8    4     19.56      0.00
    3    8    4     -5.70      0.00
    4    8    4      0.22      0.00
    5    8    4      1.83      0.00
    6    8    4     -7.06      0.00
    7    8    4      1.97      0.00
    8    8    4      1.14      0.00
   -8    9    4     10.49      0.00
   -7    9    4     41.27      0.00
   -6    9    4     -9.55      0.00
   -5    9    4     17.44      0.00
   -4    9    4     -6.30      0.00
   -3    9    4     46.76      0.00
   -2    9    4    -25.55      0.00
   -1    9    4      5.85      0.00
    0    9    4    -16.10      0.00
    1    9    4     17.19      0.00
    2    9    4    -11.27      0.00
    3    9    4     -9.40      0.00
    4    9    4     -2.26      0.00
    5    9    4      8.16      0.00
    6    9    4      7.47      0.00
    7    9    4      8.76      0.00
    8    9    4     -1.81      0.00
    9    9    4     10.01      0.00
   -9   10    4     -6.32      0.00
   -8   10    4      4.87      0.00
   -7   10    4    -17.31      0.00
   -6   10    4    -13.47      0.00
   -5   10    4    -20.13      0.00
   -4   10    4    -18.69      0.00
   -3   10    4    -15.50      0.00
   -2   10    4    -30.65      0.00
   -1   10    4     -8.05      0.00
    0   10    4    -18.42      0.00
    1   10    4      1.61      0.00
    2   10    4     -8.73      0.00
    3   10    4      0.99      0.00
    4   10    4     -0.51      0.00
    5   10    4     -0.31      0.00
    6   10    4      7.95      0.00
    7   10    4     -7.58      0.00
    8   10    4     -1.69      0.00
    9   10    4     -2.21      0.00
   10   10    4      2.65      0.00
  -10   11    4     -5.66      0.00
   -9   11    4    -12.33      0.00
   -8   11    4     -0.06      0.00
   -7   11    4    -22.72      0.00
   -6   11    4     -4.04      0.00
   -5   11    4    -36.99      0.00
   -4   11    4     18.17      0.00
   -3   11    4    -23.42      0.00
   -2   11    4      7.30      0.00
   -1   11    4    -22.66      0.00
    0   11    4     22.73      0.00
    1   11    4     -1.16      0.00
    2   11    4     -0.43      0.00
    3   11    4     -4.06      0.00
    4   11    4      2.78      0.00
    5   11    4     -4.08      0.00
    6   11    4     -6.88      0.00
    7   11    4     -8.04      0.00
    8   11    4     -0.35      0.00
    9   11    4    -13.34      0.00
   10   11    4     -0.61      0.00
   11   11    4     -0.81      0.00
  -11   12    4      3.07      0.00
  -10   12    4     -7.54      0.00
   -9   12    4      8.62      0.00
   -8   12    4      1.07      0.00
   -7   12    4     13.87      0.00
   -6   12    4     -0.09      0.00
   -5   12    4     21.83      0.00
   -4   12    4     26.07      0.00
   -3   12    4      9.36      0.00
   -2   12    4      6.33      0.00
   -1   12    4     11.86      0.00
    0   12    4     27.24      0.00
    1   12    4     -6.39      0.00
    2   12    4     -8.84      0.00
    3   12    4      4.09      0.00
    4   12    4      6.07      0.00
    5   12    4      0.17      0.00
    6   12    4    -11.32      0.00
    7   12    4      7.12      0.00
    8   12    4      2.00      0.00
    9   12    4      2.27      0.00
   10   12    4     -3.18      0.00
   11   12    4      2.88      0.00
   12   12    4      0.90      0.00
  -12   13    4      0.82      0.00
  -11   13    4      4.90      0.00
  -10   13    4      3.68      0.00
   -9   13    4      7.86      0.00
   -8   13    4      4.77      0.00
   -7   13    4     33.31      0.00
   -6   13    4     -1.81      0.00
   -5   13    4     21.11      0.00
   -4   13    4     -5.26      0.00
   -3   13    4     35.41      0.00
   -2   13    4    -15.71      0.00
   -1   13    4      5.93      0.00
    0   13    4     -6.94      0.00
    1   13    4     11.43      0.00
    2   13    4     -5.95      0.00
    3   13    4     -4.10      0.00
    4   13    4      5.25      0.00
    5   13    4     12.15      0.00
    6   13    4      1.47      0.00
    7   13    4      2.14      0.00
    8   13    4      4.65      0.00
    9   13    4     13.28      0.00
   10   13    4     -1.87      0.00
   11   13    4     -0.93      0.00
   12   13    4      1.93      0.00
   13   13    4      0.57      0.00
  -13   14    4     -0.68      0.00
  -12   14    4     -3.49      0.00
  -11   14    4     -3.29      0.00
  -10   14    4     12.06      0.00
   -9   14    4     -9.28      0.00
   -8   14    4     -0.24      0.00
   -7   14    4    -15.29      0.00
   -6   14    4     -0.11      0.00
   -5   14    4    -13.99      0.00
   -4   14    4    -10.28      0.00
   -3   14    4    -15.08      0.00
   -2   14    4    -16.03      0.00
   -1   14    4     -1.93      0.00
    0   14    4     -1.57      0.00
    1   14    4     -4.26      0.00
    2   14    4     -6.81      0.00
    3   14    4      4.43      0.00
    4   14    4     11.66      0.00
    5   14    4     -7.51      0.00
    6   14    4     -1.66      0.00
    7   14    4     -0.81      0.00
    8   14    4      8.71      0.00
    9   14    4     -7.70      0.00
   10   14    4     -3.25      0.00
   11   14    4      1.31      0.00
   12   14    4      4.33      0.00
   13   14    4     -2.21      0.00
   14   14    4      2.55      0.00
  -14   15    4      2.36      0.00
  -13   15    4      3.95      0.00
  -12   15    4     -2.61      0.00
  -11   15    4     -7.54      0.00
  -10   15    4     -4.11      0.00
   -9   15    4    -10.60      0.00
   -8   15    4     -5.93      0.00
   -7   15    4    -27.69      0.00
   -6   15    4      0.62      0.00
   -5   15    4    -23.98      0.00
   -4   15    4      4.08      0.00
   -3   15    4    -25.48      0.00
   -2   15    4     10.33      0.00
   -1   15    4     -6.95      0.00
    0   15    4      5.94      0.00
    1   15    4     -6.40      0.00
    2   15    4      1.64      0.00
    3   15    4      0.46      0.00
    4   15    4     -4.60      0.00
    5   15    4     -9.29      0.00
    6   15    4     -2.90      0.00
    7   15    4     -2.84      0.00
    8   15    4     -2.33      0.00
    9   15    4     -8.85      0.00
   10   15    4     -0.25      0.00
   11   15    4      3.35      0.00
   12   15    4      0.10      0.00
   13   15    4     -0.95      0.00
   14   15    4     -0.71      0.00
   15   15    4      3.28      0.00
  -15   16    4      2.64      0.00
  -14   16    4      3.91      0.00
  -13   16    4     -0.39      0.00
  -12   16    4     -5.78      0.00
  -11   16    4      4.61      0.00
  -10   16    4     -5.98      0.00
   -9   16    4      7.70      0.00
   -8   16    4     -6.74      0.00
   -7   16    4     13.24      0.00
   -6   16    4      1.29      0.00
   -5   16    4     12.37      0.00
   -4   16    4      2.64      0.00
   -3   16    4     10.75      0.00
   -2   16    4      9.78      0.00
   -1   16    4      5.87      0.00
    0   16    4      3.06      0.00
    1   16    4     -2.08      0.00
    2   16    4     -7.50      0.00
    3   16    4      4.31      0.00
    4   16    4      1.62      0.00
    5   16    4     -0.73      0.00
    6   16    4    -12.43      0.00
    7   16    4      6.75      0.00
    8   16    4      5.53      0.00
    9   16    4      1.41      0.00
   10   16    4    -10.01      0.00
   11   16    4      3.51      0.00
   12   16    4      4.54      0.00
   13   16    4     -2.77      0.00
   14   16    4     -7.20      0.00
   15   16    4      1.19      0.00
   16   16    4      1.47      0.00
  -15   17    4      1.34      0.00
  -14   17    4     -1.21      0.00
  -13   17    4     -1.56      0.00
  -12   17    4      2.93      0.00
  -11   17    4      5.01      0.00
  -10   17    4      4.56      0.00
   -9   17    4     11.60      0.00
   -8   17    4      4.67      0.00
   -7   17    4     23.04      0.00
   -6   17    4      1.35      0.00
   -5   17    4     18.82      0.00
   -4   17    4     -3.88      0.00
   -3   17    4     21.41      0.00
   -2   17    4     -5.81      0.00
   -1   17    4      2.32      0.00
    0   17    4     -4.22      0.00
    1   17    4      5.56      0.00
    2   17    4      2.34      0.00
    3   17    4      0.95      0.00
    4   17    4      2.60      0.00
    5   17    4      5.57      0.00
    6   17    4      4.98      0.00
    7   17    4      4.28      0.00
    8   17    4     -0.40      0.00
    9   17    4      0.39      0.00
   10   17    4      0.90      0.00
   11   17    4      0.33      0.00
   12   17    4      0.11      0.00
   13   17    4     -1.48      0.00
   14   17    4      1.17      0.00
   15   17    4      0.10      0.00
  -14   18    4      0.65      0.00
  -13   18    4     -1.21      0.00
  -12   18    4      0.24      0.00
  -11   18    4     -3.25      0.00
  -10   18    4     11.17      0.00
   -9   18    4     -6.91      0.00
   -8   18    4      1.77      0.00
   -7   18    4     -7.43      0.00
   -6   18    4      7.74      0.00
   -5   18    4    -13.04      0.00
   -4   18    4     -7.39      0.00
   -3   18    4     -6.84      0.00
   -2   18    4      3.09      0.00
   -1   18    4     -5.22      0.00
    0   18    4     -5.24      0.00
    1   18    4      0.43      0.00
    2   18    4      8.36      0.00
    3   18    4     -0.75      0.00
    4   18    4      3.85      0.00
    5   18    4     -2.86      0.00
    6   18    4      3.70      0.00
    7   18    4     -2.79      0.00
    8   18    4      2.94      0.00
    9   18    4     -1.17      0.00
   10   18    4      0.86      0.00
   11   18    4     -0.94      0.00
   12   18    4      2.90      0.00
   13   18    4      0.59      0.00
  -12   19    4     -4.16      0.00
  -11   19    4     -3.58      0.00
  -10   19    4     -1.57      0.00
   -9   19    4     -7.59      0.00
   -8   19    4     -3.45      0.00
   -7   19    4    -17.07      0.00
   -6   19    4     -2.99      0.00
   -5   19    4    -12.96      0.00
   -4   19    4      4.26      0.00
   -3   19    4    -12.18      0.00
   -2   19    4      3.48      0.00
   -1   19    4     -5.33      0.00
    0   19    4     -1.07      0.00
    1   19    4     -0.52      0.00
    2   19    4     -1.38      0.00
    3   19    4     -2.33      0.00
    4   19    4     -4.56      0.00
    5   19    4     -4.27      0.00
    6   19    4     -0.65      0.00
    7   19    4      0.38      0.00
    8   19    4     -1.34      0.00
    9   19    4     -2.16      0.00
   10   19    4      0.74      0.00
   11   19    4      4.21      0.00
   12   19    4     -1.54      0.00
   13   19    4     -3.38      0.00
  -11   20    4      2.30      0.00
  -10   20    4     -6.13      0.00
   -9   20    4      3.10      0.00
   -8   20    4     -5.11      0.00
   -7   20    4      7.09      0.00
   -6   20    4     -3.07      0.00
   -5   20    4      7.54      0.00
   -4   20    4     -1.44      0.00
   -3   20    4      7.56      0.00
   -2   20    4      2.11      0.00
   -1   20    4     -0.05      0.00
    0   20    4     -3.51      0.00
    1   20    4      1.93      0.00
    2   20    4     -2.02      0.00
    3   20    4     -0.10      0.00
    4   20    4     -6.67      0.00
    5   20    4      1.00      0.00
    6   20    4     -2.13      0.00
    7   20    4      1.64      0.00
    8   20    4     -1.64      0.00
    9   20    4      0.69      0.00
   10   20    4     -0.42      0.00
   11   20    4     -0.91      0.00
   -9   21    4      1.63      0.00
   -8   21    4      2.49      0.00
   -7   21    4     10.49      0.00
   -6   21    4     -0.56      0.00
   -5   21    4      5.43      0.00
   -4   21    4      0.24      0.00
   -3   21    4      8.69      0.00
   -2   21    4     -4.06      0.00
   -1   21    4      0.34      0.00
    0   21    4      5.41      0.00
    1   21    4      4.13      0.00
    2   21    4     -0.52      0.00
    3   21    4     -1.24      0.00
    4   21    4      3.63      0.00
    5   21    4      3.31      0.00
    6   21    4     -0.51      0.00
    7   21    4     -0.91      0.00
    8   21    4      0.01      0.00
    9   21    4      0.34      0.00
   -5   22    4     -4.37      0.00
   -4   22    4      0.45      0.00
   -3   22    4     -4.53      0.00
   -2   22    4      0.81      0.00
   -1   22    4      1.22      0.00
    0   22    4      0.55      0.00
    1   22    4     -2.03      0.00
    2   22    4      4.80      0.00
    3   22    4      1.66      0.00
    4   22    4      1.08      0.00
    5   22    4     -1.03      0.00
    6   22    4      4.49      0.00
    7   22    4      0.12      0.00
   -2   23    4     -1.98      0.00
    1   23    4     -1.33      0.00
    2   23    4     -0.42      0.00
    3   23    4     -1.09      0.00
    0    0    5    -93.88      0.00
    0    1    5    -91.24      0.00
    1    1    5     23.25      0.00
   -1    2    5     25.28      0.00
    0    2    5      1.90      0.00
    1    2    5    -42.14      0.00
    2    2    5     80.63      0.00
   -2    3    5     66.27      0.00
   -1    3    5      0.43      0.00
    0    3    5     39.69      0.00
    1    3    5     11.88      0.00
    2    3    5     62.18      0.00
    3    3    5    -33.67      0.00
   -3    4    5     18.78      0.00
   -2    4    5    -26.60      0.00
   -1    4    5     30.60      0.00
    0    4    5    -56.28      0.00
    1    4    5    -16.57      0.00
    2    4    5    -10.26      0.00
    3    4    5     15.58      0.00
    4    4    5    -26.89      0.00
   -4    5    5    -30.17      0.00
   -3    5    5    -12.03      0.00
   -2    5    5    -44.36      0.00
   -1    5    5    -32.65      0.00
    0    5    5    -46.13      0.00
    1    5    5     28.80      0.00
    2    5    5    -18.38      0.00
    3    5    5    -19.03      0.00
    4    5    5    -24.89      0.00
    5    5    5     34.69      0.00
   -5    6    5    -29.19      0.00
   -4    6    5     14.85      0.00
   -3    6    5    -29.14      0.00
   -2    6    5     36.64      0.00
   -1    6    5    -12.19      0.00
    0    6    5     28.67      0.00
    1    6    5    -14.96      0.00
    2    6    5     26.38      0.00
    3    6    5     14.82      0.00
    4    6    5     -0.58      0.00
    5    6    5    -10.66      0.00
    6    6    5      3.92      0.00
   -6    7    5      1.79      0.00
   -5    7    5     33.17      0.00
   -4    7    5     33.27      0.00
   -3    7    5     18.49      0.00
   -2    7    5     36.42      0.00
   -1    7    5     13.24      0.00
    0    7    5     24.05      0.00
    1    7    5     -0.64      0.00
    2    7    5     27.33      0.00
    3    7    5    -12.39      0.00
    4    7    5     -8.35      0.00
    5    7    5      9.12      0.00
    6    7    5      9.69      0.00
    7    7    5     -8.07      0.00
   -7    8    5     18.93      0.00
   -6    8    5    -10.64      0.00
   -5    8    5     29.79      0.00
   -4    8    5     -8.66      0.00
   -3    8    5     27.63      0.00
   -2    8    5    -32.27      0.00
   -1    8    5     14.44      0.00
    0    8    5    -20.44      0.00
    1    8    5     12.27      0.00
    2    8    5    -20.36      0.00
    3    8    5     -5.73      0.00
    4    8    5      4.26      0.00
    5    8    5      4.33      0.00
    6    8    5     -2.91      0.00
    7    8    5      8.58      0.00
    8    8    5     11.76      0.00
   -8    9    5     12.41      0.00
   -7    9    5    -24.43      0.00
   -6    9    5    -21.34      0.00
   -5    9    5    -18.97      0.00
   -4    9    5    -12.02      0.00
   -3    9    5    -24.28      0.00
   -2    9    5    -36.13      0.00
   -1    9    5     -6.47      0.00
    0    9    5    -12.51      0.00
    1    9    5      0.56      0.00
    2    9    5    -16.88      0.00
    3    9    5      0.96      0.00
    4    9    5      4.50      0.00
    5    9    5      3.17      0.00
    6    9    5      3.61      0.00
    7    9    5    -13.23      0.00
    8    9    5     -1.61      0.00
    9    9    5      1.72      0.00
   -9   10    5     -2.26      0.00
   -8   10    5     -9.11      0.00
   -7   10    5    -28.92      0.00
   -6   10    5      7.19      0.00
   -5   10    5    -20.65      0.00
   -4   10    5      9.33      0.00
   -3   10    5    -33.95      0.00
   -2   10    5     24.84      0.00
   -1   10    5     -9.46      0.00
    0   10    5     15.12      0.00
    1   10    5    -11.43      0.00
    2   10    5     12.69      0.00
    3   10    5      1.83      0.00
    4   10    5     -3.30      0.00
    5   10    5     -5.82      0.00
    6   10    5     -2.54      0.00
    7   10    5     -7.62      0.00
    8   10    5     -4.08      0.00
    9   10    5     -9.05      0.00
   10   10    5      0.11      0.00
  -10   11    5     -7.64      0.00
   -9   11    5     14.23      0.00
   -8   11    5      2.99      0.00
   -7   11    5     10.92      0.00
   -6   11    5      1.33      0.00
   -5   11    5     33.27      0.00
   -4   11    5     23.99      0.00
   -3   11    5      4.68      0.00
   -2   11    5     11.19      0.00
   -1   11    5     20.33      0.00
    0   11    5     20.40      0.00
    1   11    5    -11.01      0.00
    2   11    5     -0.10      0.00
    3   11    5      7.22      0.00
    4   11    5      1.03      0.00
    5   11    5     -2.96      0.00
    6   11    5     -5.82      0.00
    7   11    5     11.18      0.00
    8   11    5     -2.00      0.00
    9   11    5      2.42      0.00
   10   11    5      2.35      0.00
   11   11    5      2.79      0.00
  -11   12    5      2.51      0.00
  -10   12    5      1.58      0.00
   -9   12    5     10.76      0.00
   -8   12    5      6.50      0.00
   -7   12    5     20.89      0.00
   -6   12    5     -1.53      0.00
   -5   12    5     31.06      0.00
   -4   12    5    -11.51      0.00
   -3   12    5     16.95      0.00
   -2   12    5    -14.15      0.00
   -1   12    5     23.93      0.00
    0   12    5    -16.94      0.00
    1   12    5     -4.37      0.00
    2   12    5     -2.50      0.00
    3   12    5      9.75      0.00
    4   12    5      1.48      0.00
    5   12    5      0.27      0.00
    6   12    5      4.11      0.00
    7   12    5     10.57      0.00
    8   12    5      3.08      0.00
    9   12    5      6.57      0.00
   10   12    5     -0.38      0.00
   11   12    5      3.57      0.00
   12   12    5      2.00      0.00
  -12   13    5     -0.12      0.00
  -11   13    5     -1.48      0.00
  -10   13    5      4.42      0.00
   -9   13    5    -12.77      0.00
   -8   13    5      5.46      0.00
   -7   13    5    -16.05      0.00
   -6   13    5     -8.48      0.00
   -5   13    5    -20.94      0.00
   -4   13    5     -5.33      0.00
   -3   13    5    -15.92      0.00
   -2   13    5    -18.18      0.00
   -1   13    5     -5.48      0.00
    0   13    5     -3.61      0.00
    1   13    5     -1.47      0.00
    2   13    5     -5.00      0.00
    3   13    5      0.79      0.00
    4   13    5      7.05      0.00
    5   13    5     -4.68      0.00
    6   13    5      0.73      0.00
    7   13    5     -4.57      0.00
    8   13    5      5.91      0.00
    9   13    5     -6.08      0.00
   10   13    5     -1.12      0.00
   11   13    5     -1.75      0.00
   12   13    5      1.97      0.00
   13   13    5      1.12      0.00
  -13   14    5     -3.31      0.00
  -12   14    5     -2.39      0.00
  -11   14    5      0.14      0.00
  -10   14    5     -3.45      0.00
   -9   14    5    -14.90      0.00
   -8   14    5     -8.70      0.00
   -7   14    5    -20.73      0.00
   -6   14    5      4.97      0.00
   -5   14    5    -24.01      0.00
   -4   14    5      0.84      0.00
   -3   14    5    -24.50      0.00
   -2   14    5     20.17      0.00
   -1   14    5     -5.61      0.00
    0   14    5      1.32      0.00
    1   14    5    -11.55      0.00
    2   14    5     11.30      0.00
    3   14    5      5.71      0.00
    4   14    5    -12.45      0.00
    5   14    5    -13.52      0.00
    6   14    5      3.56      0.00
    7   14    5      1.03      0.00
    8   14    5     -9.98      0.00
    9   14    5    -12.42      0.00
   10   14    5      6.21      0.00
   11   14    5      3.90      0.00
   12   14    5     -4.85      0.00
   13   14    5     -0.58      0.00
   14   14    5      2.80      0.00
  -14   15    5      3.81      0.00
  -13   15    5      0.59      0.00
  -12   15    5     -4.30      0.00
  -11   15    5      3.88      0.00
  -10   15    5     -4.76      0.00
   -9   15    5     11.18      0.00
   -8   15    5     -4.59      0.00
   -7   15    5     15.37      0.00
   -6   15    5      1.44      0.00
   -5   15    5     17.94      0.00
   -4   15    5      5.06      0.00
   -3   15    5     12.58      0.00
   -2   15    5      8.87      0.00
   -1   15    5      7.39      0.00
    0   15    5      2.18      0.00
    1   15    5     -0.74      0.00
    2   15    5      0.06      0.00
    3   15    5      1.84      0.00
    4   15    5     -6.14      0.00
    5   15    5      2.35      0.00
    6   15    5     -2.21      0.00
    7   15    5      6.48      0.00
    8   15    5     -5.28      0.00
    9   15    5      2.65      0.00
   10   15    5      0.66      0.00
   11   15    5      3.74      0.00
   12   15    5     -4.28      0.00
   13   15    5     -2.19      0.00
   14   15    5     -1.69      0.00
   15   15    5     -0.59      0.00
  -15   16    5      2.61      0.00
  -14   16    5     -4.51      0.00
  -13   16    5     -3.46      0.00
  -12   16    5      5.48      0.00
  -11   16    5      6.09      0.00
  -10   16    5      2.54      0.00
   -9   16    5     10.24      0.00
   -8   16    5      9.67      0.00
   -7   16    5     22.93      0.00
   -6   16    5     -3.44      0.00
   -5   16    5     16.60      0.00
   -4   16    5     -0.69      0.00
   -3   16    5     22.27      0.00
   -2   16    5    -12.03      0.00
   -1   16    5      4.72      0.00
    0   16    5     -4.88      0.00
    1   16    5      2.71      0.00
    2   16    5      0.55      0.00
    3   16    5      5.36      0.00
    4   16    5      3.14      0.00
    5   16    5      0.61      0.00
    6   16    5      5.43      0.00
    7   16    5      9.58      0.00
    8   16    5      1.39      0.00
    9   16    5     -2.87      0.00
   10   16    5      0.97      0.00
   11   16    5      4.06      0.00
   12   16    5     -1.39      0.00
   13   16    5     -5.58      0.00
   14   16    5      1.88      0.00
   15   16    5      1.80      0.00
   16   16    5      1.46      0.00
  -15   17    5     -1.34      0.00
  -14   17    5     -1.48      0.00
  -13   17    5     -1.49      0.00
  -12   17    5      2.25      0.00
  -11   17    5     -3.44      0.00
  -10   17    5      6.55      0.00
   -9   17    5     -9.84      0.00
   -8   17    5      4.83      0.00
   -7   17    5    -10.83      0.00
   -6   17    5      0.99      0.00
   -5   17    5    -15.99      0.00
   -4   17    5      0.00      0.00
   -3   17    5     -9.25      0.00
   -2   17    5     -6.69      0.00
   -1   17    5     -8.16      0.00
    0   17    5      2.47      0.00
    1   17    5      2.53      0.00
    2   17    5      1.56      0.00
    3   17    5     -4.24      0.00
    4   17    5      5.07      0.00
    5   17    5      0.87      0.00
    6   17    5      4.31      0.00
    7   17    5     -7.63      0.00
    8   17    5      0.50      0.00
    9   17    5      0.07      0.00
   10   17    5      4.73      0.00
   11   17    5     -2.93      0.00
   12   17    5      0.11      0.00
   13   17    5      2.42      0.00
   14   17    5      2.51      0.00
   15   17    5     -0.59      0.00
  -14   18    5      1.00      0.00
  -12   18    5     -3.63      0.00
  -11   18    5      0.17      0.00
  -10   18    5     -3.17      0.00
   -9   18    5    -13.11      0.00
   -8   18    5     -5.58      0.00
   -7   18    5    -12.38      0.00
   -6   18    5     -1.85      0.00
   -5   18    5    -19.16      0.00
   -4   18    5      3.42      0.00
   -3   18    5     -8.18      0.00
   -2   18    5      5.84      0.00
   -1   18    5     -9.75      0.00
    0   18    5      1.60      0.00
    1   18    5      1.62      0.00
    2   18    5     -0.52      0.00
    3   18    5     -3.17      0.00
    4   18    5     -6.69      0.00
    5   18    5     -4.66      0.00
    6   18    5     -0.80      0.00
    7   18    5     -0.08      0.00
    8   18    5     -2.74      0.00
    9   18    5     -1.82      0.00
   10   18    5      1.07      0.00
   11   18    5      3.09      0.00
   12   18    5     -1.22      0.00
  -12   19    5     -1.39      0.00
  -11   19    5      3.68      0.00
  -10   19    5     -5.19      0.00
   -9   19    5      6.08      0.00
   -8   19    5     -5.15      0.00
   -7   19    5      5.89      0.00
   -6   19    5     -2.90      0.00
   -5   19    5     14.55      0.00
   -4   19    5     -0.14      0.00
   -3   19    5      6.12      0.00
   -2   19    5     -0.40      0.00
   -1   19    5      4.63      0.00
    0   19    5      0.89      0.00
    1   19    5      0.09      0.00
    2   19    5     -4.81      0.00
    3   19    5      0.85      0.00
    4   19    5     -4.36      0.00
    5   19    5      1.69      0.00
    6   19    5     -1.84      0.00
    7   19    5      2.34      0.00
    8   19    5     -3.10      0.00
    9   19    5      1.32      0.00
   10   19    5      0.43      0.00
   11   19    5     -0.88      0.00
   12   19    5     -2.94      0.00
  -11   20    5      0.93      0.00
  -10   20    5     -0.12      0.00
   -9   20    5      5.19      0.00
   -8   20    5      5.99      0.00
   -7   20    5      9.94      0.00
   -6   20    5     -0.70      0.00
   -5   20    5      7.89      0.00
   -4   20    5      0.46      0.00
   -3   20    5     10.07      0.00
   -2   20    5     -6.33      0.00
   -1   20    5      0.56      0.00
    0   20    5      5.30      0.00
    1   20    5      3.97      0.00
    2   20    5     -0.84      0.00
    3   20    5     -1.16      0.00
    4   20    5      4.94      0.00
    5   20    5      3.83      0.00
    6   20    5      0.19      0.00
    7   20    5     -1.04      0.00
    8   20    5      1.42      0.00
    9   20    5      0.30      0.00
   10   20    5     -1.56      0.00
   -8   21    5      5.20      0.00
   -7   21    5     -5.47      0.00
   -6   21    5      1.97      0.00
   -5   21    5     -6.39      0.00
   -4   21    5      1.50      0.00
   -3   21    5     -7.07      0.00
   -2   21    5     -0.49      0.00
   -1   21    5      1.32      0.00
    0   21    5      2.84      0.00
    1   21    5     -2.84      0.00
    2   21    5      0.80      0.00
    3   21    5      1.71      0.00
    4   21    5      5.04      0.00
    5   21    5     -1.26      0.00
    6   21    5      1.33      0.00
    7   21    5     -1.44      0.00
    8   21    5      1.34      0.00
    9   21    5      0.91      0.00
   -4   22    5     -0.31      0.00
   -3   22    5     -4.23      0.00
   -2   22    5      2.32      0.00
   -1   22    5     -1.88      0.00
    0   22    5     -4.81      0.00
    1   22    5     -0.11      0.00
    2   22    5      1.33      0.00
    3   22    5     -2.19      0.00
    4   22    5     -3.27      0.00
    5   22    5      1.52      0.00
    0    0    6   -114.40      0.00
    0    1    6     56.88      0.00
    1    1    6     31.35      0.00
   -1    2    6    -28.99      0.00
    0    2    6     11.73      0.00
    1    2    6     37.35      0.00
    2    2    6     77.06      0.00
   -2    3    6    -57.84      0.00
   -1    3    6      8.88      0.00
    0    3    6    -24.75      0.00
    1    3    6      8.99      0.00
    2    3    6    -58.07      0.00
    3    3    6    -22.16      0.00
   -3    4    6    -14.80      0.00
   -2    4    6    -35.45      0.00
   -1    4    6    -29.26      0.00
    0    4    6    -47.65      0.00
    1    4    6     24.59      0.00
    2    4    6    -13.42      0.00
    3    4    6     -9.83      0.00
    4    4    6    -24.23      0.00
   -4    5    6     27.05      0.00
   -3    5    6    -16.90      0.00
   -2    5    6     24.81      0.00
   -1    5    6    -19.87      0.00
    0    5    6     57.82      0.00
    1    5    6      3.06      0.00
    2    5    6      3.18      0.00
    3    5    6    -10.94      0.00
    4    5    6     33.18      0.00
    5    5    6     21.48      0.00
   -5    6    6     28.14      0.00
   -4    6    6     21.32      0.00
   -3    6    6     27.44      0.00
   -2    6    6     40.32      0.00
   -1    6    6     10.50      0.00
    0    6    6     17.62      0.00
    1    6    6     -0.74      0.00
    2    6    6     31.26      0.00
    3    6    6    -11.01      0.00
    4    6    6     -9.14      0.00
    5    6    6      1.80      0.00
    6    6    6      9.41      0.00
   -6    7    6      1.35      0.00
   -5    7    6     33.89      0.00
   -4    7    6    -21.01      0.00
   -3    7    6     14.30      0.00
   -2    7    6    -31.84      0.00
   -1    7    6     17.33      0.00
    0    7    6    -27.70      0.00
    1    7    6      8.92      0.00
    2    7    6    -27.83      0.00
    3    7    6     -3.41      0.00
    4    7    6     10.02      0.00
    5    7    6      6.79      0.00
    6    7    6    -14.07      0.00
    7    7    6     -1.00      0.00
   -7    8    6    -23.93      0.00
   -6    8    6    -11.45      0.00
   -5    8    6    -22.94      0.00
   -4    8    6    -19.33      0.00
   -3    8    6    -26.90      0.00
   -2    8    6    -29.28      0.00
   -1    8    6     -8.16      0.00
    0    8    6    -13.48      0.00
    1    8    6     -1.51      0.00
    2    8    6    -18.06      0.00
    3    8    6      7.65      0.00
    4    8    6      3.71      0.00
    5    8    6     -4.92      0.00
    6    8    6      1.14      0.00
    7    8    6     -1.89      0.00
    8    8    6      2.81      0.00
   -8    9    6    -15.35      0.00
   -7    9    6    -22.95      0.00
   -6    9    6     14.45      0.00
   -5    9    6    -18.49      0.00
   -4    9    6      5.28      0.00
   -3    9    6    -26.10      0.00
   -2    9    6     34.52      0.00
   -1    9    6    -11.67      0.00
    0    9    6     17.47      0.00
    1    9    6     -9.52      0.00
    2    9    6     16.14      0.00
    3    9    6     -0.56      0.00
    4    9    6     -0.02      0.00
    5    9    6     -2.19      0.00
    6    9    6     -6.73      0.00
    7    9    6    -11.62      0.00
    8    9    6      2.03      0.00
    9    9    6     -1.33      0.00
   -9   10    6      7.56      0.00
   -8   10    6     -8.59      0.00
   -7   10    6     22.22      0.00
   -6   10    6     17.38      0.00
   -5   10    6     24.94      0.00
   -4   10    6      6.05      0.00
   -3   10    6     21.28      0.00
   -2   10    6     28.01      0.00
   -1   10    6      7.66      0.00
    0   10    6      4.95      0.00
    1   10    6      1.89      0.00
    2   10    6     12.51      0.00
    3   10    6     -2.61      0.00
    4   10    6     -6.82      0.00
    5   10    6      3.15      0.00
    6   10    6      1.30      0.00
    7   10    6      7.65      0.00
    8   10    6     -4.72      0.00
    9   10    6      6.24      0.00
   10   10    6      3.44      0.00
  -10   11    6      5.32      0.00
   -9   11    6     14.17      0.00
   -8   11    6      1.83      0.00
   -7   11    6     11.33      0.00
   -6   11    6      4.23      0.00
   -5   11    6     32.30      0.00
   -4   11    6    -22.22      0.00
   -3   11    6     10.63      0.00
   -2   11    6     -9.96      0.00
   -1   11    6     23.77      0.00
    0   11    6    -26.34      0.00
    1   11    6     -2.23      0.00
    2   11    6     -0.99      0.00
    3   11    6      8.95      0.00
    4   11    6     -2.63      0.00
    5   11    6     -0.71      0.00
    6   11    6      7.34      0.00
    7   11    6     10.66      0.00
    8   11    6      1.56      0.00
    9   11    6      5.04      0.00
   10   11    6     -0.60      0.00
   11   11    6      4.01      0.00
  -11   12    6     -2.37      0.00
  -10   12    6      1.61      0.00
   -9   12    6    -11.89      0.00
   -8   12    6      2.83      0.00
   -7   12    6    -17.85      0.00
   -6   12    6     -5.02      0.00
   -5   12    6    -28.27      0.00
   -4   12    6    -12.93      0.00
   -3   12    6    -12.56      0.00
   -2   12    6     -7.46      0.00
   -1   12    6    -14.33      0.00
    0   12    6    -14.69      0.00
    1   12    6      5.37      0.00
    2   12    6      3.71      0.00
    3   12    6     -4.74      0.00
    4   12    6     -1.00      0.00
    5   12    6     -0.82      0.00
    6   12    6      4.93      0.00
    7   12    6     -8.95      0.00
    8   12    6      2.50      0.00
    9   12    6     -4.70      0.00
   10   12    6     -1.16      0.00
   11   12    6     -2.36      0.00
   12   12    6      2.80      0.00
  -12   13    6     -0.30      0.00
  -11   13    6      0.34      0.00
  -10   13    6     -5.74      0.00
   -9   13    6    -12.02      0.00
   -8   13    6     -5.76      0.00
   -7   13    6    -17.99      0.00
   -6   13    6      2.37      0.00
   -5   13    6    -21.24      0.00
   -4   13    6      6.43      0.00
   -3   13    6    -20.05      0.00
   -2   13    6     20.14      0.00
   -1   13    6    -10.87      0.00
    0   13    6      7.77      0.00
    1   13    6     -5.09      0.00
    2   13    6      8.18      0.00
    3   13    6     -2.63      0.00
    4   13    6     -7.49      0.00
    5   13    6     -4.77      0.00
    6   13    6     -0.48      0.00
    7   13    6     -6.44      0.00
    8   13    6     -7.11      0.00
    9   13    6     -4.97      0.00
   10   13    6      2.40      0.00
   11   13    6     -2.87      0.00
   12   13    6     -0.40      0.00
   13   13    6      3.93      0.00
  -13   14    6      1.09      0.00
  -12   14    6     -0.22      0.00
  -11   14    6      3.72      0.00
  -10   14    6     -4.88      0.00
   -9   14    6     11.65      0.00
   -8   14    6     -2.92      0.00
   -7   14    6     20.66      0.00
   -6   14    6      3.97      0.00
   -5   14    6     17.57      0.00
   -4   14    6      2.20      0.00
   -3   14    6     21.40      0.00
   -2   14    6     13.24      0.00
   -1   14    6      0.61      0.00
    0   14    6     -3.67      0.00
    1   14    6      8.87      0.00
    2   14    6      8.31      0.00
    3   14    6     -7.56      0.00
    4   14    6    -12.57      0.00
    5   14    6     11.62      0.00
    6   14    6      5.35      0.00
    7   14    6     -1.07      0.00
    8   14    6    -11.42      0.00
    9   14    6     11.51      0.00
   10   14    6      5.55      0.00
   11   14    6     -2.83      0.00
   12   14    6     -6.74      0.00
   13   14    6      2.53      0.00
   14   14    6      0.53      0.00
  -14   15    6     -3.46      0.00
  -13   15    6     -0.38      0.00
  -12   15    6      3.09      0.00
  -11   15    6      2.05      0.00
  -10   15    6      5.00      0.00
   -9   15    6     13.51      0.00
   -8   15    6      7.97      0.00
   -7   15    6     14.56      0.00
   -6   15    6     -2.00      0.00
   -5   15    6     21.70      0.00
   -4   15    6     -4.13      0.00
   -3   15    6     13.80      0.00
   -2   15    6    -13.45      0.00
   -1   15    6     10.70      0.00
    0   15    6     -7.31      0.00
    1   15    6      1.98      0.00
    2   15    6     -2.29      0.00
    3   15    6      3.26      0.00
    4   15    6      6.02      0.00
    5   15    6      4.38      0.00
    6   15    6      3.94      0.00
    7   15    6      4.89      0.00
    8   15    6      3.11      0.00
    9   15    6      3.48      0.00
   10   15    6      0.81      0.00
   11   15    6     -1.13      0.00
   12   15    6     -1.52      0.00
   13   15    6     -2.49      0.00
   14   15    6      1.30      0.00
   15   15    6     -0.84      0.00
  -15   16    6     -2.75      0.00
  -14   16    6     -4.67      0.00
  -13   16    6      1.42      0.00
  -12   16    6      5.29      0.00
  -11   16    6     -7.13      0.00
  -10   16    6      1.49      0.00
   -9   16    6     -8.16      0.00
   -8   16    6      7.21      0.00
   -7   16    6    -18.69      0.00
   -6   16    6     -5.22      0.00
   -5   16    6    -14.50      0.00
   -4   16    6      5.11      0.00
   -3   16    6    -16.11      0.00
   -2   16    6    -10.39      0.00
   -1   16    6     -6.13      0.00
    0   16    6      3.56      0.00
    1   16    6      0.02      0.00
    2   16    6      0.65      0.00
    3   16    6     -3.10      0.00
    4   16    6      3.54      0.00
    5   16    6     -0.27      0.00
    6   16    6      4.56      0.00
    7   16    6     -7.98      0.00
    8   16    6      0.51      0.00
    9   16    6     -0.86      0.00
   10   16    6      4.56      0.00
   11   16    6     -4.01      0.00
   12   16    6      0.39      0.00
   13   16    6      3.11      0.00
   14   16    6      3.43      0.00
   15   16    6     -0.21      0.00
  -14   17    6      1.84      0.00
  -13   17    6     -1.35      0.00
  -12   17    6     -2.93      0.00
  -11   17    6     -0.04      0.00
  -10   17    6     -4.98      0.00
   -9   17    6    -12.71      0.00
   -8   17    6     -6.28      0.00
   -7   17    6    -12.31      0.00
   -6   17    6     -0.92      0.00
   -5   17    6    -16.21      0.00
   -4   17    6      3.18      0.00
   -3   17    6    -12.23      0.00
   -2   17    6      7.79      0.00
   -1   17    6     -5.23      0.00
    0   17    6      5.78      0.00
    1   17    6     -2.05      0.00
    2   17    6     -2.99      0.00
    3   17    6     -3.03      0.00
    4   17    6     -3.00      0.00
    5   17    6     -2.07      0.00
    6   17    6     -6.34      0.00
    7   17    6     -5.72      0.00
    8   17    6     -0.22      0.00
    9   17    6      3.60      0.00
   10   17    6     -1.66      0.00
   11   17    6     -2.06      0.00
   12   17    6      1.76      0.00
   13   17    6      3.74      0.00
   14   17    6     -1.80      0.00
  -13   18    6      1.73      0.00
  -11   18    6      4.10      0.00
  -10   18    6     -5.63      0.00
   -9   18    6      7.73      0.00
   -8   18    6     -3.09      0.00
   -7   18    6      9.52      0.00
   -6   18    6     -3.14      0.00
   -5   18    6     15.99      0.00
   -4   18    6      1.20      0.00
   -3   18    6      8.92      0.00
   -2   18    6     -1.12      0.00
   -1   18    6      6.67      0.00
    0   18    6      0.81      0.00
    1   18    6      0.53      0.00
    2   18    6     -2.60      0.00
    3   18    6     -0.22      0.00
    4   18    6     -6.04      0.00
    5   18    6      3.29      0.00
    6   18    6      1.06      0.00
    7   18    6      2.65      0.00
    8   18    6     -4.96      0.00
    9   18    6      2.30      0.00
   10   18    6      0.38      0.00
   11   18    6     -0.55      0.00
   12   18    6     -3.75      0.00
   13   18    6     -0.59      0.00
  -12   19    6      3.21      0.00
  -11   19    6     -0.76      0.00
  -10   19    6      2.56      0.00
   -9   19    6      8.94      0.00
   -8   19    6      4.09      0.00
   -7   19    6      7.50      0.00
   -6   19    6      3.67      0.00
   -5   19    6     12.03      0.00
   -4   19    6     -3.41      0.00
   -3   19    6      5.35      0.00
   -2   19    6     -4.11      0.00
   -1   19    6      7.09      0.00
    0   19    6     -0.27      0.00
    1   19    6     -2.33      0.00
    2   19    6      1.69      0.00
    3   19    6      3.67      0.00
    4   19    6      4.87      0.00
    5   19    6      1.71      0.00
    6   19    6      1.45      0.00
    7   19    6      0.76      0.00
    8   19    6      2.37      0.00
    9   19    6     -0.78      0.00
   10   19    6     -1.64      0.00
   11   19    6     -1.50      0.00
   12   19    6      1.46      0.00
  -10   20    6      1.28      0.00
   -9   20    6     -1.56      0.00
   -8   20    6      5.71      0.00
   -7   20    6     -8.08      0.00
   -6   20    6      0.28      0.00
   -5   20    6     -8.64      0.00
   -4   20    6      4.38      0.00
   -3   20    6     -9.24      0.00
   -2   20    6     -3.60      0.00
   -1   20    6      0.77      0.00
    0   20    6      5.06      0.00
    1   20    6     -4.34      0.00
    2   20    6     -1.32      0.00
    3   20    6      2.64      0.00
    4   20    6      6.40      0.00
    5   20    6     -2.40      0.00
    6   20    6     -1.04      0.00
    7   20    6     -1.07      0.00
    8   20    6      3.47      0.00
    9   20    6     -1.12      0.00
   10   20    6     -1.09      0.00
   -5   21    6     -5.91      0.00
   -4   21    6     -1.51      0.00
   -3   21    6     -3.39      0.00
   -2   21    6      4.90      0.00
   -1   21    6     -2.66      0.00
    0   21    6     -5.35      0.00
    1   21    6     -0.87      0.00
    2   21    6      1.07      0.00
    3   21    6     -0.60      0.00
    4   21    6     -3.73      0.00
    5   21    6     -0.40      0.00
    6   21    6     -0.47      0.00
    8   21    6      0.37      0.00
   -3   22    6      4.13      0.00
   -2   22    6      0.32      0.00
   -1   22    6     -0.80      0.00
    1   22    6      2.53      0.00
    2   22    6     -1.45      0.00
    3   22    6     -3.07      0.00
    4   22    6     -1.76      0.00
    0    0    7    101.54      0.00
    0    1    7     56.70      0.00
    1    1    7     -9.81      0.00
   -1    2    7    -11.95      0.00
    0    2    7    -10.20      0.00
    1    2    7     23.02      0.00
    2    2    7    -74.79      0.00
   -2    3    7    -33.80      0.00
   -1    3    7     12.54      0.00
    0    3    7    -29.77      0.00
    1    3    7    -22.88      0.00
    2    3    7    -32.54      0.00
    3    3    7     44.60      0.00
   -3    4    7     -8.21      0.00
   -2    4    7     21.59      0.00
   -1    4    7    -20.16      0.00
    0    4    7     65.76      0.00
    1    4    7      8.88      0.00
    2    4    7      4.55      0.00
    3    4    7    -14.62      0.00
    4    4    7     35.24      0.00
   -4    5    7     18.58      0.00
   -3    5    7     22.79      0.00
   -2    5    7     28.25      0.00
   -1    5    7     22.72      0.00
    0    5    7     26.76      0.00
    1    5    7    -19.57      0.00
    2    5    7     13.05      0.00
    3    5    7     10.73      0.00
    4    5    7     14.41      0.00
    5    5    7    -26.33      0.00
   -5    6    7     17.93      0.00
   -4    6    7    -23.27      0.00
   -3    6    7     16.42      0.00
   -2    6    7    -33.30      0.00
   -1    6    7      7.83      0.00
    0    6    7    -38.14      0.00
    1    6    7     13.54      0.00
    2    6    7    -22.25      0.00
    3    6    7     -6.12      0.00
    4    6    7     -4.42      0.00
    5    6    7      8.53      0.00
    6    6    7      0.18      0.00
   -6    7    7     -0.42      0.00
   -5    7    7    -29.48      0.00
   -4    7    7    -24.78      0.00
   -3    7    7    -28.06      0.00
   -2    7    7    -20.19      0.00
   -1    7    7     -5.93      0.00
    0    7    7    -16.79      0.00
    1    7    7     -8.36      0.00
    2    7    7    -14.33      0.00
    3    7    7     20.01      0.00
    4    7    7      1.23      0.00
    5    7    7    -19.26      0.00
    6    7    7     -2.98      0.00
    7    7    7     15.62      0.00
   -7    8    7     -8.87      0.00
   -6    8    7      4.96      0.00
   -5    8    7    -21.63      0.00
   -4    8    7     17.80      0.00
   -3    8    7    -13.97      0.00
   -2    8    7     28.50      0.00
   -1    8    7    -13.16      0.00
    0    8    7     29.58      0.00
    1    8    7     -8.49      0.00
    2    8    7     15.69      0.00
    3    8    7     -2.60      0.00
    4    8    7      1.49      0.00
    5    8    7     -0.78      0.00
    6    8    7     -2.19      0.00
    7    8    7     -8.68      0.00
    8    8    7     -5.58      0.00
   -8    9    7     -6.77      0.00
   -7    9    7     35.77      0.00
   -6    9    7     14.73      0.00
   -5    9    7     12.74      0.00
   -4    9    7      8.65      0.00
   -3    9    7     37.93      0.00
   -2    9    7     21.82      0.00
   -1    9    7     -1.79      0.00
    0    9    7      8.65      0.00
    1    9    7      8.95      0.00
    2    9    7      9.01      0.00
    3    9    7     -7.40      0.00
    4    9    7     -1.67      0.00
    5    9    7      4.34      0.00
    6    9    7     -3.37      0.00
    7    9    7      9.29      0.00
    8    9    7      3.13      0.00
    9    9    7      4.73      0.00
   -9   10    7      3.41      0.00
   -8   10    7      4.53      0.00
   -7   10    7     17.86      0.00
   -6   10    7     -1.64      0.00
   -5   10    7     14.58      0.00
   -4   10    7    -17.33      0.00
   -3   10    7     21.04      0.00
   -2   10    7    -22.00      0.00
   -1   10    7      8.77      0.00
    0   10    7    -21.22      0.00
    1   10    7      9.72      0.00
    2   10    7     -9.80      0.00
    3   10    7      0.43      0.00
    4   10    7     -0.82      0.00
    5   10    7      6.10      0.00
    6   10    7      6.40      0.00
    7   10    7      4.11      0.00
    8   10    7     -0.22      0.00
    9   10    7      6.74      0.00
   10   10    7      3.76      0.00
  -10   11    7      3.92      0.00
   -9   11    7    -11.61      0.00
   -8   11    7     -2.24      0.00
   -7   11    7    -18.47      0.00
   -6   11    7     -1.54      0.00
   -5   11    7    -32.94      0.00
   -4   11    7    -15.69      0.00
   -3   11    7    -12.65      0.00
   -2   11    7     -5.16      0.00
   -1   11    7    -16.91      0.00
    0   11    7    -14.08      0.00
    1   11    7      4.33      0.00
    2   11    7      2.75      0.00
    3   11    7     -3.13      0.00
    4   11    7     -1.94      0.00
    5   11    7     -2.18      0.00
    6   11    7      5.35      0.00
    7   11    7     -7.46      0.00
    8   11    7      0.03      0.00
    9   11    7     -9.86      0.00
   10   11    7     -0.54      0.00
   11   11    7      1.65      0.00
  -11   12    7     -1.19      0.00
  -10   12    7     -7.48      0.00
   -9   12    7     -9.54      0.00
   -8   12    7     -1.25      0.00
   -7   12    7    -12.26      0.00
   -6   12    7     -5.06      0.00
   -5   12    7    -22.40      0.00
   -4   12    7     20.75      0.00
   -3   12    7     -9.49      0.00
   -2   12    7      8.85      0.00
   -1   12    7    -19.53      0.00
    0   12    7     24.23      0.00
    1   12    7      2.99      0.00
    2   12    7     -2.57      0.00
    3   12    7    -10.02      0.00
    4   12    7      4.18      0.00
    5   12    7      0.98      0.00
    6   12    7    -10.28      0.00
    7   12    7     -8.85      0.00
    8   12    7      1.27      0.00
    9   12    7     -3.46      0.00
   10   12    7     -2.79      0.00
   11   12    7     -1.48      0.00
   12   12    7      2.23      0.00
  -12   13    7      0.91      0.00
  -11   13    7      3.94      0.00
  -10   13    7     -3.72      0.00
   -9   13    7     11.55      0.00
   -8   13    7     -1.32      0.00
   -7   13    7     23.17      0.00
   -6   13    7      4.10      0.00
   -5   13    7     19.74      0.00
   -4   13    7      3.68      0.00
   -3   13    7     25.12      0.00
   -2   13    7      9.00      0.00
   -1   13    7      0.99      0.00
    0   13    7      2.49      0.00
    1   13    7      8.64      0.00
    2   13    7      0.48      0.00
    3   13    7     -5.87      0.00
    4   13    7     -3.11      0.00
    5   13    7     10.94      0.00
    6   13    7     -2.42      0.00
    7   13    7     -0.16      0.00
    8   13    7     -2.68      0.00
    9   13    7     11.85      0.00
   10   13    7     -1.25      0.00
   11   13    7     -1.29      0.00
   12   13    7     -0.34      0.00
   13   13    7      0.59      0.00
  -13   14    7      2.47      0.00
  -12   14    7     -0.80      0.00
  -11   14    7      0.73      0.00
  -10   14    7      8.14      0.00
   -9   14    7     10.65      0.00
   -8   14    7      4.63      0.00
   -7   14    7     12.99      0.00
   -6   14    7     -0.53      0.00
   -5   14    7     16.95      0.00
   -4   14    7     -6.61      0.00
   -3   14    7     14.57      0.00
   -2   14    7    -17.77      0.00
   -1   14    7      6.68      0.00
    0   14    7     -4.92      0.00
    1   14    7      8.07      0.00
    2   14    7     -8.96      0.00
    3   14    7     -2.33      0.00
    4   14    7     11.37      0.00
    5   14    7      9.35      0.00
    6   14    7     -1.14      0.00
    7   14    7     -0.22      0.00
    8   14    7      8.80      0.00
    9   14    7      7.91      0.00
   10   14    7     -4.02      0.00
   11   14    7     -4.14      0.00
   12   14    7      1.37      0.00
   13   14    7     -0.13      0.00
   14   14    7     -0.18      0.00
  -14   15    7     -2.91      0.00
  -13   15    7      1.20      0.00
  -12   15    7      1.92      0.00
  -11   15    7     -6.77      0.00
  -10   15    7      4.24      0.00
   -9   15    7     -9.03      0.00
   -8   15    7      0.16      0.00
   -7   15    7    -22.54      0.00
   -6   15    7      0.51      0.00
   -5   15    7    -15.69      0.00
   -4   15    7     -2.40      0.00
   -3   15    7    -20.99      0.00
   -2   15    7     -2.85      0.00
   -1   15    7     -3.74      0.00
    0   15    7     -1.11      0.00
    1   15    7     -5.26      0.00
    2   15    7      1.52      0.00
    3   15    7      3.11      0.00
    4   15    7      4.08      0.00
    5   15    7     -7.48      0.00
    6   15    7      1.01      0.00
    7   15    7     -2.89      0.00
    8   15    7      4.43      0.00
    9   15    7     -5.94      0.00
   10   15    7      0.11      0.00
   11   15    7     -1.10      0.00
   12   15    7      3.15      0.00
   13   15    7      0.49      0.00
   14   15    7      1.56      0.00
   15   15    7      1.94      0.00
  -14   16    7      3.46      0.00
  -13   16    7      1.63      0.00
  -12   16    7     -3.64      0.00
  -11   16    7     -3.51      0.00
   -9   16    7     -7.97      0.00
   -8   16    7     -7.08      0.00
   -7   16    7    -14.34      0.00
   -6   16    7      0.34      0.00
   -5   16    7     -9.87      0.00
   -4   16    7      4.26      0.00
   -3   16    7    -15.14      0.00
   -2   16    7      9.09      0.00
   -1   16    7     -2.97      0.00
    0   16    7      9.14      0.00
    1   16    7     -3.40      0.00
    2   16    7     -4.35      0.00
    3   16    7     -3.25      0.00
    4   16    7     -0.80      0.00
    5   16    7     -1.67      0.00
    6   16    7    -10.29      0.00
    7   16    7     -6.32      0.00
    8   16    7      2.93      0.00
    9   16    7      2.40      0.00
   10   16    7     -5.25      0.00
   11   16    7     -0.74      0.00
   12   16    7      4.73      0.00
   13   16    7      3.90      0.00
   14   16    7     -3.55      0.00
   15   16    7     -1.24      0.00
  -13   17    7      0.67      0.00
  -12   17    7      0.32      0.00
  -11   17    7      6.17      0.00
  -10   17    7     -4.91      0.00
   -9   17    7      7.32      0.00
   -8   17    7     -1.56      0.00
   -7   17    7     15.94      0.00
   -6   17    7     -0.91      0.00
   -5   17    7     13.39      0.00
   -4   17    7     -2.05      0.00
   -3   17    7     16.13      0.00
   -2   17    7      3.08      0.00
   -1   17    7      4.54      0.00
    0   17    7     -2.78      0.00
    1   17    7      2.39      0.00
    2   17    7     -1.29      0.00
    3   17    7      0.03      0.00
    4   17    7     -3.41      0.00
    5   17    7      2.80      0.00
    6   17    7     -2.28      0.00
    7   17    7      4.15      0.00
    8   17    7     -0.17      0.00
    9   17    7      2.30      0.00
   10   17    7     -4.56      0.00
   11   17    7      1.06      0.00
   12   17    7     -0.19      0.00
   14   17    7     -1.87      0.00
  -10   18    7      6.02      0.00
   -9   18    7      8.83      0.00
   -8   18    7      2.44      0.00
   -7   18    7      7.14      0.00
   -6   18    7      6.00      0.00
   -5   18    7     12.30      0.00
   -4   18    7     -6.72      0.00
   -3   18    7      3.45      0.00
   -2   18    7     -1.76      0.00
   -1   18    7      7.26      0.00
    0   18    7     -6.03      0.00
    1   18    7     -0.96      0.00
    2   18    7      4.27      0.00
    3   18    7      1.82      0.00
    4   18    7      3.42      0.00
    5   18    7      4.19      0.00
    6   18    7      5.08      0.00
    7   18    7      0.39      0.00
    8   18    7      0.49      0.00
    9   18    7     -0.73      0.00
   10   18    7      0.43      0.00
   11   18    7     -1.89      0.00
   12   18    7     -0.58      0.00
  -11   19    7     -5.38      0.00
  -10   19    7      4.02      0.00
   -9   19    7     -3.61      0.00
   -8   19    7      1.63      0.00
   -7   19    7     -8.78      0.00
   -6   19    7      2.60      0.00
   -5   19    7    -11.32      0.00
   -4   19    7      0.84      0.00
   -3   19    7    -10.25      0.00
   -2   19    7      1.49      0.00
   -1   19    7     -2.23      0.00
    0   19    7     -0.89      0.00
    1   19    7     -3.60      0.00
    2   19    7      3.70      0.00
    3   19    7      2.89      0.00
    4   19    7      2.58      0.00
    5   19    7     -4.41      0.00
    6   19    7     -0.15      0.00
    7   19    7      0.57      0.00
    8   19    7      2.55      0.00
    9   19    7     -3.40      0.00
   10   19    7      0.71      0.00
   -8   20    7     -4.19      0.00
   -7   20    7     -6.10      0.00
   -6   20    7     -2.28      0.00
   -5   20    7     -4.07      0.00
   -4   20    7      0.74      0.00
   -3   20    7     -5.57      0.00
   -2   20    7      4.05      0.00
   -1   20    7     -0.18      0.00
    0   20    7     -2.59      0.00
    1   20    7     -2.68      0.00
    2   20    7     -0.62      0.00
    3   20    7      0.78      0.00
    4   20    7     -3.32      0.00
    5   20    7     -2.83      0.00
    6   20    7     -2.45      0.00
    8   20    7     -0.09      0.00
    9   20    7     -0.01      0.00
   -4   21    7     -1.08      0.00
   -3   21    7      8.49      0.00
   -2   21    7     -0.47      0.00
   -1   21    7     -3.03      0.00
    0   21    7     -0.96      0.00
    1   21    7      5.51      0.00
    2   21    7     -1.28      0.00
    3   21    7     -4.59      0.00
    4   21    7     -1.79      0.00
    5   21    7      2.93      0.00
   -1   22    7      1.38      0.00
    1   22    7      0.63      0.00
    0    0    8     76.18      0.00
    0    1    8    -53.10      0.00
    1    1    8    -11.32      0.00
   -1    2    8     28.34      0.00
    0    2    8    -19.21      0.00
    1    2    8    -35.60      0.00
    2    2    8    -30.53      0.00
   -2    3    8     57.15      0.00
   -1    3    8     -4.35      0.00
    0    3    8     23.22      0.00
    1    3    8     -8.74      0.00
    2    3    8     55.92      0.00
    3    3    8     10.81      0.00
   -3    4    8     13.67      0.00
   -2    4    8     10.37      0.00
   -1    4    8     27.92      0.00
    0    4    8     35.66      0.00
    1    4    8    -23.96      0.00
    2    4    8     -1.42      0.00
    3    4    8     10.08      0.00
    4    4    8     22.10      0.00
   -4    5    8    -25.41      0.00
   -3    5    8     15.61      0.00
   -2    5    8    -27.28      0.00
   -1    5    8      3.11      0.00
    0    5    8    -55.42      0.00
    1    5    8     10.20      0.00
    2    5    8     -3.91      0.00
    3    5    8      2.16      0.00
    4    5    8    -33.12      0.00
    5    5    8     -3.98      0.00
   -5    6    8    -27.85      0.00
   -4    6    8    -19.11      0.00
   -3    6    8    -28.07      0.00
   -2    6    8    -16.20      0.00
   -1    6    8     -9.90      0.00
    0    6    8    -15.10      0.00
    1    6    8     -0.32      0.00
    2    6    8    -12.15      0.00
    3    6    8     10.90      0.00
    4    6    8     -1.27      0.00
    5    6    8     -4.98      0.00
    6    6    8     -0.35      0.00
   -6    7    8     -1.63      0.00
   -5    7    8    -15.42      0.00
   -4    7    8     23.24      0.00
   -3    7    8    -10.65      0.00
   -2    7    8     31.68      0.00
   -1    7    8     -7.39      0.00
    0    7    8     28.46      0.00
    1    7    8    -11.19      0.00
    2    7    8     26.58      0.00
    3    7    8     -0.17      0.00
    4    7    8     -8.35      0.00
    5    7    8     -6.08      0.00
    6    7    8     14.94      0.00
    7    7    8      1.44      0.00
   -7    8    8     23.36      0.00
   -6    8    8     -0.02      0.00
   -5    8    8     25.43      0.00
   -4    8    8     20.27      0.00
   -3    8    8     27.74      0.00
   -2    8    8      7.53      0.00
   -1    8    8      9.50      0.00
    0    8    8     15.88      0.00
    1    8    8      1.56      0.00
    2    8    8      1.18      0.00
    3    8    8     -5.37      0.00
    4    8    8      7.27      0.00
    5    8    8      4.88      0.00
    6    8    8     -8.81      0.00
    7    8    8      4.61      0.00
    8    8    8      6.46      0.00
   -8    9    8     15.23      0.00
   -7    9    8     17.12      0.00
   -6    9    8    -15.85      0.00
   -5    9    8      6.08      0.00
   -4    9    8     -4.81      0.00
   -3    9    8     19.17      0.00
   -2    9    8    -36.75      0.00
   -1    9    8      4.78      0.00
    0    9    8    -16.42      0.00
    1    9    8     11.39      0.00
    2    9    8    -16.86      0.00
    3    9    8      0.17      0.00
    4    9    8     -0.50      0.00
    5    9    8      5.74      0.00
    6    9    8      6.09      0.00
    7    9    8      4.18      0.00
    8    9    8     -3.47      0.00
    9    9    8      4.05      0.00
   -9   10    8     -7.45      0.00
   -8   10    8     -1.00      0.00
   -7   10    8    -23.96      0.00
   -6   10    8     -5.27      0.00
   -5   10    8    -26.38      0.00
   -4   10    8     -9.81      0.00
   -3   10    8    -24.77      0.00
   -2   10    8     -8.90      0.00
   -1   10    8     -7.34      0.00
    0   10    8     -8.54      0.00
    1   10    8     -4.55      0.00
    2   10    8     -1.03      0.00
    3   10    8      2.61      0.00
    4   10    8      0.40      0.00
    5   10    8     -4.28      0.00
    6   10    8      2.63      0.00
    7   10    8     -8.73      0.00
    8   10    8     -0.99      0.00
    9   10    8     -6.91      0.00
   10   10    8      1.65      0.00
  -10   11    8     -7.34      0.00
   -9   11    8     -5.03      0.00
   -8   11    8      0.28      0.00
   -7   11    8    -10.82      0.00
   -6   11    8     -6.34      0.00
   -5   11    8    -15.28      0.00
   -4   11    8     25.84      0.00
   -3   11    8    -10.08      0.00
   -2   11    8      8.33      0.00
   -1   11    8    -13.36      0.00
    0   11    8     27.44      0.00
    1   11    8     -2.47      0.00
    2   11    8      0.24      0.00
    3   11    8     -6.03      0.00
    4   11    8      4.20      0.00
    5   11    8     -2.31      0.00
    6   11    8     -7.88      0.00
    7   11    8     -4.53      0.00
    8   11    8     -2.04      0.00
    9   11    8     -5.75      0.00
   10   11    8      3.04      0.00
   11   11    8      1.95      0.00
  -11   12    8      1.77      0.00
  -10   12    8     -4.62      0.00
   -9   12    8     14.03      0.00
   -8   12    8      3.83      0.00
   -7   12    8     17.47      0.00
   -6   12    8     -2.04      0.00
   -5   12    8     32.13      0.00
   -4   12    8     12.64      0.00
   -3   12    8     13.91      0.00
   -2   12    8     -2.98      0.00
   -1   12    8     16.34      0.00
    0   12    8     13.18      0.00
    1   12    8     -4.69      0.00
    2   12    8     -9.72      0.00
    3   12    8      6.89      0.00
    4   12    8      5.82      0.00
    5   12    8     -0.73      0.00
    6   12    8     -8.84      0.00
    7   12    8     11.25      0.00
    8   12    8      3.76      0.00
    9   12    8      4.72      0.00
   10   12    8     -3.84      0.00
   11   12    8      3.48      0.00
   12   12    8      1.60      0.00
  -12   13    8     -0.75      0.00
  -11   13    8      2.30      0.00
  -10   13    8      7.19      0.00
   -9   13    8      5.66      0.00
   -8   13    8      4.43      0.00
   -7   13    8     12.91      0.00
   -6   13    8     -1.39      0.00
   -5   13    8     10.23      0.00
   -4   13    8     -8.80      0.00
   -3   13    8     14.57      0.00
   -2   13    8    -19.36      0.00
   -1   13    8      6.23      0.00
    0   13    8     -7.74      0.00
    1   13    8      5.87      0.00
    2   13    8     -7.81      0.00
    3   13    8      2.31      0.00
    4   13    8      7.98      0.00
    5   13    8      4.15      0.00
    6   13    8      0.41      0.00
    7   13    8      3.22      0.00
    8   13    8      7.77      0.00
    9   13    8      4.13      0.00
   10   13    8     -3.86      0.00
   11   13    8     -1.54      0.00
   12   13    8      0.25      0.00
   13   13    8     -0.95      0.00
  -13   14    8     -1.25      0.00
  -12   14    8     -1.41      0.00
  -11   14    8     -2.94      0.00
  -10   14    8      4.59      0.00
   -9   14    8    -13.08      0.00
   -8   14    8     -2.17      0.00
   -7   14    8    -20.40      0.00
   -6   14    8      1.84      0.00
   -5   14    8    -20.04      0.00
   -4   14    8     -4.95      0.00
   -3   14    8    -23.93      0.00
   -2   14    8     -0.21      0.00
   -1   14    8     -1.14      0.00
    0   14    8     -1.05      0.00
    1   14    8    -10.71      0.00
    2   14    8      1.13      0.00
    3   14    8      8.18      0.00
    4   14    8      3.85      0.00
    5   14    8    -13.65      0.00
    6   14    8      0.63      0.00
    7   14    8      2.52      0.00
    8   14    8      3.28      0.00
    9   14    8    -11.83      0.00
   10   14    8      0.22      0.00
   11   14    8      1.84      0.00
   12   14    8      2.04      0.00
   13   14    8     -1.10      0.00
   14   14    8      0.84      0.00
  -14   15    8      2.22      0.00
  -13   15    8      1.83      0.00
  -12   15    8     -2.04      0.00
  -11   15    8     -3.29      0.00
  -10   15    8     -4.98      0.00
   -9   15    8     -6.81      0.00
   -8   15    8     -7.26      0.00
   -7   15    8    -10.15      0.00
   -6   15    8      1.98      0.00
   -5   15    8     -9.70      0.00
   -4   15    8      5.09      0.00
   -3   15    8    -10.82      0.00
   -2   15    8     12.41      0.00
   -1   15    8     -4.94      0.00
    0   15    8      7.05      0.00
    1   15    8     -3.91      0.00
    2   15    8      1.86      0.00
    3   15    8     -0.89      0.00
    4   15    8     -7.46      0.00
    5   15    8     -5.72      0.00
    6   15    8     -4.25      0.00
    7   15    8     -0.42      0.00
    8   15    8     -2.57      0.00
    9   15    8     -4.30      0.00
   10   15    8     -0.12      0.00
   11   15    8      4.59      0.00
   12   15    8      0.99      0.00
   13   15    8      0.12      0.00
   14   15    8     -1.12      0.00
   15   15    8      1.50      0.00
  -13   16    8     -1.44      0.00
  -12   16    8     -0.50      0.00
  -11   16    8      6.86      0.00
  -10   16    8     -3.47      0.00
   -9   16    8      8.44      0.00
   -8   16    8      0.13      0.00
   -7   16    8     18.46      0.00
   -6   16    8     -0.36      0.00
   -5   16    8     14.94      0.00
   -4   16    8     -1.84      0.00
   -3   16    8     18.45      0.00
   -2   16    8      1.40      0.00
   -1   16    8      6.29      0.00
    0   16    8     -0.83      0.00
    1   16    8      0.68      0.00
    2   16    8     -4.63      0.00
    3   16    8      2.90      0.00
    4   16    8      1.07      0.00
    5   16    8      0.65      0.00
    6   16    8     -5.29      0.00
    7   16    8      8.21      0.00
    8   16    8      2.35      0.00
    9   16    8     -1.43      0.00
   10   16    8     -5.39      0.00
   11   16    8      5.32      0.00
   12   16    8      0.91      0.00
   13   16    8     -3.73      0.00
   14   16    8     -3.31      0.00
  -12   17    8      1.25      0.00
  -11   17    8      1.57      0.00
  -10   17    8      4.56      0.00
   -9   17    8      5.23      0.00
   -8   17    8      5.22      0.00
   -7   17    8      9.63      0.00
   -6   17    8      1.71      0.00
   -5   17    8      5.00      0.00
   -4   17    8     -3.38      0.00
   -3   17    8      9.82      0.00
   -2   17    8     -6.80      0.00
   -1   17    8     -0.35      0.00
    0   17    8     -4.93      0.00
    1   17    8      4.46      0.00
    2   17    8      2.86      0.00
    3   17    8     -0.36      0.00
    4   17    8      3.97      0.00
    5   17    8      4.50      0.00
    6   17    8      6.64      0.00
    7   17    8      1.93      0.00
    8   17    8     -0.36      0.00
    9   17    8     -1.69      0.00
   10   17    8      1.26      0.00
   11   17    8     -1.24      0.00
   12   17    8     -1.54      0.00
  -10   18    8      4.97      0.00
   -9   18    8     -7.73      0.00
   -8   18    8     -1.38      0.00
   -7   18    8     -8.54      0.00
   -6   18    8      4.83      0.00
   -5   18    8    -14.95      0.00
   -4   18    8     -3.39      0.00
   -3   18    8     -9.43      0.00
   -2   18    8      5.92      0.00
   -1   18    8     -6.77      0.00
    0   18    8     -3.42      0.00
    1   18    8     -0.32      0.00
    2   18    8      5.29      0.00
    3   18    8     -0.59      0.00
    4   18    8      0.65      0.00
    5   18    8     -1.97      0.00
    6   18    8      1.22      0.00
    7   18    8     -2.51      0.00
    8   18    8     -0.23      0.00
    9   18    8     -1.66      0.00
   10   18    8      3.37      0.00
   11   18    8      0.28      0.00
   -9   19    8     -3.18      0.00
   -8   19    8     -3.74      0.00
   -7   19    8     -5.87      0.00
   -6   19    8     -3.73      0.00
   -5   19    8     -3.48      0.00
   -4   19    8      2.68      0.00
   -3   19    8     -3.86      0.00
   -2   19    8      2.63      0.00
   -1   19    8     -1.55      0.00
    0   19    8      0.59      0.00
    1   19    8     -0.74      0.00
    2   19    8     -1.02      0.00
    3   19    8     -0.25      0.00
    4   19    8     -5.35      0.00
    5   19    8     -4.36      0.00
    6   19    8     -1.73      0.00
    7   19    8      1.63      0.00
    8   19    8     -1.88      0.00
    9   19    8     -0.19      0.00
   -6   20    8     -1.18      0.00
   -5   20    8      6.33      0.00
   -4   20    8     -0.91      0.00
   -3   20    8      8.71      0.00
   -2   20    8     -0.67      0.00
   -1   20    8     -0.40      0.00
    0   20    8     -0.49      0.00
    1   20    8      3.46      0.00
    2   20    8     -2.27      0.00
    3   20    8     -1.77      0.00
    4   20    8     -0.44      0.00
    5   20    8      1.41      0.00
    6   20    8     -0.96      0.00
   -3   21    8      1.81      0.00
   -2   21    8     -3.46      0.00
    1   21    8      1.42      0.00
    2   21    8     -2.27      0.00
    3   21    8     -0.39      0.00
    0    0    9    -83.61      0.00
    0    1    9    -30.89      0.00
    1    1    9     17.99      0.00
   -1    2    9      2.25      0.00
    0    2    9      1.42      0.00
    1    2    9     -9.96      0.00
    2    2    9     75.98      0.00
   -2    3    9     10.06      0.00
   -1    3    9     -3.23      0.00
    0    3    9     20.49      0.00
    1    3    9     12.34      0.00
    2    3    9     10.91      0.00
    3    3    9    -32.78      0.00
   -3    4    9      0.85      0.00
   -2    4    9    -27.11      0.00
   -1    4    9     12.08      0.00
    0    4    9    -53.45      0.00
    1    4    9     -2.97      0.00
    2    4    9    -10.18      0.00
    3    4    9     12.53      0.00
    4    4    9    -27.89      0.00
   -4    5    9     -8.36      0.00
   -3    5    9    -15.96      0.00
   -2    5    9    -15.95      0.00
   -1    5    9    -27.17      0.00
    0    5    9     -9.04      0.00
    1    5    9     24.45      0.00
    2    5    9     -9.36      0.00
    3    5    9    -17.56      0.00
    4    5    9     -6.05      0.00
    5    5    9     29.97      0.00
   -5    6    9     -6.67      0.00
   -4    6    9     15.63      0.00
   -3    6    9     -8.23      0.00
   -2    6    9     39.05      0.00
   -1    6    9     -3.13      0.00
    0    6    9     27.85      0.00
    1    6    9    -11.59      0.00
    2    6    9     27.32      0.00
    3    6    9      0.31      0.00
    4    6    9     -1.31      0.00
    5    6    9     -5.71      0.00
    6    6    9      7.50      0.00
   -6    7    9     -1.14      0.00
   -5    7    9     36.46      0.00
   -4    7    9     15.03      0.00
   -3    7    9     19.06      0.00
   -2    7    9      7.16      0.00
   -1    7    9     14.40      0.00
    0    7    9      9.87      0.00
    1    7    9      0.04      0.00
    2    7    9      3.73      0.00
    3    7    9     -9.55      0.00
    4    7    9      3.99      0.00
    5    7    9     12.25      0.00
    6    7    9     -0.89      0.00
    7    7    9     -7.22      0.00
   -7    8    9      2.11      0.00
   -6    8    9     -9.51      0.00
   -5    8    9     11.82      0.00
   -4    8    9    -12.63      0.00
   -3    8    9      4.89      0.00
   -2    8    9    -32.55      0.00
   -1    8    9     10.17      0.00
    0    8    9    -22.62      0.00
    1    8    9      3.98      0.00
    2    8    9    -18.66      0.00
    3    8    9      8.64      0.00
    4    8    9      0.63      0.00
    5    8    9     -2.71      0.00
    6    8    9     -2.00      0.00
    7    8    9      9.38      0.00
    8    8    9      7.42      0.00
   -8    9    9      1.56      0.00
   -7    9    9    -29.22      0.00
   -6    9    9     -8.02      0.00
   -5    9    9    -18.77      0.00
   -4    9    9     -5.68      0.00
   -3    9    9    -32.26      0.00
   -2    9    9     -8.23      0.00
   -1    9    9     -4.51      0.00
    0    9    9     -5.33      0.00
    1    9    9     -4.33      0.00
    2    9    9     -2.49      0.00
    3    9    9      0.96      0.00
    4    9    9      0.86      0.00
    5    9    9      0.11      0.00
    6    9    9      1.06      0.00
    7    9    9    -15.83      0.00
    8    9    9     -1.29      0.00
    9    9    9      0.56      0.00
   -9   10    9     -1.62      0.00
   -8   10    9     -8.89      0.00
   -7   10    9     -8.69      0.00
   -6   10    9      7.83      0.00
   -5   10    9     -7.66      0.00
   -4   10    9     10.70      0.00
   -3   10    9    -10.66      0.00
   -2   10    9     27.61      0.00
   -1   10    9     -7.35      0.00
    0   10    9     13.75      0.00
    1   10    9     -6.01      0.00
    2   10    9     14.53      0.00
    3   10    9     -3.41      0.00
    4   10    9     -2.94      0.00
    5   10    9     -4.58      0.00
    6   10    9     -1.43      0.00
    7   10    9     -2.67      0.00
    8   10    9     -3.22      0.00
    9   10    9     -3.48      0.00
   10   10    9      1.34      0.00
  -10   11    9     -1.19      0.00
   -9   11    9     17.39      0.00
   -8   11    9      1.81      0.00
   -7   11    9     11.30      0.00
   -6   11    9      0.80      0.00
   -5   11    9     39.98      0.00
   -4   11    9      9.30      0.00
   -3   11    9      7.23      0.00
   -2   11    9     -1.17      0.00
   -1   11    9     23.59      0.00
    0   11    9      8.37      0.00
    1   11    9     -8.39      0.00
    2   11    9     -5.80      0.00
    3   11    9      9.44      0.00
    4   11    9      1.57      0.00
    5   11    9     -2.71      0.00
    6   11    9     -3.66      0.00
    7   11    9     12.78      0.00
    8   11    9      0.02      0.00
    9   11    9      6.43      0.00
   10   11    9      0.91      0.00
   11   11    9      2.59      0.00
  -11   12    9      1.47      0.00
  -10   12    9      5.63      0.00
   -9   12    9      5.36      0.00
   -8   12    9      2.51      0.00
   -7   12    9      6.15      0.00
   -6   12    9      2.18      0.00
   -5   12    9     11.58      0.00
   -4   12    9    -17.60      0.00
   -3   12    9      5.92      0.00
   -2   12    9    -11.69      0.00
   -1   12    9     11.84      0.00
    0   12    9    -19.27      0.00
    1   12    9     -0.66      0.00
    2   12    9      0.66      0.00
    3   12    9      8.93      0.00
    4   12    9     -2.78      0.00
    5   12    9     -2.09      0.00
    6   12    9      8.52      0.00
    7   12    9      7.36      0.00
    8   12    9      0.93      0.00
    9   12    9     -0.69      0.00
   10   12    9     -1.90      0.00
   11   12    9      0.79      0.00
   12   12    9     -0.11      0.00
  -12   13    9     -0.96      0.00
  -11   13    9     -0.74      0.00
  -10   13    9      2.07      0.00
   -9   13    9    -14.55      0.00
   -8   13    9     -0.19      0.00
   -7   13    9    -17.37      0.00
   -6   13    9     -1.64      0.00
   -5   13    9    -25.71      0.00
   -4   13    9     -2.65      0.00
   -3   13    9    -20.58      0.00
   -2   13    9      0.31      0.00
   -1   13    9     -7.10      0.00
    0   13    9     -1.82      0.00
    1   13    9     -5.13      0.00
    2   13    9      4.94      0.00
    3   13    9      0.81      0.00
    4   13    9     -0.17      0.00
    5   13    9     -7.28      0.00
    6   13    9      3.69      0.00
    7   13    9     -3.84      0.00
    8   13    9     -0.14      0.00
    9   13    9     -7.82      0.00
   10   13    9      1.24      0.00
   11   13    9     -2.08      0.00
   12   13    9      0.60      0.00
   13   13    9      1.36      0.00
  -13   14    9     -0.20      0.00
  -12   14    9     -0.50      0.00
  -11   14    9     -1.96      0.00
  -10   14    9     -5.70      0.00
   -9   14    9     -5.32      0.00
   -8   14    9     -5.50      0.00
   -7   14    9     -6.30      0.00
   -6   14    9      3.03      0.00
   -5   14    9     -8.59      0.00
   -4   14    9      3.92      0.00
   -3   14    9     -7.71      0.00
   -2   14    9     19.60      0.00
   -1   14    9     -4.87      0.00
    0   14    9      0.23      0.00
    1   14    9     -4.60      0.00
    2   14    9     11.00      0.00
    3   14    9     -0.78      0.00
    4   14    9    -15.42      0.00
    5   14    9     -4.34      0.00
    6   14    9      5.21      0.00
    7   14    9     -1.01      0.00
    8   14    9    -11.70      0.00
    9   14    9     -2.64      0.00
   10   14    9      7.97      0.00
   11   14    9      2.86      0.00
   12   14    9     -3.24      0.00
   13   14    9      0.13      0.00
   14   14    9      1.03      0.00
  -14   15    9      1.47      0.00
  -13   15    9      0.32      0.00
  -12   15    9     -1.16      0.00
  -11   15    9      3.84      0.00
  -10   15    9     -1.78      0.00
   -9   15    9     10.72      0.00
   -8   15    9      0.73      0.00
   -7   15    9     17.02      0.00
   -6   15    9     -0.67      0.00
   -5   15    9     20.03      0.00
   -4   15    9      0.63      0.00
   -3   15    9     16.85      0.00
   -2   15    9     -2.69      0.00
   -1   15    9      8.83      0.00
    0   15    9      0.31      0.00
    1   15    9      1.29      0.00
    2   15    9     -4.71      0.00
    3   15    9      1.24      0.00
    4   15    9     -0.82      0.00
    5   15    9      4.33      0.00
    6   15    9     -1.15      0.00
    7   15    9      5.94      0.00
    8   15    9     -2.17      0.00
    9   15    9      1.50      0.00
   10   15    9      0.22      0.00
   11   15    9      3.45      0.00
   12   15    9     -2.75      0.00
   13   15    9     -1.71      0.00
   14   15    9     -0.24      0.00
  -12   16    9      3.46      0.00
  -11   16    9      1.79      0.00
  -10   16    9      2.52      0.00
   -9   16    9      4.66      0.00
   -8   16    9      7.16      0.00
   -7   16    9      6.33      0.00
   -6   16    9     -2.65      0.00
   -5   16    9      3.24      0.00
   -4   16    9     -0.57      0.00
   -3   16    9      9.07      0.00
   -2   16    9    -11.36      0.00
   -1   16    9     -0.18      0.00
    0   16    9     -3.67      0.00
    1   16    9      2.56      0.00
    2   16    9      1.36      0.00
    3   16    9      2.72      0.00
    4   16    9      5.20      0.00
    5   16    9      1.04      0.00
    6   16    9      6.69      0.00
    7   16    9      3.71      0.00
    8   16    9     -1.74      0.00
    9   16    9     -1.97      0.00
   10   16    9      2.48      0.00
   11   16    9     -0.48      0.00
   12   16    9     -2.49      0.00
  -11   17    9     -3.09      0.00
   -9   17    9     -8.89      0.00
   -8   17    9      1.16      0.00
   -7   17    9    -10.03      0.00
   -6   17    9     -0.27      0.00
   -5   17    9    -16.30      0.00
   -4   17    9      2.11      0.00
   -3   17    9    -11.18      0.00
   -2   17    9      0.73      0.00
   -1   17    9     -7.92      0.00
    0   17    9      2.25      0.00
    1   17    9      1.33      0.00
    2   17    9      2.47      0.00
    3   17    9     -3.87      0.00
    4   17    9      0.69      0.00
    5   17    9      0.56      0.00
    6   17    9      1.92      0.00
    7   17    9     -6.35      0.00
    8   17    9     -1.43      0.00
    9   17    9      1.25      0.00
   10   17    9      3.25      0.00
   11   17    9     -2.81      0.00
  -10   18    9     -3.31      0.00
   -9   18    9     -4.32      0.00
   -8   18    9     -3.52      0.00
   -7   18    9     -2.83      0.00
   -6   18    9     -2.77      0.00
   -5   18    9     -4.95      0.00
   -4   18    9      2.53      0.00
   -3   18    9     -0.07      0.00
   -2   18    9      3.77      0.00
   -1   18    9     -3.42      0.00
    0   18    9      1.39      0.00
    1   18    9      1.16      0.00
    2   18    9     -0.96      0.00
    3   18    9     -1.79      0.00
    4   18    9     -6.13      0.00
    5   18    9     -3.18      0.00
    6   18    9     -2.49      0.00
    7   18    9     -0.80      0.00
    8   18    9     -1.55      0.00
    9   18    9      2.20      0.00
   10   18    9      1.80      0.00
   -7   19    9      4.85      0.00
   -6   19    9     -0.51      0.00
   -5   19    9     10.63      0.00
   -4   19    9     -0.08      0.00
   -3   19    9      5.38      0.00
   -2   19    9     -2.22      0.00
   -1   19    9      5.18      0.00
    0   19    9      0.32      0.00
    1   19    9     -0.39      0.00
    2   19    9     -2.51      0.00
    3   19    9      1.12      0.00
    4   19    9     -0.98      0.00
    5   19    9      0.58      0.00
    6   19    9      0.74      0.00
    7   19    9      1.63      0.00
   -3   20    9      1.29      0.00
   -2   20    9     -4.25      0.00
   -1   20    9      0.15      0.00
    1   20    9      0.22      0.00
    2   20    9     -1.28      0.00
    3   20    9      1.51      0.00
    4   20    9      4.58      0.00
    0    0   10    -29.09      0.00
    0    1   10     47.19      0.00
    1    1   10     10.37      0.00
   -1    2   10    -24.30      0.00
    0    2   10      5.06      0.00
    1    2   10     31.15      0.00
    2    2   10     14.91      0.00
   -2    3   10    -49.26      0.00
   -1    3   10     12.92      0.00
    0    3   10    -21.22      0.00
    1    3   10     -3.65      0.00
    2    3   10    -48.32      0.00
    3    3   10      7.83      0.00
   -3    4   10    -11.54      0.00
   -2    4   10     -7.58      0.00
   -1    4   10    -25.52      0.00
    0    4   10     -9.39      0.00
    1    4   10     22.00      0.00
    2    4   10     -2.84      0.00
    3    4   10    -11.55      0.00
    4    4   10     -6.02      0.00
   -4    5   10     22.81      0.00
   -3    5   10     -3.18      0.00
   -2    5   10     25.57      0.00
   -1    5   10     -2.57      0.00
    0    5   10     47.17      0.00
    1    5   10     -7.02      0.00
    2    5   10      3.92      0.00
    3    5   10     -5.85      0.00
    4    5   10     30.21      0.00
    5    5   10      2.27      0.00
   -5    6   10     24.05      0.00
   -4    6   10      1.99      0.00
   -3    6   10     26.04      0.00
   -2    6   10     12.62      0.00
   -1    6   10      8.66      0.00
    0    6   10     -3.20      0.00
    1    6   10      0.94      0.00
    2    6   10     12.02      0.00
    3    6   10     -8.45      0.00
    4    6   10     -4.44      0.00
    5    6   10      5.63      0.00
    6    6   10      6.70      0.00
   -6    7   10      2.51      0.00
   -5    7   10     11.03      0.00
   -4    7   10    -23.22      0.00
   -3    7   10     -1.88      0.00
   -2    7   10    -26.56      0.00
   -1    7   10     10.24      0.00
    0    7   10    -26.65      0.00
    1    7   10      0.77      0.00
    2    7   10    -21.47      0.00
    3    7   10     10.92      0.00
    4    7   10      4.26      0.00
    5    7   10     -3.52      0.00
    6    7   10    -13.29      0.00
    7    7   10      7.53      0.00
   -7    8   10    -19.63      0.00
   -6    8   10     -4.55      0.00
   -5    8   10    -24.47      0.00
   -4    8   10     -5.34      0.00
   -3    8   10    -24.38      0.00
   -2    8   10     -4.59      0.00
   -1    8   10    -10.61      0.00
    0    8   10     -2.94      0.00
    1    8   10     -0.39      0.00
    2    8   10     -0.61      0.00
    3    8   10      1.51      0.00
    4    8   10     -3.22      0.00
    5    8   10     -3.45      0.00
    6    8   10      2.74      0.00
    7    8   10     -7.27      0.00
    8    8   10     -1.00      0.00
   -8    9   10    -12.60      0.00
   -7    9   10     -3.09      0.00
   -6    9   10     14.28      0.00
   -5    9   10     -5.80      0.00
   -4    9   10      4.88      0.00
   -3    9   10     -3.84      0.00
   -2    9   10     33.36      0.00
   -1    9   10     -8.50      0.00
    0    9   10     13.80      0.00
    1    9   10     -2.95      0.00
    2    9   10     15.53      0.00
    3    9   10     -6.15      0.00
    4    9   10      1.51      0.00
    5    9   10     -1.63      0.00
    6    9   10     -5.82      0.00
    7    9   10     -5.35      0.00
    8    9   10      5.36      0.00
    9    9   10      0.71      0.00
   -9   10   10      6.28      0.00
   -8   10   10     -2.27      0.00
   -7   10   10     23.12      0.00
   -6   10   10      6.76      0.00
   -5   10   10     23.16      0.00
   -4   10   10      0.63      0.00
   -3   10   10     24.20      0.00
   -2   10   10      4.58      0.00
   -1   10   10      7.84      0.00
    0   10   10     -0.45      0.00
    1   10   10      5.04      0.00
    2   10   10      1.14      0.00
    3   10   10     -1.09      0.00
    4   10   10     -5.15      0.00
    5   10   10      5.13      0.00
    6   10   10      3.42      0.00
    7   10   10      8.60      0.00
    8   10   10     -4.60      0.00
    9   10   10      7.21      0.00
   10   10   10      3.31      0.00
  -10   11   10      7.48      0.00
   -9   11   10      4.08      0.00
   -8   11   10     -2.91      0.00
   -7   11   10      1.22      0.00
   -6   11   10      7.07      0.00
   -5   11   10     10.65      0.00
   -4   11   10    -24.04      0.00
   -3   11   10      0.80      0.00
   -2   11   10     -8.08      0.00
   -1   11   10     11.70      0.00
    0   11   10    -23.47      0.00
    1   11   10     -1.08      0.00
    2   11   10      0.38      0.00
    3   11   10      8.36      0.00
    4   11   10     -5.14      0.00
    5   11   10     -0.87      0.00
    6   11   10      8.51      0.00
    7   11   10      5.13      0.00
    8   11   10      0.23      0.00
    9   11   10     -0.69      0.00
   10   11   10     -3.27      0.00
   11   11   10      0.02      0.00
  -11   12   10      0.00      0.00
  -10   12   10     -1.14      0.00
   -9   12   10    -13.77      0.00
   -8   12   10      1.71      0.00
   -7   12   10    -14.20      0.00
   -6   12   10     -3.74      0.00
   -5   12   10    -31.37      0.00
   -4   12   10     -1.02      0.00
   -3   12   10    -12.00      0.00
   -2   12   10      0.63      0.00
   -1   12   10    -18.68      0.00
    0   12   10     -0.26      0.00
    1   12   10      5.76      0.00
    2   12   10      5.47      0.00
    3   12   10    -10.38      0.00
    4   12   10     -0.03      0.00
    5   12   10      2.45      0.00
    6   12   10      3.25      0.00
    7   12   10    -12.20      0.00
    8   12   10     -0.12      0.00
    9   12   10     -4.39      0.00
   10   12   10     -0.23      0.00
   11   12   10     -2.77      0.00
   12   12   10      1.79      0.00
  -12   13   10     -0.27      0.00
  -11   13   10     -0.02      0.00
  -10   13   10     -5.92      0.00
   -9   13   10     -4.63      0.00
   -8   13   10     -2.38      0.00
   -7   13   10     -2.87      0.00
   -6   13   10      0.44      0.00
   -5   13   10     -7.14      0.00
   -4   13   10      8.23      0.00
   -3   13   10     -3.52      0.00
   -2   13   10     17.92      0.00
   -1   13   10     -7.59      0.00
    0   13   10      4.40      0.00
    1   13   10      0.04      0.00
    2   13   10      6.76      0.00
    3   13   10     -6.14      0.00
    4   13   10     -7.69      0.00
    5   13   10      1.88      0.00
    6   13   10     -0.95      0.00
    7   13   10     -5.06      0.00
    8   13   10     -5.44      0.00
    9   13   10      2.49      0.00
   10   13   10      3.65      0.00
   11   13   10     -1.06      0.00
   12   13   10      0.60      0.00
   13   13   10      1.59      0.00
  -13   14   10      1.31      0.00
  -12   14   10     -1.85      0.00
  -11   14   10      1.69      0.00
  -10   14   10      0.46      0.00
   -9   14   10     10.90      0.00
   -8   14   10     -1.27      0.00
   -7   14   10     16.59      0.00
   -6   14   10      2.31      0.00
   -5   14   10     20.30      0.00
   -4   14   10     -1.82      0.00
   -3   14   10     20.06      0.00
   -2   14   10     -0.83      0.00
   -1   14   10      5.02      0.00
    0   14   10     -4.42      0.00
    1   14   10      7.66      0.00
    2   14   10     -1.87      0.00
    3   14   10     -4.87      0.00
    4   14   10     -3.59      0.00
    5   14   10     12.58      0.00
    6   14   10      0.83      0.00
    7   14   10     -2.65      0.00
    8   14   10     -3.18      0.00
    9   14   10     10.82      0.00
   10   14   10      2.06      0.00
   11   14   10     -2.77      0.00
   12   14   10     -3.60      0.00
   13   14   10      2.27      0.00
  -12   15   10      1.97      0.00
  -11   15   10      1.15      0.00
  -10   15   10      3.62      0.00
   -9   15   10      4.28      0.00
   -8   15   10      4.43      0.00
   -7   15   10      1.46      0.00
   -6   15   10     -0.97      0.00
   -5   15   10      5.74      0.00
   -4   15   10     -3.95      0.00
   -3   15   10      2.02      0.00
   -2   15   10    -11.29      0.00
   -1   15   10      5.15      0.00
    0   15   10     -3.63      0.00
    1   15   10     -1.36      0.00
    2   15   10     -0.90      0.00
    3   15   10      4.40      0.00
    4   15   10      7.78      0.00
    5   15   10     -0.43      0.00
    6   15   10      3.47      0.00
    7   15   10      2.30      0.00
    8   15   10      0.72      0.00
    9   15   10     -0.63      0.00
   10   15   10     -0.02      0.00
   11   15   10     -1.07      0.00
   12   15   10     -1.19      0.00
   13   15   10     -0.50      0.00
  -11   16   10     -4.02      0.00
  -10   16   10     -0.43      0.00
   -9   16   10     -7.11      0.00
   -8   16   10      1.61      0.00
   -7   16   10    -13.46      0.00
   -6   16   10     -3.06      0.00
   -5   16   10    -14.64      0.00
   -4   16   10      6.04      0.00
   -3   16   10    -14.67      0.00
   -2   16   10     -2.22      0.00
   -1   16   10     -7.04      0.00
    0   16   10      5.98      0.00
    1   16   10      0.77      0.00
    2   16   10      1.60      0.00
    3   16   10     -3.96      0.00
    4   16   10      0.84      0.00
    5   16   10     -0.63      0.00
    6   16   10      0.88      0.00
    7   16   10     -7.23      0.00
    8   16   10      0.68      0.00
    9   16   10      2.03      0.00
   10   16   10      0.41      0.00
   11   16   10     -3.65      0.00
   -8   17   10     -2.28      0.00
   -7   17   10     -1.99      0.00
   -6   17   10     -2.39      0.00
   -5   17   10     -2.50      0.00
   -4   17   10      2.49      0.00
   -3   17   10     -0.99      0.00
   -2   17   10      5.52      0.00
   -1   17   10     -1.44      0.00
    0   17   10      2.05      0.00
    1   17   10      0.99      0.00
    2   17   10     -2.75      0.00
    3   17   10     -3.20      0.00
    4   17   10     -4.21      0.00
    5   17   10      0.43      0.00
    6   17   10     -5.31      0.00
    7   17   10     -3.77      0.00
    8   17   10      1.74      0.00
    9   17   10      3.68      0.00
   10   17   10     -0.84      0.00
   -8   18   10     -1.00      0.00
   -7   18   10      5.99      0.00
   -6   18   10      0.39      0.00
   -5   18   10     11.61      0.00
   -4   18   10     -0.73      0.00
   -3   18   10      5.96      0.00
   -2   18   10     -2.13      0.00
   -1   18   10      5.59      0.00
    0   18   10     -1.21      0.00
    1   18   10     -0.19      0.00
    2   18   10     -1.20      0.00
    3   18   10      1.14      0.00
    4   18   10     -1.99      0.00
    5   18   10      1.53      0.00
    6   18   10      1.28      0.00
    7   18   10      1.81      0.00
   -4   19   10     -1.27      0.00
   -3   19   10     -1.83      0.00
   -2   19   10     -1.11      0.00
   -1   19   10      1.80      0.00
    1   19   10     -1.77      0.00
    2   19   10      1.95      0.00
    3   19   10      2.56      0.00
    4   19   10      3.25      0.00
    5   19   10      1.24      0.00
    0    0   11     77.80      0.00
    0    1   11      9.75      0.00
    1    1   11     -8.98      0.00
   -1    2   11      1.97      0.00
    0    2   11     -7.00      0.00
    1    2   11      2.96      0.00
    2    2   11    -58.90      0.00
   -2    3   11      3.46      0.00
   -1    3   11      6.57      0.00
    0    3   11    -10.25      0.00
    1    3   11    -15.78      0.00
    2    3   11      2.32      0.00
    3    3   11     31.37      0.00
   -3    4   11      3.03      0.00
   -2    4   11     17.06      0.00
   -1    4   11     -4.77      0.00
    0    4   11     51.53      0.00
    1    4   11     -1.58      0.00
    2    4   11      1.34      0.00
    3    4   11     -8.42      0.00
    4    4   11     31.12      0.00
   -4    5   11     -0.09      0.00
   -3    5   11     20.06      0.00
   -2    5   11      7.93      0.00
   -1    5   11     16.13      0.00
    0    5   11     -5.24      0.00
    1    5   11    -12.82      0.00
    2    5   11      6.59      0.00
    3    5   11      9.95      0.00
    4    5   11      0.18      0.00
    5    5   11    -18.85      0.00
   -5    6   11     -1.28      0.00
   -4    6   11    -19.21      0.00
   -3    6   11      3.53      0.00
   -2    6   11    -27.69      0.00
   -1    6   11     -1.70      0.00
    0    6   11    -28.17      0.00
    1    6   11     11.01      0.00
    2    6   11    -18.21      0.00
    3    6   11     -0.35      0.00
    4    6   11     -4.76      0.00
    5    6   11      6.14      0.00
    6    6   11     -2.28      0.00
   -6    7   11      0.27      0.00
   -5    7   11    -26.69      0.00
   -4    7   11     -5.38      0.00
   -3    7   11    -19.98      0.00
   -2    7   11      0.81      0.00
   -1    7   11     -9.13      0.00
    0    7   11     -2.38      0.00
    1    7   11     -4.33      0.00
    2    7   11      2.96      0.00
    3    7   11     10.13      0.00
    4    7   11     -6.31      0.00
    5    7   11    -15.54      0.00
    6    7   11      3.21      0.00
    7    7   11      9.90      0.00
   -7    8   11      1.00      0.00
   -6    8   11      2.44      0.00
   -5    8   11     -2.80      0.00
   -4    8   11     17.34      0.00
   -3    8   11     -0.62      0.00
   -2    8   11     21.30      0.00
   -1    8   11     -5.70      0.00
    0    8   11     24.95      0.00
    1    8   11     -2.15      0.00
    2    8   11     10.02      0.00
    3    8   11     -8.17      0.00
    4    8   11      6.32      0.00
    5    8   11      1.44      0.00
    6    8   11     -3.82      0.00
    7    8   11     -6.23      0.00
    8    8   11      0.21      0.00
   -8    9   11     -0.36      0.00
   -7    9   11     29.82      0.00
   -6    9   11      4.41      0.00
   -5    9   11     11.60      0.00
   -4    9   11      0.94      0.00
   -3    9   11     31.55      0.00
   -2    9   11      0.10      0.00
   -1    9   11      1.02      0.00
    0    9   11     -0.79      0.00
    1    9   11      9.00      0.00
    2    9   11     -0.68      0.00
    3    9   11     -3.56      0.00
    4    9   11     -1.75      0.00
    5    9   11      5.29      0.00
    6    9   11      0.60      0.00
    7    9   11     10.81      0.00
    8    9   11     -1.53      0.00
    9    9   11      3.22      0.00
   -9   10   11     -0.30      0.00
   -8   10   11      3.81      0.00
   -7   10   11      2.37      0.00
   -6   10   11     -3.86      0.00
   -5   10   11      2.16      0.00
   -4   10   11    -12.07      0.00
   -3   10   11      2.98      0.00
   -2   10   11    -20.36      0.00
   -1   10   11      5.45      0.00
    0   10   11    -14.44      0.00
    1   10   11      3.49      0.00
    2   10   11     -9.24      0.00
    3   10   11      1.99      0.00
    4   10   11     -0.33      0.00
    5   10   11      6.31      0.00
    6   10   11      4.21      0.00
    7   10   11     -2.06      0.00
    8   10   11     -1.15      0.00
    9   10   11      3.14      0.00
   10   10   11      1.21      0.00
  -10   11   11     -1.53      0.00
   -9   11   11    -12.08      0.00
   -8   11   11     -0.24      0.00
   -7   11   11    -13.01      0.00
   -6   11   11     -0.41      0.00
   -5   11   11    -29.80      0.00
   -4   11   11     -2.90      0.00
   -3   11   11    -11.46      0.00
   -2   11   11      2.99      0.00
   -1   11   11    -17.40      0.00
    0   11   11      1.44      0.00
    1   11   11      2.51      0.00
    2   11   11      4.51      0.00
    3   11   11     -6.99      0.00
    4   11   11      1.57      0.00
    5   11   11     -1.19      0.00
    6   11   11      1.74      0.00
    7   11   11     -8.74      0.00
    8   11   11      0.69      0.00
    9   11   11     -8.61      0.00
   10   11   11     -0.62      0.00
   11   11   11      0.19      0.00
  -11   12   11     -1.78      0.00
  -10   12   11     -7.34      0.00
   -9   12   11      0.03      0.00
   -8   12   11      2.49      0.00
   -7   12   11     -3.89      0.00
   -6   12   11     -6.03      0.00
   -5   12   11     -2.33      0.00
   -4   12   11     18.65      0.00
   -3   12   11     -2.52      0.00
   -2   12   11      5.97      0.00
   -1   12   11     -5.76      0.00
    0   12   11     19.07      0.00
    1   12   11     -0.47      0.00
    2   12   11     -5.98      0.00
    3   12   11     -4.94      0.00
    4   12   11      6.68      0.00
    5   12   11      0.60      0.00
    6   12   11    -12.12      0.00
    7   12   11     -2.08      0.00
    8   12   11      3.98      0.00
   10   12   11     -1.21      0.00
   11   12   11      0.90      0.00
   12   12   11      2.41      0.00
  -12   13   11     -0.78      0.00
  -11   13   11      2.22      0.00
  -10   13   11     -0.73      0.00
   -9   13   11      9.05      0.00
   -8   13   11      0.06      0.00
   -7   13   11     16.52      0.00
   -6   13   11      1.74      0.00
   -5   13   11     18.86      0.00
   -4   13   11     -1.59      0.00
   -3   13   11     21.24      0.00
   -2   13   11     -1.97      0.00
   -1   13   11      4.16      0.00
    0   13   11     -4.99      0.00
    1   13   11      7.96      0.00
    2   13   11     -4.22      0.00
    3   13   11     -1.79      0.00
    4   13   11     -1.35      0.00
    5   13   11      8.87      0.00
    6   13   11     -2.56      0.00
    7   13   11      0.98      0.00
    8   13   11      0.74      0.00
    9   13   11      8.95      0.00
   10   13   11     -1.27      0.00
   11   13   11     -1.31      0.00
   12   13   11     -0.38      0.00
   13   13   11      1.43      0.00
  -12   14   11     -0.02      0.00
  -11   14   11      1.64      0.00
  -10   14   11      5.02      0.00
   -9   14   11      1.15      0.00
   -8   14   11      1.16      0.00
   -7   14   11      2.03      0.00
   -6   14   11      1.28      0.00
   -5   14   11      2.11      0.00
   -4   14   11     -6.90      0.00
   -3   14   11      1.67      0.00
   -2   14   11    -11.39      0.00
   -1   14   11      3.67      0.00
    0   14   11     -2.64      0.00
    1   14   11     -0.02      0.00
    2   14   11     -3.80      0.00
    3   14   11      2.35      0.00
    4   14   11     10.27      0.00
    5   14   11      0.03      0.00
    6   14   11     -1.57      0.00
    7   14   11     -0.29      0.00
    8   14   11      6.14      0.00
    9   14   11      0.53      0.00
   10   14   11     -4.44      0.00
   11   14   11     -2.08      0.00
   12   14   11      1.04      0.00
  -11   15   11     -3.19      0.00
  -10   15   11      0.24      0.00
   -9   15   11     -6.13      0.00
   -8   15   11     -0.72      0.00
   -7   15   11    -14.10      0.00
   -6   15   11     -0.40      0.00
   -5   15   11    -13.99      0.00
   -4   15   11      2.62      0.00
   -3   15   11    -17.05      0.00
   -2   15   11      2.10      0.00
   -1   15   11     -4.39      0.00
    0   15   11      5.08      0.00
    1   15   11     -3.57      0.00
    2   15   11      2.97      0.00
    3   15   11      0.53      0.00
    4   15   11      0.85      0.00
    5   15   11     -6.45      0.00
    6   15   11      0.76      0.00
    7   15   11     -2.06      0.00
    8   15   11      0.84      0.00
    9   15   11     -3.22      0.00
   10   15   11      0.03      0.00
   11   15   11      0.02      0.00
  -10   16   11     -2.59      0.00
   -7   16   11     -2.24      0.00
   -6   16   11     -1.79      0.00
   -5   16   11      1.38      0.00
   -4   16   11      3.50      0.00
   -3   16   11     -3.14      0.00
   -2   16   11      5.04      0.00
   -1   16   11      0.89      0.00
    0   16   11      4.31      0.00
    1   16   11      0.17      0.00
    2   16   11     -5.36      0.00
    3   16   11     -2.39      0.00
    4   16   11     -1.92      0.00
    5   16   11      0.96      0.00
    6   16   11     -7.50      0.00
    7   16   11     -0.96      0.00
    8   16   11      4.60      0.00
    9   16   11      0.31      0.00
   10   16   11     -3.36      0.00
   -8   17   11     -0.13      0.00
   -7   17   11      7.30      0.00
   -6   17   11      0.73      0.00
   -5   17   11     10.28      0.00
   -4   17   11     -2.32      0.00
   -3   17   11      9.93      0.00
   -2   17   11     -0.94      0.00
   -1   17   11      2.59      0.00
    0   17   11     -3.66      0.00
    1   17   11      1.48      0.00
    2   17   11     -1.19      0.00
    3   17   11      0.60      0.00
    4   17   11      0.02      0.00
    5   17   11      2.54      0.00
    6   17   11     -1.52      0.00
    7   17   11      2.48      0.00
   -4   18   11     -3.48      0.00
   -3   18   11     -1.88      0.00
   -2   18   11      0.21      0.00
    2   18   11      3.43      0.00
    3   18   11      1.35      0.00
    4   18   11      2.70      0.00
    5   18   11      1.55      0.00
    0    0   12      6.40      0.00
    0    1   12    -38.56      0.00
    1    1   12      2.78      0.00
   -1    2   12     19.94      0.00
    0    2   12     -5.73      0.00
    1    2   12    -27.00      0.00
    2    2   12      6.86      0.00
   -2    3   12     38.52      0.00
   -1    3   12     -5.38      0.00
    0    3   12     19.29      0.00
    1    3   12      0.36      0.00
    2    3   12     37.95      0.00
    3    3   12     -7.70      0.00
   -3    4   12      8.08      0.00
   -2    4   12     -5.02      0.00
   -1    4   12     22.06      0.00
    0    4   12      2.00      0.00
    1    4   12    -18.36      0.00
    2    4   12     -5.58      0.00
    3    4   12     12.94      0.00
    4    4   12      5.55      0.00
   -4    5   12    -18.64      0.00
   -3    5   12      5.16      0.00
   -2    5   12    -22.34      0.00
   -1    5   12     -8.72      0.00
    0    5   12    -35.65      0.00
    1    5   12     14.56      0.00
    2    5   12     -5.21      0.00
    3    5   12     -3.33      0.00
    4    5   12    -23.81      0.00
    5    5   12      8.67      0.00
   -5    6   12    -19.23      0.00
   -4    6   12     -1.18      0.00
   -3    6   12    -19.26      0.00
   -2    6   12      0.88      0.00
   -1    6   12     -8.19      0.00
    0    6   12      5.24      0.00
    1    6   12     -1.91      0.00
    2    6   12     -1.33      0.00
    3    6   12      5.52      0.00
    4    6   12     -1.10      0.00
    5    6   12     -5.97      0.00
    6    6   12     -0.46      0.00
   -6    7   12     -1.54      0.00
   -5    7   12      2.17      0.00
   -4    7   12     19.43      0.00
   -3    7   12     -0.17      0.00
   -2    7   12     20.20      0.00
   -1    7   12     -1.27      0.00
    0    7   12     22.12      0.00
    1    7   12     -3.85      0.00
    2    7   12     17.31      0.00
    3    7   12     -5.63      0.00
    4    7   12     -3.08      0.00
    5    7   12     -0.52      0.00
    6    7   12     11.31      0.00
    7    7   12     -2.91      0.00
   -7    8   12     15.27      0.00
   -6    8   12     -0.79      0.00
   -5    8   12     21.21      0.00
   -4    8   12      2.67      0.00
   -3    8   12     16.70      0.00
   -2    8   12     -5.29      0.00
   -1    8   12     11.27      0.00
    0    8   12      0.72      0.00
    1    8   12      0.11      0.00
    2    8   12     -6.90      0.00
    3    8   12      2.03      0.00
    4    8   12      6.91      0.00
    5    8   12      2.73      0.00
    6    8   12     -6.36      0.00
    7    8   12      7.10      0.00
    8    8   12      3.26      0.00
   -8    9   12     10.36      0.00
   -7    9   12      2.81      0.00
   -6    9   12    -12.52      0.00
   -5    9   12     -3.67      0.00
   -4    9   12     -3.92      0.00
   -3    9   12      2.49      0.00
   -2    9   12    -25.50      0.00
   -1    9   12      1.15      0.00
    0    9   12    -11.59      0.00
    1    9   12      5.76      0.00
    2    9   12    -13.04      0.00
    3    9   12     -0.28      0.00
    4    9   12      0.07      0.00
    5    9   12      6.77      0.00
    6    9   12      3.85      0.00
    7    9   12     -2.80      0.00
    8    9   12     -4.61      0.00
    9    9   12      4.04      0.00
   -9   10   12     -5.32      0.00
   -8   10   12     -2.38      0.00
   -7   10   12    -18.74      0.00
   -6   10   12      1.20      0.00
   -5   10   12    -17.86      0.00
   -4   10   12     -2.04      0.00
   -3   10   12    -19.88      0.00
   -2   10   12      5.47      0.00
   -1   10   12     -6.48      0.00
    0   10   12      1.73      0.00
    1   10   12     -6.92      0.00
    2   10   12      3.81      0.00
    3   10   12      0.53      0.00
    4   10   12      3.37      0.00
    5   10   12     -6.32      0.00
    6   10   12     -1.29      0.00
    7   10   12     -6.70      0.00
    8   10   12      3.04      0.00
    9   10   12     -6.11      0.00
   10   10   12     -0.22      0.00
  -10   11   12     -4.76      0.00
   -9   11   12      3.13      0.00
   -8   11   12      1.22      0.00
   -7   11   12     -2.18      0.00
   -6   11   12     -3.50      0.00
   -5   11   12     -0.10      0.00
   -4   11   12     16.64      0.00
   -3   11   12     -1.32      0.00
   -2   11   12      7.07      0.00
   -1   11   12     -1.60      0.00
    0   11   12     18.10      0.00
    1   11   12     -3.87      0.00
    2   11   12     -1.54      0.00
    3   11   12     -0.50      0.00
    4   11   12      3.36      0.00
    5   11   12     -3.66      0.00
    6   11   12     -6.76      0.00
    7   11   12      2.45      0.00
    9   11   12     -1.60      0.00
   10   11   12      2.32      0.00
   11   11   12      3.41      0.00
  -11   12   12     -0.17      0.00
  -10   12   12      0.19      0.00
   -9   12   12     11.06      0.00
   -8   12   12     -0.70      0.00
   -7   12   12     10.11      0.00
   -6   12   12      0.87      0.00
   -5   12   12     24.39      0.00
   -4   12   12     -0.01      0.00
   -3   12   12     10.87      0.00
   -2   12   12     -4.98      0.00
   -1   12   12     14.21      0.00
    0   12   12     -4.22      0.00
    1   12   12     -2.19      0.00
    2   12   12     -5.67      0.00
    3   12   12      9.60      0.00
    4   12   12     -0.94      0.00
    5   12   12     -2.49      0.00
    6   12   12     -3.29      0.00
    7   12   12     11.01      0.00
    8   12   12      1.40      0.00
    9   12   12      1.75      0.00
   10   12   12     -1.98      0.00
   11   12   12      2.23      0.00
   12   12   12     -0.15      0.00
  -12   13   12      0.46      0.00
  -11   13   12      1.46      0.00
  -10   13   12      3.42      0.00
   -9   13   12     -0.72      0.00
   -8   13   12      2.06      0.00
   -7   13   12      2.87      0.00
   -6   13   12     -0.76      0.00
   -5   13   12     -2.74      0.00
   -4   13   12     -5.80      0.00
   -3   13   12      3.68      0.00
   -2   13   12    -12.08      0.00
   -1   13   12     -0.66      0.00
    0   13   12     -3.76      0.00
    1   13   12      2.89      0.00
    2   13   12     -1.88      0.00
    3   13   12     -0.39      0.00
    4   13   12      5.54      0.00
    5   13   12      1.09      0.00
    6   13   12      1.27      0.00
    7   13   12     -2.16      0.00
    8   13   12      4.33      0.00
    9   13   12      0.14      0.00
   12   13   12      0.59      0.00
  -10   14   12      0.99      0.00
   -9   14   12     -7.53      0.00
   -8   14   12     -1.45      0.00
   -7   14   12    -10.67      0.00
   -6   14   12      0.95      0.00
   -5   14   12    -15.49      0.00
   -4   14   12      0.38      0.00
   -3   14   12    -16.08      0.00
   -2   14   12      5.41      0.00
   -1   14   12     -2.87      0.00
    0   14   12      3.97      0.00
    1   14   12     -7.28      0.00
    2   14   12      5.26      0.00
    3   14   12      3.54      0.00
    4   14   12     -0.08      0.00
    5   14   12     -9.42      0.00
    6   14   12      2.15      0.00
    7   14   12      1.42      0.00
    8   14   12     -0.50      0.00
    9   14   12     -6.47      0.00
   10   14   12      0.95      0.00
   -9   15   12      0.58      0.00
   -6   15   12      0.16      0.00
   -5   15   12      2.64      0.00
   -4   15   12      2.59      0.00
   -3   15   12     -2.67      0.00
   -2   15   12      6.52      0.00
   -1   15   12      2.05      0.00
    0   15   12      2.78      0.00
    1   15   12     -1.58      0.00
    2   15   12     -2.76      0.00
    3   15   12      0.69      0.00
    4   15   12     -5.32      0.00
    5   15   12     -0.18      0.00
    6   15   12     -2.08      0.00
    7   15   12      2.03      0.00
    8   15   12     -1.26      0.00
    9   15   12     -1.25      0.00
   -7   16   12      6.89      0.00
   -6   16   12      0.41      0.00
   -5   16   12     10.59      0.00
   -4   16   12     -2.43      0.00
   -3   16   12     10.55      0.00
   -2   16   12     -2.13      0.00
   -1   16   12      2.66      0.00
    0   16   12     -3.79      0.00
    1   16   12      0.57      0.00
    2   16   12     -2.72      0.00
    3   16   12      2.29      0.00
    4   16   12      1.27      0.00
    5   16   12      0.63      0.00
    6   16   12     -1.76      0.00
   -4   17   12     -1.90      0.00
   -3   17   12      1.03      0.00
   -2   17   12     -2.24      0.00
    4   17   12      3.60      0.00
    0    0   13    -57.39      0.00
    0    1   13      4.74      0.00
    1    1   13     10.42      0.00
   -1    2   13     -4.64      0.00
    0    2   13      1.05      0.00
    1    2   13      3.22      0.00
    2    2   13     50.39      0.00
   -2    3   13    -12.43      0.00
   -1    3   13      2.55      0.00
    0    3   13      2.94      0.00
    1    3   13      6.39      0.00
    2    3   13    -10.59      0.00
    3    3   13    -15.68      0.00
   -3    4   13     -4.86      0.00
   -2    4   13    -17.02      0.00
   -1    4   13     -0.73      0.00
    0    4   13    -36.48      0.00
    1    4   13      3.28      0.00
    2    4   13     -3.67      0.00
    3    4   13      5.93      0.00
    4    4   13    -21.16      0.00
   -4    5   13      3.98      0.00
   -3    5   13    -10.69      0.00
   -2    5   13     -1.75      0.00
   -1    5   13    -15.53      0.00
    0    5   13     13.92      0.00
    1    5   13     11.09      0.00
    2    5   13     -5.46      0.00
    3    5   13    -12.45      0.00
    4    5   13      5.38      0.00
    5    5   13     17.21      0.00
   -5    6   13      5.48      0.00
   -4    6   13     12.70      0.00
   -3    6   13      1.36      0.00
   -2    6   13     23.04      0.00
   -1    6   13      2.92      0.00
    0    6   13     17.67      0.00
    1    6   13     -6.89      0.00
    2    6   13     19.30      0.00
    3    6   13     -2.01      0.00
    4    6   13     -1.52      0.00
    5    6   13     -2.47      0.00
    6    6   13      6.15      0.00
   -6    7   13     -1.24      0.00
   -5    7   13     23.46      0.00
   -4    7   13     -0.96      0.00
   -3    7   13      9.53      0.00
   -2    7   13     -5.13      0.00
   -1    7   13     12.34      0.00
    0    7   13     -3.77      0.00
    1    7   13      0.14      0.00
    2    7   13     -4.61      0.00
    3    7   13     -1.90      0.00
    4    7   13      4.20      0.00
    5    7   13      9.13      0.00
    6    7   13     -3.48      0.00
    7    7   13     -4.68      0.00
   -7    8   13     -1.50      0.00
   -6    8   13     -4.88      0.00
   -5    8   13     -3.28      0.00
   -4    8   13    -11.76      0.00
   -3    8   13     -2.23      0.00
   -2    8   13    -16.05      0.00
   -1    8   13      1.85      0.00
    0    8   13    -17.51      0.00
    1    8   13      0.35      0.00
    2    8   13    -10.41      0.00
    3    8   13      7.39      0.00
    4    8   13     -1.41      0.00
    5    8   13     -3.25      0.00
    6    8   13     -0.25      0.00
    7    8   13      4.56      0.00
    8    8   13      2.97      0.00
   -8    9   13     -0.18      0.00
   -7    9   13    -19.85      0.00
   -6    9   13     -1.18      0.00
   -5    9   13    -11.55      0.00
   -4    9   13      2.21      0.00
   -3    9   13    -18.82      0.00
   -2    9   13      4.87      0.00
   -1    9   13     -5.38      0.00
    0    9   13      5.20      0.00
    1    9   13     -5.65      0.00
    2    9   13      1.16      0.00
    3    9   13     -0.96      0.00
    4    9   13      3.85      0.00
    5    9   13     -3.03      0.00
    6    9   13     -2.12      0.00
    7    9   13    -10.31      0.00
    8    9   13      4.21      0.00
    9    9   13      0.45      0.00
   -9   10   13      0.83      0.00
   -8   10   13     -5.32      0.00
   -7   10   13      2.54      0.00
   -6   10   13      5.90      0.00
   -5   10   13      0.22      0.00
   -4   10   13      5.72      0.00
   -3   10   13      2.68      0.00
   -2   10   13     16.69      0.00
   -1   10   13     -2.14      0.00
    0   10   13      7.89      0.00
    1   10   13     -2.13      0.00
    2   10   13     10.14      0.00
    3   10   13     -0.07      0.00
    4   10   13     -5.17      0.00
    5   10   13     -4.47      0.00
    6   10   13      0.74      0.00
    7   10   13      3.56      0.00
    8   10   13     -2.88      0.00
    9   10   13     -2.24      0.00
   10   10   13      1.26      0.00
  -10   11   13      2.82      0.00
   -9   11   13      9.55      0.00
   -8   11   13     -1.63      0.00
   -7   11   13      8.95      0.00
   -6   11   13     -0.32      0.00
   -5   11   13     21.43      0.00
   -4   11   13     -0.35      0.00
   -3   11   13      8.09      0.00
   -2   11   13     -5.11      0.00
   -1   11   13     14.06      0.00
    0   11   13     -6.08      0.00
    1   11   13     -1.49      0.00
    2   11   13     -3.25      0.00
    3   11   13      7.95      0.00
    4   11   13     -3.70      0.00
    5   11   13     -0.67      0.00
    6   11   13      0.27      0.00
    7   11   13      8.66      0.00
    8   11   13     -2.53      0.00
    9   11   13      2.56      0.00
   10   11   13      0.37      0.00
   11   11   13      1.27      0.00
  -11   12   13      0.93      0.00
  -10   12   13      2.93      0.00
   -9   12   13     -2.00      0.00
   -8   12   13      0.59      0.00
   -7   12   13      1.10      0.00
   -6   12   13      1.49      0.00
   -5   12   13     -2.19      0.00
   -4   12   13     -9.41      0.00
   -3   12   13     -0.18      0.00
   -2   12   13     -6.35      0.00
   -1   12   13     -0.89      0.00
    0   12   13    -10.27      0.00
    1   12   13      2.87      0.00
    2   12   13      3.62      0.00
    3   12   13     -0.57      0.00
    4   12   13     -1.75      0.00
    5   12   13      0.03      0.00
    6   12   13      7.05      0.00
    7   12   13     -0.67      0.00
    8   12   13     -0.62      0.00
    9   12   13     -2.04      0.00
   11   12   13     -1.03      0.00
   -9   13   13     -7.13      0.00
   -8   13   13      1.06      0.00
   -7   13   13     -9.33      0.00
   -6   13   13     -2.01      0.00
   -5   13   13    -14.31      0.00
   -4   13   13      3.54      0.00
   -3   13   13    -13.25      0.00
   -2   13   13      3.43      0.00
   -1   13   13     -4.96      0.00
    0   13   13      6.33      0.00
    1   13   13     -4.19      0.00
    2   13   13      3.49      0.00
    3   13   13     -1.76      0.00
    4   13   13      3.09      0.00
    5   13   13     -3.23      0.00
    6   13   13     -0.74      0.00
    7   13   13     -2.89      0.00
    8   13   13      1.88      0.00
    9   13   13     -2.91      0.00
   -5   14   13      1.33      0.00
   -4   14   13      1.66      0.00
   -3   14   13      0.09      0.00
   -2   14   13      8.90      0.00
   -1   14   13      1.30      0.00
    0   14   13     -1.33      0.00
    1   14   13     -0.69      0.00
    2   14   13      2.32      0.00
    3   14   13      0.13      0.00
    4   14   13     -8.95      0.00
    5   14   13      1.97      0.00
    6   14   13      2.46      0.00
    7   14   13      0.68      0.00
    8   14   13     -5.93      0.00
   -6   15   13      1.10      0.00
   -5   15   13     10.21      0.00
   -4   15   13     -2.81      0.00
   -3   15   13      9.54      0.00
   -2   15   13     -2.73      0.00
   -1   15   13      3.51      0.00
    0   15   13     -4.80      0.00
    1   15   13      0.42      0.00
    2   15   13     -2.12      0.00
    3   15   13      1.62      0.00
    4   15   13     -0.51      0.00
    5   15   13      2.09      0.00
    6   15   13      0.13      0.00
    0    0   14     17.61      0.00
    0    1   14     27.86      0.00
    1    1   14     -1.51      0.00
   -1    2   14    -13.60      0.00
    0    2   14     -2.55      0.00
    1    2   14     20.29      0.00
    2    2   14    -11.53      0.00
   -2    3   14    -24.56      0.00
   -1    3   14      8.31      0.00
    0    3   14    -17.43      0.00
    1    3   14     -7.60      0.00
    2    3   14    -23.47      0.00
    3    3   14     15.52      0.00
   -3    4   14     -3.81      0.00
   -2    4   14      3.39      0.00
   -1    4   14    -16.46      0.00
    0    4   14     11.40      0.00
    1    4   14     12.66      0.00
    2    4   14      0.41      0.00
    3    4   14    -11.86      0.00
    4    4   14      4.56      0.00
   -4    5   14     14.04      0.00
   -3    5   14      2.57      0.00
   -2    5   14     15.34      0.00
   -1    5   14      7.01      0.00
    0    5   14     24.82      0.00
    1    5   14     -9.21      0.00
    2    5   14      3.88      0.00
    3    5   14      0.79      0.00
    4    5   14     16.78      0.00
    5    5   14     -6.17      0.00
   -5    6   14     14.02      0.00
   -4    6   14     -4.98      0.00
   -3    6   14     10.96      0.00
   -2    6   14     -3.02      0.00
   -1    6   14      6.45      0.00
    0    6   14    -11.01      0.00
    1    6   14      4.24      0.00
    2    6   14      1.14      0.00
    3    6   14     -5.15      0.00
    4    6   14     -2.18      0.00
    5    6   14      6.44      0.00
    6    6   14      0.90      0.00
   -6    7   14      0.14      0.00
   -5    7   14     -3.63      0.00
   -4    7   14    -15.14      0.00
   -3    7   14     -4.88      0.00
   -2    7   14    -10.59      0.00
   -1    7   14      1.13      0.00
    0    7   14    -18.33      0.00
    1    7   14     -1.15      0.00
    2    7   14    -10.30      0.00
    3    7   14      8.23      0.00
    4    7   14      0.96      0.00
    5    7   14     -5.20      0.00
    6    7   14     -7.05      0.00
    7    7   14      5.74      0.00
   -7    8   14    -11.33      0.00
   -6    8   14     -0.82      0.00
   -5    8   14    -14.33      0.00
   -4    8   14      4.28      0.00
   -3    8   14     -9.29      0.00
   -2    8   14      4.78      0.00
   -1    8   14     -9.38      0.00
    0    8   14      6.24      0.00
    1    8   14     -1.54      0.00
    2    8   14      3.56      0.00
    3    8   14     -1.68      0.00
    4    8   14     -1.91      0.00
    5    8   14     -3.55      0.00
    6    8   14      2.99      0.00
    7    8   14     -3.64      0.00
    8    8   14      0.79      0.00
   -8    9   14     -6.29      0.00
   -7    9   14      2.72      0.00
   -6    9   14      7.28      0.00
   -5    9   14      3.35      0.00
   -4    9   14      4.79      0.00
   -3    9   14      4.22      0.00
   -2    9   14     13.75      0.00
   -1    9   14     -1.07      0.00
    0    9   14      9.45      0.00
    1    9   14     -0.99      0.00
    2    9   14      8.90      0.00
    3    9   14     -1.68      0.00
    4    9   14     -1.50      0.00
    5    9   14     -0.83      0.00
    6    9   14     -2.52      0.00
    7    9   14      0.46      0.00
    8    9   14      1.90      0.00
    9    9   14     -1.11      0.00
   -9   10   14      3.33      0.00
   -8   10   14      0.62      0.00
   -7   10   14     13.30      0.00
   -6   10   14     -2.19      0.00
   -5   10   14     10.58      0.00
   -4   10   14     -0.89      0.00
   -3   10   14     12.88      0.00
   -2   10   14     -6.45      0.00
   -1   10   14      4.89      0.00
    0   10   14     -5.67      0.00
    1   10   14      6.82      0.00
    2   10   14     -1.39      0.00
    3   10   14     -1.39      0.00
    4   10   14     -5.52      0.00
    5   10   14      6.85      0.00
    6   10   14      3.49      0.00
    7   10   14      2.34      0.00
    8   10   14     -5.84      0.00
    9   10   14      3.33      0.00
   10   10   14      2.04      0.00
  -10   11   14      2.35      0.00
   -9   11   14     -2.53      0.00
   -8   11   14     -0.03      0.00
   -7   11   14     -1.90      0.00
   -6   11   14      1.72      0.00
   -5   11   14     -0.85      0.00
   -4   11   14     -9.12      0.00
   -3   11   14     -3.89      0.00
   -2   11   14     -4.88      0.00
   -1   11   14     -0.31      0.00
    0   11   14    -10.16      0.00
    1   11   14      0.89      0.00
    2   11   14      1.15      0.00
    3   11   14      1.08      0.00
    4   11   14     -0.78      0.00
    5   11   14     -0.96      0.00
    7   11   14     -0.20      0.00
    8   11   14     -0.39      0.00
   10   11   14     -0.10      0.00
   -8   12   14      2.54      0.00
   -7   12   14     -8.30      0.00
   -6   12   14     -1.27      0.00
   -5   12   14    -12.77      0.00
   -4   12   14      2.71      0.00
   -3   12   14     -8.00      0.00
   -2   12   14      3.55      0.00
   -1   12   14     -8.64      0.00
    0   12   14      7.82      0.00
    1   12   14      0.31      0.00
    2   12   14      0.96      0.00
    3   12   14     -5.91      0.00
    4   12   14      4.42      0.00
    5   12   14      0.89      0.00
    6   12   14     -0.77      0.00
    7   12   14     -5.16      0.00
    8   12   14      1.65      0.00
    9   12   14     -0.35      0.00
   -7   13   14      0.69      0.00
   -6   13   14     -0.65      0.00
   -5   13   14      3.20      0.00
   -4   13   14      2.67      0.00
   -3   13   14      0.87      0.00
   -2   13   14      6.73      0.00
   -1   13   14      1.39      0.00
    0   13   14      0.84      0.00
    1   13   14     -0.34      0.00
    2   13   14     -0.45      0.00
    3   13   14      0.93      0.00
    4   13   14     -3.32      0.00
    5   13   14      0.32      0.00
    6   13   14     -2.61      0.00
    7   13   14      2.08      0.00
   -5   14   14      7.84      0.00
   -4   14   14     -2.67      0.00
   -3   14   14      9.61      0.00
   -2   14   14     -2.32      0.00
   -1   14   14      1.49      0.00
    0   14   14     -5.44      0.00
    1   14   14      3.58      0.00
    0    1   15    -12.42      0.00
    1    1   15     -2.57      0.00
   -1    2   15      4.83      0.00
    0    2   15     -5.38      0.00
    1    2   15     -5.87      0.00
    2    2   15    -26.67      0.00
   -2    3   15     14.28      0.00
   -1    3   15     -1.54      0.00
    0    3   15      1.36      0.00
    1    3   15     -5.36      0.00
    2    3   15     13.61      0.00
    3    3   15      9.04      0.00
   -3    4   15      5.07      0.00
   -2    4   15      7.48      0.00
   -1    4   15      5.64      0.00
    0    4   15     26.67      0.00
    1    4   15     -6.40      0.00
    2    4   15     -2.50      0.00
    3    4   15     -0.37      0.00
    4    4   15     16.62      0.00
   -4    5   15     -6.87      0.00
   -3    5   15      7.08      0.00
   -2    5   15     -1.52      0.00
   -1    5   15      7.45      0.00
    0    5   15    -14.80      0.00
    1    5   15     -2.45      0.00
    2    5   15      3.13      0.00
    3    5   15      5.34      0.00
    4    5   15     -6.61      0.00
    5    5   15     -8.81      0.00
   -5    6   15     -5.40      0.00
   -4    6   15    -11.12      0.00
   -3    6   15     -4.47      0.00
   -2    6   15    -10.71      0.00
   -1    6   15     -4.03      0.00
    0    6   15    -13.26      0.00
    1    6   15      4.70      0.00
    2    6   15    -10.87      0.00
    3    6   15      1.43      0.00
    4    6   15      0.32      0.00
    5    6   15      0.50      0.00
    6    6   15     -2.74      0.00
   -6    7   15      1.09      0.00
   -5    7   15    -13.24      0.00
   -4    7   15      4.71      0.00
   -3    7   15     -4.10      0.00
   -2    7   15      5.97      0.00
   -1    7   15     -9.12      0.00
    0    7   15      5.25      0.00
    1    7   15     -1.01      0.00
    2    7   15      5.72      0.00
    3    7   15      1.62      0.00
    4    7   15     -4.51      0.00
    5    7   15     -6.85      0.00
    6    7   15      5.46      0.00
    7    7   15      4.67      0.00
   -7    8   15      2.40      0.00
   -6    8   15      2.96      0.00
   -5    8   15      5.59      0.00
   -4    8   15      8.41      0.00
   -3    8   15      3.38      0.00
   -2    8   15      6.78      0.00
   -1    8   15      2.03      0.00
    0    8   15     12.91      0.00
    1    8   15     -1.18      0.00
    2    8   15      4.62      0.00
    3    8   15     -3.43      0.00
    4    8   15      2.17      0.00
    5    8   15      2.95      0.00
    6    8   15     -1.79      0.00
    7    8   15     -2.48      0.00
    8    8   15     -1.65      0.00
   -8    9   15      0.41      0.00
   -7    9   15     11.44      0.00
   -6    9   15     -1.24      0.00
   -5    9   15      7.76      0.00
   -4    9   15     -2.57      0.00
   -3    9   15      8.12      0.00
   -2    9   15     -6.78      0.00
   -1    9   15      4.78      0.00
    0    9   15     -4.83      0.00
    1    9   15      5.72      0.00
    2    9   15     -2.47      0.00
    3    9   15     -2.34      0.00
    4    9   15     -0.86      0.00
    5    9   15      5.52      0.00
    6    9   15     -0.84      0.00
    7    9   15      2.26      0.00
    9    9   15      0.67      0.00
   -8   10   15      2.18      0.00
   -7   10   15     -3.72      0.00
   -6   10   15     -2.78      0.00
   -5   10   15     -1.79      0.00
   -4   10   15     -3.31      0.00
   -3   10   15     -5.32      0.00
   -2   10   15     -7.84      0.00
   -1   10   15     -0.05      0.00
    0   10   15     -5.33      0.00
    1   10   15      0.59      0.00
    2   10   15     -4.74      0.00
    3   10   15     -0.80      0.00
    4   10   15      3.19      0.00
    7   10   15     -3.31      0.00
   -6   11   15      2.25      0.00
   -5   11   15    -10.46      0.00
   -4   11   15      0.44      0.00
   -3   11   15     -4.80      0.00
   -2   11   15      5.15      0.00
   -1   11   15     -7.02      0.00
    0   11   15      5.28      0.00
    1   11   15     -1.39      0.00
    2   11   15      2.98      0.00
    3   11   15     -2.53      0.00
    4   11   15      0.34      0.00
    5   11   15     -1.35      0.00
    6   11   15      2.08      0.00
    7   11   15     -2.44      0.00
   -5   12   15      3.15      0.00
   -4   12   15      3.07      0.00
   -3   12   15      2.71      0.00
   -2   12   15      3.16      0.00
   -1   12   15      2.13      0.00
    0   12   15      4.51      0.00
    1   12   15     -1.89      0.00
    2   12   15     -3.21      0.00
    0    0   16    -19.31      0.00
    0    1   16    -14.32      0.00
    1    1   16      7.38      0.00
   -1    2   16      5.45      0.00
    0    2   16      0.52      0.00
    1    2   16     -9.75      0.00
    2    2   16     15.30      0.00
   -2    3   16     10.77      0.00
   -1    3   16     -0.91      0.00
    0    3   16     11.03      0.00
    1    3   16      2.77      0.00
    2    3   16      9.80      0.00
    3    3   16     -9.63      0.00
   -3    4   16      1.30      0.00
   -2    4   16     -4.96      0.00
   -1    4   16      9.39      0.00
    0    4   16    -10.92      0.00
    1    4   16     -7.31      0.00
    2    4   16     -0.47      0.00
    3    4   16      8.19      0.00
    4    4   16     -5.72      0.00
   -4    5   16     -8.72      0.00
   -3    5   16     -1.81      0.00
   -2    5   16     -7.92      0.00
   -1    5   16     -8.97      0.00
    0    5   16    -11.80      0.00
    1    5   16      9.43      0.00
    2    5   16     -3.21      0.00
    3    5   16     -4.26      0.00
    4    5   16     -7.62      0.00
    5    5   16      7.09      0.00
   -5    6   16     -7.78      0.00
   -4    6   16      5.04      0.00
   -3    6   16     -3.43      0.00
   -2    6   16      4.59      0.00
   -1    6   16     -5.01      0.00
    0    6   16      7.81      0.00
    1    6   16     -2.59      0.00
    2    6   16      2.21      0.00
    3    6   16      3.22      0.00
    4    6   16     -0.37      0.00
    5    6   16     -3.58      0.00
    6    6   16      1.67      0.00
   -6    7   16      1.48      0.00
   -5    7   16      5.36      0.00
   -4    7   16      8.18      0.00
   -3    7   16      3.81      0.00
   -2    7   16      3.61      0.00
   -1    7   16      2.57      0.00
    1    7   16     -1.32      0.00
    2    7   16      4.40      0.00
    3    7   16     -3.15      0.00
    4    7   16      0.00      0.00
    5    7   16      3.15      0.00
    6    7   16      2.60      0.00
    7    7   16     -3.18      0.00
   -7    8   16      5.68      0.00
   -6    8   16     -0.30      0.00
   -5    8   16      7.40      0.00
   -4    8   16     -5.15      0.00
   -3    8   16      2.50      0.00
   -2    8   16     -3.92      0.00
    1    8   16      0.51      0.00
    2    8   16     -3.63      0.00
    3    8   16      1.21      0.00
    4    8   16      3.36      0.00
   -5    9   16     -3.18      0.00
   -4    9   16     -3.41      0.00
   -3    9   16     -5.32      0.00
   -2    9   16     -4.58      0.00
   -1    9   16     -0.74      0.00
    0    9   16     -4.62      0.00
    1    9   16      1.30      0.00
    2    9   16     -6.20      0.00
    3    9   16     -0.62      0.00
    4    9   16      3.74      0.00
    5    9   16      0.62      0.00
    6    9   16     -0.13      0.00
   -4   10   16      1.61      0.00
   -3   10   16     -3.96      0.00
   -2   10   16      5.20      0.00
   -1   10   16     -3.82      0.00
    0   10   16      2.94      0.00
    1   10   16     -2.98      0.00
    2   10   16      2.92      0.00
    3   10   16      0.50      0.00
    0    0   17    -13.85      0.00
    0    1   17     11.61      0.00
    1    1   17      2.45      0.00
   -1    2   17     -2.17      0.00
    0    2   17      1.81      0.00
    1    2   17      4.50      0.00
    2    2   17     10.07      0.00
   -2    3   17     -9.15      0.00
   -1    3   17      2.95      0.00
    0    3   17     -3.39      0.00
    1    3   17     -0.02      0.00
    2    3   17     -8.46      0.00
    3    3   17     -1.89      0.00
   -3    4   17     -2.91      0.00
   -2    4   17     -3.72      0.00
   -1    4   17     -6.08      0.00
    0    4   17    -10.32      0.00
    1    4   17      6.01      0.00
    2    4   17      1.61      0.00
    3    4   17     -2.47      0.00
    4    4   17     -7.06      0.00
   -4    5   17      6.23      0.00
   -3    5   17     -2.52      0.00
   -2    5   17      1.54      0.00
   -1    5   17     -2.85      0.00
    0    5   17     10.15      0.00
    1    5   17      0.19      0.00
    2    5   17     -2.37      0.00
    3    5   17     -1.49      0.00
    4    5   17      5.31      0.00
    5    5   17      3.55      0.00
   -4    6   17      6.45      0.00
   -3    6   17      2.83      0.00
   -2    6   17      2.78      0.00
   -1    6   17      4.22      0.00
    0    6   17      5.65      0.00
    1    6   17     -3.53      0.00
    2    6   17      5.52      0.00
    4    6   17     -1.59      0.00
    5    6   17     -0.13      0.00
   -3    7   17      1.62      0.00
   -1    7   17      4.97      0.00
    0    7   17     -4.91      0.00
    1    7   17     -1.18      0.00
   17   17    0     -0.89      0.00
  -16   18    0     -2.12      0.00
  -14   18    0      3.42      0.00
   16   18    0      0.70      0.00
   12   20    0      0.37      0.00
  -11   21    0      2.09      0.00
   11   21    0     -1.76      0.00
   -8   22    0      3.06      0.00
   -6   22    0      3.70      0.00
    8   22    0     -2.67      0.00
   -7   23    0     -3.82      0.00
   -5   23    0     -5.25      0.00
    5   23    0      0.35      0.00
    7   23    0     -1.80      0.00
    1    1    1     22.20      0.00
  -13   14    1     -4.81      0.00
   17   17    1      0.29      0.00
   14   19    1      1.65      0.00
  -13   20    1      1.04      0.00
   13   20    1      1.24      0.00
  -11   21    1      0.47      0.00
   11   21    1     -1.69      0.00
   -9   22    1     -5.04      0.00
   -8   22    1     -1.08      0.00
   -7   22    1     -6.91      0.00
   -7   23    1      0.11      0.00
   -6   23    1     -2.97      0.00
   -5   23    1      2.63      0.00
    7   23    1      0.47      0.00
   14   19    2      1.57      0.00
  -13   20    2     -0.82      0.00
   13   20    2     -0.88      0.00
  -11   21    2     -0.87      0.00
   11   21    2     -0.52      0.00
   -9   22    2      1.37      0.00
   -8   22    2     -5.32      0.00
   -7   22    2      2.39      0.00
    9   22    2      0.66      0.00
   -6   23    2      0.40      0.00
   -5   23    2      6.06      0.00
   14   18    3      2.32      0.00
  -14   19    3      1.17      0.00
   14   19    3     -1.45      0.00
  -11   21    3      1.46      0.00
   11   21    3     -0.03      0.00
   -9   22    3      2.50      0.00
   -8   22    3     -0.03      0.00
   -7   22    3      5.73      0.00
    9   22    3     -1.77      0.00
   -6   23    3      2.19      0.00
   -5   23    3     -3.82      0.00
   -4   23    3     -0.08      0.00
    0   23    3      1.19      0.00
    6   23    3      3.37      0.00
  -16   17    4      0.21      0.00
   16   17    4      1.24      0.00
  -15   18    4     -1.07      0.00
   14   18    4     -0.53      0.00
   15   18    4     -0.61      0.00
  -13   19    4      0.28      0.00
  -12   20    4     -0.93      0.00
   12   20    4     -0.44      0.00
  -10   21    4      1.67      0.00
   10   21    4      0.57      0.00
   -8   22    4      2.69      0.00
   -7   22    4     -4.24      0.00
   -6   22    4      2.82      0.00
    8   22    4     -1.39      0.00
   -4   23    4      2.23      0.00
   -3   23    4     -2.78      0.00
   -1   23    4     -0.64      0.00
    0   23    4     -1.14      0.00
    4   23    4     -0.67      0.00
  -13   18    5     -1.47      0.00
   13   18    5     -1.36      0.00
   14   18    5     -0.13      0.00
  -13   19    5      0.61      0.00
   13   19    5      0.03      0.00
   11   20    5     -1.60      0.00
   -9   21    5     -3.42      0.00
   -7   22    5     -3.47      0.00
   -6   22    5      0.46      0.00
   -5   22    5     -3.64      0.00
    6   22    5      1.52      0.00
    7   22    5     -1.47      0.00
   -2   23    5     -0.22      0.00
   -1   23    5      1.50      0.00
    0   23    5     -1.69      0.00
    1   23    5     -0.52      0.00
    2   23    5     -1.27      0.00
   16   16    6     -0.69      0.00
  -15   17    6      0.43      0.00
   15   17    6     -1.27      0.00
  -12   18    6     -0.14      0.00
   -8   21    6     -3.53      0.00
   -7   21    6     -3.92      0.00
   -6   21    6      0.28      0.00
    7   21    6     -0.47      0.00
   -5   22    6      4.80      0.00
   -4   22    6     -1.76      0.00
    0   22    6     -1.45      0.00
    5   22    6      2.16      0.00
  -15   16    7     -1.04      0.00
  -10   16    7     -4.78      0.00
  -14   17    7      1.11      0.00
   13   17    7     -1.65      0.00
  -13   18    7      1.30      0.00
  -12   18    7      0.50      0.00
  -11   18    7     -0.61      0.00
   13   18    7      0.09      0.00
   11   19    7      2.70      0.00
   -9   20    7     -2.30      0.00
    7   20    7      0.92      0.00
   -7   21    7      6.34      0.00
   -6   21    7     -1.61      0.00
   -5   21    7      3.97      0.00
    6   21    7     -1.05      0.00
    7   21    7      0.09      0.00
   -3   22    7      1.63      0.00
   -2   22    7     -0.74      0.00
    0   22    7      2.13      0.00
    2   22    7      0.08      0.00
    3   22    7      0.30      0.00
  -14   16    8      1.52      0.00
  -13   17    8     -0.43      0.00
   13   17    8     -1.01      0.00
  -12   18    8     -2.32      0.00
  -11   18    8     -3.29      0.00
   12   18    8      0.43      0.00
  -10   19    8     -2.13      0.00
   10   19    8      1.66      0.00
   -8   20    8     -1.51      0.00
   -7   20    8      6.26      0.00
    7   20    8      0.73      0.00
    8   20    8     -0.59      0.00
   -5   21    8      1.20      0.00
   -4   21    8      1.09      0.00
   -1   21    8      0.51      0.00
    0   21    8      4.58      0.00
    4   21    8      4.29      0.00
    5   21    8      1.44      0.00
  -13   16    9     -1.21      0.00
   13   16    9     -2.06      0.00
  -12   17    9     -0.32      0.00
  -10   17    9      1.45      0.00
   12   17    9      0.76      0.00
   -8   19    9     -1.30      0.00
    8   19    9     -0.99      0.00
   -6   20    9      0.52      0.00
   -5   20    9      0.31      0.00
   -4   20    9      1.53      0.00
    0   20    9      3.66      0.00
    5   20    9      1.02      0.00
    6   20    9      0.62      0.00
   14   14   10      1.30      0.00
  -13   15   10     -0.31      0.00
  -12   16   10      1.59      0.00
   12   16   10      1.83      0.00
  -10   17   10     -3.47      0.00
   -9   17   10     -2.55      0.00
    8   18   10     -0.29      0.00
   -6   19   10      2.06      0.00
   -5   19   10      1.55      0.00
    0   19   10     -0.59      0.00
    6   19   10      2.25      0.00
   -2   20   10      0.00      0.00
   -1   20   10     -0.08      0.00
    0   20   10      1.01      0.00
    1   20   10     -2.08      0.00
    2   20   10      0.64      0.00
    9   12   11      1.30      0.00
  -13   14   11      0.02      0.00
   13   14   11      1.24      0.00
   -9   16   11     -0.19      0.00
   -8   16   11     -1.80      0.00
    8   17   11      1.61      0.00
   -6   18   11      3.30      0.00
   -5   18   11      0.28      0.00
   -1   18   11      1.09      0.00
    0   18   11     -2.27      0.00
    1   18   11     -1.43      0.00
    6   18   11      3.18      0.00
   -2   19   11      1.14      0.00
   -1   19   11     -1.65      0.00
    0   19   11      0.70      0.00
    1   19   11     -0.66      0.00
    2   19   11      0.73      0.00
    8   11   12     -0.17      0.00
   10   13   12     -3.32      0.00
   11   13   12     -1.68      0.00
  -11   14   12     -1.44      0.00
   11   14   12      1.79      0.00
  -10   15   12     -1.53      0.00
   -8   15   12     -2.53      0.00
   -7   15   12     -1.25      0.00
   10   15   12      0.96      0.00
   -8   16   12      0.47      0.00
    7   16   12      5.38      0.00
    8   16   12      0.39      0.00
   -6   17   12      2.16      0.00
   -5   17   12     -2.54      0.00
   -1   17   12     -2.25      0.00
    0   17   12     -0.95      0.00
    1   17   12      0.72      0.00
    2   17   12      2.95      0.00
    3   17   12     -0.03      0.00
    5   17   12     -0.05      0.00
    6   17   12      2.29      0.00
   -1   18   12     -1.68      0.00
    0   18   12      0.30      0.00
    1   18   12     -0.24      0.00
   10   12   13     -0.20      0.00
  -10   13   13      0.20      0.00
   10   13   13     -0.31      0.00
   -9   14   13     -0.52      0.00
   -8   14   13     -1.35      0.00
   -7   14   13      1.45      0.00
   -6   14   13      0.29      0.00
    9   14   13      1.19      0.00
   -7   15   13      6.56      0.00
    7   15   13      2.45      0.00
   -5   16   13     -2.40      0.00
   -4   16   13     -0.14      0.00
   -3   16   13      0.74      0.00
   -2   16   13     -4.35      0.00
   -1   16   13     -2.53      0.00
    0   16   13      0.34      0.00
    1   16   13      0.92      0.00
    2   16   13      2.83      0.00
    3   16   13     -0.66      0.00
    4   16   13      2.88      0.00
    5   16   13     -1.24      0.00
    6   11   14      5.57      0.00
    9   11   14     -1.58      0.00
   -9   12   14     -5.15      0.00
   -8   13   14     -0.05      0.00
    8   13   14     -1.55      0.00
   -6   14   14      0.25      0.00
    2   14   14     -2.29      0.00
    3   14   14     -1.77      0.00
    4   14   14     -0.73      0.00
    5   14   14      4.92      0.00
    6   14   14     -0.06      0.00
   -3   15   14     -0.97      0.00
   -2   15   14     -3.93      0.00
   -1   15   14     -1.38      0.00
    0   15   14      0.41      0.00
    1   15   14      0.36      0.00
    2   15   14      2.45      0.00
    3   15   14     -0.92      0.00
    0    0   15     40.40      0.00
    8    9   15     -2.54      0.00
   -9   10   15     -0.86      0.00
    5   10   15      2.32      0.00
    6   10   15      1.51      0.00
    8   10   15      0.76      0.00
    9   10   15      1.91      0.00
   -7   11   15     -6.16      0.00
   -6   12   15     -0.04      0.00
    3   12   15      2.30      0.00
    4   12   15      0.53      0.00
    5   12   15     -0.82      0.00
    6   12   15     -5.27      0.00
   -3   13   15      6.50      0.00
   -2   13   15     -2.51      0.00
   -1   13   15      2.40      0.00
    0   13   15     -4.37      0.00
    1   13   15      2.14      0.00
    2   13   15     -1.97      0.00
    3   13   15      0.40      0.00
    0    7   16     11.11      0.00
   -1    8   16      6.58      0.00
    0    8   16     -5.41      0.00
    5    8   16      1.21      0.00
    6    8   16     -4.33      0.00
    7    8   16      0.78      0.00
    8    8   16      0.75      0.00
   -6    9   16     -3.17      0.00
   -5   10   16     -5.93      0.00
    4   10   16     -0.12      0.00
    5   10   16     -2.44      0.00
   -2   11   16      2.24      0.00
   -1   11   16      1.29      0.00
    0   11   16      3.20      0.00
    1   11   16     -0.63      0.00
    2   11   16     -0.02      0.00
   -5    6   17      4.41      0.00
    3    6   17     -0.48      0.00
   -4    7   17     -4.87      0.00
   -2    7   17     -3.09      0.00
    2    7   17     -2.35      0.00
    3    7   17      1.05      0.00
    4    7   17      2.25      0.00
   -2    8   17     -0.45      0.00
   -1    8   17     -2.48      0.00
    0    8   17     -5.68      0.00
    1    8   17      1.39      0.00
    2    8   17     -2.67      0.00
    0    0    0      0.00      0.00
# SQUEEZE RESULTS (Version = 280317)
# Note: Data are Listed for all Voids in the P1 Unit Cell
# i.e. Centre of Gravity, Solvent Accessible Volume,
# Recovered number of Electrons in the Void and
# Details about the Squeezed Material
loop_
  _platon_squeeze_void_nr
  _platon_squeeze_void_average_x
  _platon_squeeze_void_average_y
  _platon_squeeze_void_average_z
  _platon_squeeze_void_volume
  _platon_squeeze_void_count_electrons
  _platon_squeeze_void_content
   1  0.250  0.750  0.000        48         3 ' '
   2  0.750  0.250  0.000        48         3 ' '
   3  0.250  0.250  0.264       396       136 ' '
   4  0.250  0.750  0.500         8        -1 ' '
   5  0.750  0.250  0.500         8        -1 ' '
   6  0.750  0.750  0.735       397       136 ' '
# Missing Reflections Below sin(th)/lambda = 0.25
loop_
  _platon_missing_refln_index_h
  _platon_missing_refln_index_k
  _platon_missing_refln_index_l
  _platon_missing_refln_theta
    1    1    1     4.458
_platon_squeeze_void_probe_radius                  1.20
_platon_squeeze_details
)
TITL 180725b   P 4/n        R = 0.19
CELL   19.2461   19.2461   14.4823     90.00     90.00     90.00
SPGR P4/n
# Solvent Accessible Volume =       909
# Electrons Found in S.A.V. =       277
# Note: Atoms in Void are Labelled as Cxxx and Qxxx for all Others
C101 0.767 0.496 0.733 !      18.13 eA-3
C102 0.239 0.072 0.275 !      15.02 eA-3
C103 0.250 0.750 0.000 !       9.11 eA-3
Q104 0.750 0.749 0.500 !       3.88 eA-3
C105 0.250 0.247 0.359 !       3.54 eA-3
Q106 0.049 0.860 0.355 !       2.45 eA-3
C107 0.928 0.203 0.256 !       2.34 eA-3
Q108 0.332 0.959 0.563 !       2.02 eA-3
Q109 0.750 0.744 0.422 !       2.00 eA-3
Q110 0.250 0.250 0.984 !       2.00 eA-3
C111 0.341 0.311 0.245 !       1.79 eA-3
Q112 0.910 0.031 0.146 !       1.76 eA-3
Q113 0.750 0.749 0.281 !       1.68 eA-3
C114 0.250 0.252 0.219 !       1.66 eA-3
Q115 0.750 0.747 0.094 !       1.65 eA-3
Q116 0.598 0.451 0.454 !       1.64 eA-3
Q117 0.380 0.533 0.919 !       1.61 eA-3
C118 0.176 0.154 0.254 !       1.61 eA-3
C119 0.260 0.235 0.270 !       1.51 eA-3
Q120 0.707 0.449 0.286 !       1.38 eA-3
Q121 0.433 0.811 0.220 !       1.30 eA-3
Q122 0.323 0.999 0.297 !       1.25 eA-3
C123 0.221 0.392 0.234 !       1.22 eA-3
Q124 0.178 0.985 0.098 !       1.21 eA-3
Q125 0.015 0.705 0.743 !       1.18 eA-3
Q126 0.485 0.799 0.726 !       1.17 eA-3
Q127 0.643 0.458 0.954 !       1.15 eA-3
Q128 0.696 0.393 0.513 !       1.15 eA-3
Q129 0.968 0.160 0.953 !       1.15 eA-3
Q130 0.109 0.515 0.920 !       1.14 eA-3
Q131 0.015 0.278 0.753 !       1.13 eA-3
Q132 0.374 0.222 0.083 !       1.11 eA-3
Q133 0.460 0.668 0.965 !       1.10 eA-3
Q134 0.811 0.533 0.701 !       1.07 eA-3
C135 0.293 0.091 0.265 !       1.06 eA-3
C136 0.250 0.255 0.141 !       1.04 eA-3
Q137 0.885 0.376 0.093 !       1.04 eA-3
Q138 0.182 0.533 0.072 !       1.04 eA-3
Q139 0.091 0.704 0.599 !       1.03 eA-3
Q140 1.004 0.466 0.232 !       1.03 eA-3
Q141 0.515 0.718 0.656 !       1.01 eA-3
Q142 0.844 0.147 0.645 !       1.00 eA-3
Q143 0.809 0.262 0.316 !       0.99 eA-3
Q144 0.142 0.343 0.414 !       0.97 eA-3
Q145 0.076 0.111 0.730 !       0.97 eA-3
Q146 0.811 0.530 0.766 !       0.95 eA-3
Q147 0.580 0.610 0.855 !       0.94 eA-3
Q148 0.473 0.421 0.395 !       0.93 eA-3
Q149 0.158 0.142 0.824 !       0.93 eA-3
Q150 0.564 0.029 0.285 !       0.92 eA-3
Q151 0.236 0.064 0.191 !       0.92 eA-3
C152 0.812 0.729 0.768 !       0.92 eA-3
Q153 0.498 0.215 0.331 !       0.92 eA-3
Q154 0.250 0.257 0.781 !       0.90 eA-3
Q155 0.966 0.688 0.740 !       0.90 eA-3
Q156 0.346 0.056 0.472 !       0.89 eA-3
Q157 0.909 0.032 0.390 !       0.87 eA-3
Q158 0.387 0.517 0.277 !       0.85 eA-3
C159 0.456 0.228 0.346 !       0.85 eA-3
Q160 0.586 0.982 0.879 !       0.84 eA-3
Q161 0.196 0.826 0.828 !       0.83 eA-3
Q162 0.619 0.280 0.730 !       0.83 eA-3
Q163 0.868 0.277 0.497 !       0.83 eA-3
Q164 0.673 0.948 0.406 !       0.82 eA-3
Q165 0.143 0.139 0.497 !       0.81 eA-3
Q166 0.656 0.143 0.031 !       0.81 eA-3
Q167 0.333 0.205 0.989 !       0.80 eA-3
Q168 0.749 0.885 0.363 !       0.78 eA-3
Q169 0.265 0.984 0.190 !       0.78 eA-3
Q170 0.010 0.128 0.407 !       0.77 eA-3
C171 0.765 0.528 0.797 !       0.77 eA-3
Q172 0.034 0.175 0.040 !       0.77 eA-3
Q173 0.092 0.326 0.217 !       0.74 eA-3
Q174 0.513 0.711 0.817 !       0.73 eA-3
Q175 0.988 0.546 0.213 !       0.72 eA-3
Q176 0.560 0.124 0.978 !       0.72 eA-3
Q177 0.779 0.582 0.664 !       0.72 eA-3
C178 0.059 0.225 0.220 !       0.72 eA-3
Q179 0.678 0.567 0.955 !       0.72 eA-3
Q180 0.345 0.526 0.450 !       0.71 eA-3
Q181 0.888 0.689 0.123 !       0.70 eA-3
Q182 0.814 0.016 0.465 !       0.70 eA-3
Q183 0.731 0.611 0.657 !       0.70 eA-3
Q184 0.922 0.451 0.872 !       0.68 eA-3
Q185 0.822 0.095 0.467 !       0.68 eA-3
Q186 0.750 0.743 0.360 !       0.68 eA-3
Q187 0.090 0.012 0.829 !       0.67 eA-3
Q188 0.044 0.794 0.672 !       0.67 eA-3
Q189 0.327 0.889 0.030 !       0.66 eA-3
Q190 0.599 0.562 0.286 !       0.66 eA-3
Q191 0.824 0.220 0.061 !       0.65 eA-3
Q192 0.683 0.032 0.111 !       0.65 eA-3
Q193 0.118 0.841 0.376 !       0.64 eA-3
Q194 0.378 0.798 0.220 !       0.64 eA-3
Q195 0.528 0.125 0.446 !       0.64 eA-3
Q196 0.450 0.605 0.466 !       0.64 eA-3
Q197 0.548 0.233 0.313 !       0.64 eA-3
Q198 0.906 0.464 0.937 !       0.64 eA-3
Q199 0.421 0.755 0.585 !       0.63 eA-3
)
;
_shelx_fab_checksum              8770
_platon_squeeze_void_probe_radius 1.20
_olex2_submission_special_instructions 'No special instructions were received'
_oxdiff_exptl_absorpt_empirical_details
;
Empirical correction (ABSPACK) includes:
- Absorption correction using spherical harmonics
- Frame scaling
;
_oxdiff_exptl_absorpt_empirical_full_max 1.081
_oxdiff_exptl_absorpt_empirical_full_min 0.915
loop_
_space_group_symop_operation_xyz
'x, y, z'
'-x+1/2, -y+1/2, z'
'-y+1/2, x, z'
'y, -x+1/2, z'
'-x, -y, -z'
'x-1/2, y-1/2, -z'
'y-1/2, -x, -z'
'-y, x-1/2, -z'
loop_
_atom_site_label
_atom_site_type_symbol
_atom_site_fract_x
_atom_site_fract_y
_atom_site_fract_z
_atom_site_U_iso_or_equiv
_atom_site_adp_type
_atom_site_occupancy
_atom_site_site_symmetry_order
_atom_site_calc_flag
_atom_site_refinement_flags_posn
_atom_site_refinement_flags_adp
_atom_site_refinement_flags_occupancy
Br1 Br 0.750000 0.750000 0.24945(7) 0.0248(2) Uani 1 4 d S T P
Cu1 Cu 0.750000 0.750000 0.05419(9) 0.0236(3) Uani 1 4 d S T P
Cu2 Cu 0.60235(3) 0.47005(3) 0.10960(5) 0.02442(17) Uani 1 1 d . . .
Cu4 Cu 0.750000 0.750000 0.45387(10) 0.0245(3) Uani 1 4 d S T P
Cu3 Cu 0.44998(3) 0.65848(3) 0.39724(5) 0.02387(17) Uani 1 1 d . . .
N5 N 0.54372(18) 0.51121(18) 0.2087(3) 0.0254(8) Uani 1 1 d . . .
N1 N 0.70676(18) 0.65614(18) 0.0410(3) 0.0242(8) Uani 1 1 d . . .
N12 N 0.65901(18) 0.70101(18) 0.4609(3) 0.0246(8) Uani 1 1 d . . .
N6 N 0.47522(18) 0.57285(18) 0.3045(3) 0.0240(8) Uani 1 1 d . . .
N7 N 0.42398(18) 0.81432(17) 0.1938(3) 0.0236(8) Uani 1 1 d . . .
N8 N 0.43460(17) 0.73286(18) 0.3036(3) 0.0241(8) Uani 1 1 d . . .
N2 N 0.65139(18) 0.55826(18) 0.0736(3) 0.0238(8) Uani 1 1 d . . .
N3 N 0.63499(19) 0.44037(18) -0.0168(3) 0.0281(9) Uani 1 1 d . . .
N11 N 0.54750(18) 0.68016(17) 0.4325(3) 0.0234(8) Uani 1 1 d . . .
N9 N 0.34554(18) 0.65154(19) 0.3885(3) 0.0275(9) Uani 1 1 d . . .
N4 N 0.5199(2) 0.40526(19) 0.0989(3) 0.0302(9) Uani 1 1 d . . .
N10 N 0.45242(19) 0.6053(2) 0.5167(3) 0.0315(9) Uani 1 1 d . . .
C14 C 0.3657(2) 0.7355(2) 0.2756(3) 0.0246(10) Uani 1 1 d . . .
C3 C 0.6789(2) 0.5526(2) -0.0135(3) 0.0256(10) Uani 1 1 d . . .
C9 C 0.4781(2) 0.4821(2) 0.2100(3) 0.0253(10) Uani 1 1 d . . .
C11 C 0.5388(2) 0.5654(2) 0.2667(3) 0.0250(10) Uani 1 1 d . . .
H11 H 0.575757 0.595031 0.279636 0.030 Uiso 1 1 calc R . .
C22 C 0.6041(2) 0.7142(2) 0.4075(3) 0.0235(9) Uani 1 1 d . . .
H22 H 0.605550 0.744444 0.357435 0.028 Uiso 1 1 calc R . .
C12 C 0.4663(2) 0.7806(2) 0.2525(3) 0.0244(9) Uani 1 1 d . . .
H12 H 0.513629 0.789855 0.257005 0.029 Uiso 1 1 calc R . .
C4 C 0.6678(2) 0.4880(2) -0.0606(3) 0.0286(10) Uani 1 1 d . . .
H4 H 0.683745 0.480989 -0.120512 0.034 Uiso 1 1 calc R . .
C13 C 0.3600(2) 0.7856(2) 0.2078(3) 0.0283(10) Uani 1 1 d . . .
H13 H 0.319389 0.797755 0.176979 0.034 Uiso 1 1 calc R . .
C20 C 0.5670(2) 0.6426(2) 0.5093(3) 0.0291(10) Uani 1 1 d . . .
C10 C 0.4370(2) 0.5205(2) 0.2680(3) 0.0282(10) Uani 1 1 d . . .
H10 H 0.390315 0.512023 0.280378 0.034 Uiso 1 1 calc R . .
C2 C 0.7126(2) 0.6137(2) -0.0338(3) 0.0268(10) Uani 1 1 d . . .
H2 H 0.735424 0.624119 -0.088672 0.032 Uiso 1 1 calc R . .
C21 C 0.6365(2) 0.6553(2) 0.5254(4) 0.0321(11) Uani 1 1 d . . .
H21 H 0.663219 0.635865 0.572347 0.039 Uiso 1 1 calc R . .
C1 C 0.6695(2) 0.6210(2) 0.1025(3) 0.0268(10) Uani 1 1 d . . .
H1 H 0.657373 0.638611 0.160061 0.032 Uiso 1 1 calc R . .
C8 C 0.4688(2) 0.4228(2) 0.1501(4) 0.0327(11) Uani 1 1 d . . .
H8 H 0.427094 0.398429 0.148746 0.039 Uiso 1 1 calc R . .
C19 C 0.5129(2) 0.6031(3) 0.5532(4) 0.0356(12) Uani 1 1 d . . .
H19 H 0.521531 0.576907 0.605927 0.043 Uiso 1 1 calc R . .
C15 C 0.3200(2) 0.6886(2) 0.3239(3) 0.0278(10) Uani 1 1 d . . .
H15 H 0.273218 0.685490 0.308464 0.033 Uiso 1 1 calc R . .
C7 C 0.5148(3) 0.3448(2) 0.0386(4) 0.0386(12) Uani 1 1 d . . .
H7A H 0.466401 0.331052 0.034002 0.046 Uiso 1 1 calc R . .
H7B H 0.540123 0.306558 0.066348 0.046 Uiso 1 1 calc R . .
C6 C 0.5429(3) 0.3576(2) -0.0576(4) 0.0375(12) Uani 1 1 d . . .
H6A H 0.534002 0.316789 -0.095029 0.045 Uiso 1 1 calc R . .
H6B H 0.517582 0.396056 -0.084863 0.045 Uiso 1 1 calc R . .
C5 C 0.6195(3) 0.3738(2) -0.0618(4) 0.0333(11) Uani 1 1 d . . .
H5A H 0.645362 0.337025 -0.031465 0.040 Uiso 1 1 calc R . .
H5B H 0.634297 0.375650 -0.125785 0.040 Uiso 1 1 calc R . .
C16 C 0.3013(2) 0.6066(3) 0.4455(4) 0.0400(14) Uani 1 1 d . . .
H16A H 0.264415 0.587802 0.407261 0.048 Uiso 1 1 calc R . .
H16B H 0.279881 0.634457 0.493509 0.048 Uiso 1 1 calc R . .
C18 C 0.3939(3) 0.5681(3) 0.5601(4) 0.0399(13) Uani 1 1 d . . .
H18A H 0.372534 0.597669 0.606290 0.048 Uiso 1 1 calc R . .
H18B H 0.411141 0.526788 0.590862 0.048 Uiso 1 1 calc R . .
C17 C 0.3402(3) 0.5475(3) 0.4896(4) 0.0399(13) Uani 1 1 d . . .
H17A H 0.362994 0.521073 0.441336 0.048 Uiso 1 1 calc R . .
H17B H 0.306768 0.516990 0.519124 0.048 Uiso 1 1 calc R . .
loop_
_atom_site_aniso_label
_atom_site_aniso_U_11
_atom_site_aniso_U_22
_atom_site_aniso_U_33
_atom_site_aniso_U_23
_atom_site_aniso_U_13
_atom_site_aniso_U_12
Br1 0.0249(3) 0.0249(3) 0.0246(5) 0.000 0.000 0.000
Cu1 0.0207(4) 0.0207(4) 0.0294(8) 0.000 0.000 0.000
Cu2 0.0246(3) 0.0209(3) 0.0278(4) -0.0035(3) -0.0034(3) -0.0016(2)
Cu4 0.0194(4) 0.0194(4) 0.0349(8) 0.000 0.000 0.000
Cu3 0.0188(3) 0.0228(3) 0.0300(4) 0.0044(3) 0.0012(3) -0.0008(2)
N5 0.0237(18) 0.0233(18) 0.029(2) 0.0002(16) -0.0019(17) -0.0008(15)
N1 0.0229(17) 0.0212(17) 0.028(2) -0.0038(16) -0.0008(16) 0.0031(14)
N12 0.0197(17) 0.0269(19) 0.027(2) 0.0045(17) -0.0026(16) 0.0035(14)
N6 0.0233(17) 0.0221(17) 0.027(2) 0.0025(16) 0.0030(16) -0.0012(14)
N7 0.0249(18) 0.0210(17) 0.025(2) 0.0041(16) 0.0012(16) 0.0003(14)
N8 0.0204(17) 0.0215(17) 0.030(2) 0.0005(16) 0.0005(16) 0.0017(14)
N2 0.0220(17) 0.0215(17) 0.028(2) 0.0003(16) -0.0030(16) -0.0026(14)
N3 0.0269(19) 0.0221(18) 0.035(2) -0.0051(17) -0.0037(18) 0.0018(15)
N11 0.0216(17) 0.0203(17) 0.028(2) 0.0038(16) 0.0021(16) 0.0023(14)
N9 0.0195(17) 0.0259(18) 0.037(2) 0.0048(18) 0.0035(17) -0.0015(14)
N4 0.034(2) 0.0257(19) 0.031(2) -0.0038(18) -0.0068(18) -0.0051(16)
N10 0.025(2) 0.032(2) 0.037(3) 0.0042(19) 0.0031(18) -0.0033(16)
C14 0.021(2) 0.024(2) 0.028(3) 0.0012(19) -0.0026(19) 0.0007(17)
C3 0.022(2) 0.024(2) 0.030(3) -0.003(2) -0.0008(19) 0.0014(17)
C9 0.027(2) 0.022(2) 0.027(2) 0.0060(19) -0.0045(19) -0.0046(18)
C11 0.021(2) 0.024(2) 0.030(3) -0.001(2) 0.0022(19) -0.0019(17)
C22 0.020(2) 0.019(2) 0.031(3) 0.0036(19) 0.0002(19) -0.0019(16)
C12 0.022(2) 0.025(2) 0.026(2) 0.0053(19) -0.0012(19) -0.0016(17)
C4 0.031(2) 0.028(2) 0.027(3) -0.005(2) -0.004(2) 0.0024(19)
C13 0.022(2) 0.030(2) 0.033(3) 0.003(2) -0.003(2) 0.0042(18)
C20 0.027(2) 0.031(2) 0.029(3) 0.008(2) 0.002(2) -0.0032(19)
C10 0.027(2) 0.028(2) 0.030(3) 0.003(2) -0.003(2) -0.0026(18)
C2 0.024(2) 0.030(2) 0.026(2) -0.007(2) -0.0011(19) -0.0046(18)
C21 0.026(2) 0.038(3) 0.033(3) 0.016(2) -0.006(2) -0.004(2)
C1 0.029(2) 0.020(2) 0.031(3) 0.000(2) -0.001(2) -0.0063(17)
C8 0.032(2) 0.030(2) 0.036(3) -0.003(2) -0.004(2) -0.008(2)
C19 0.034(3) 0.040(3) 0.034(3) 0.013(2) -0.001(2) -0.003(2)
C15 0.018(2) 0.030(2) 0.035(3) 0.000(2) -0.0001(19) 0.0005(17)
C7 0.044(3) 0.028(2) 0.044(3) -0.014(2) -0.009(3) -0.009(2)
C6 0.045(3) 0.026(2) 0.041(3) -0.010(2) -0.009(3) -0.002(2)
C5 0.045(3) 0.024(2) 0.030(3) -0.007(2) -0.004(2) -0.003(2)
C16 0.020(2) 0.034(3) 0.066(4) 0.014(3) 0.009(2) -0.0031(19)
C18 0.032(3) 0.052(3) 0.035(3) 0.022(3) 0.009(2) -0.011(2)
C17 0.031(3) 0.039(3) 0.049(4) 0.004(3) 0.011(2) -0.007(2)
loop_
_atom_type_symbol
_atom_type_description
_atom_type_scat_dispersion_real
_atom_type_scat_dispersion_imag
_atom_type_scat_source
C C 0.0181 0.0091 'International Tables Vol C Tables 4.2.6.8 and 6.1.1.4'
H H 0.0000 0.0000 'International Tables Vol C Tables 4.2.6.8 and 6.1.1.4'
Br Br -0.6763 1.2805 'International Tables Vol C Tables 4.2.6.8 and 6.1.1.4'
Cu Cu -1.9646 0.5888 'International Tables Vol C Tables 4.2.6.8 and 6.1.1.4'
N N 0.0311 0.0180 'International Tables Vol C Tables 4.2.6.8 and 6.1.1.4'
loop_
_geom_angle_atom_site_label_1
_geom_angle_atom_site_label_2
_geom_angle_atom_site_label_3
_geom_angle
_geom_angle_site_symmetry_1
_geom_angle_site_symmetry_3
N1 Cu1 Br1 95.50(12) 4_565 .
N1 Cu1 Br1 95.50(12) . .
N1 Cu1 Br1 95.50(12) 3_655 .
N1 Cu1 Br1 95.50(12) 2_665 .
N1 Cu1 N1 89.47(2) 2_665 4_565
N1 Cu1 N1 89.47(2) 3_655 .
N1 Cu1 N1 169.0(2) 4_565 3_655
N1 Cu1 N1 169.0(2) 2_665 .
N1 Cu1 N1 89.47(2) 2_665 3_655
N1 Cu1 N1 89.48(2) 4_565 .
N5 Cu2 N7 100.04(15) . 3_655
N5 Cu2 N2 96.72(15) . .
N5 Cu2 N3 160.61(15) . .
N5 Cu2 N4 81.69(16) . .
N2 Cu2 N7 98.14(14) . 3_655
N2 Cu2 N3 81.82(15) . .
N2 Cu2 N4 150.25(15) . .
N3 Cu2 N7 99.30(14) . 3_655
N3 Cu2 N4 90.03(16) . .
N4 Cu2 N7 111.43(14) . 3_655
N12 Cu4 N12 89.852(13) 2_665 3_655
N12 Cu4 N12 89.852(13) 4_565 .
N12 Cu4 N12 89.851(12) 2_665 4_565
N12 Cu4 N12 174.2(2) 4_565 3_655
N12 Cu4 N12 174.2(2) 2_665 .
N12 Cu4 N12 89.851(13) 3_655 .
N8 Cu3 N6 99.01(15) . .
N8 Cu3 N9 81.79(15) . .
N8 Cu3 N10 162.55(16) . .
N11 Cu3 N6 96.10(14) . .
N11 Cu3 N8 99.43(14) . .
N11 Cu3 N9 165.81(16) . .
N11 Cu3 N10 82.19(15) . .
N9 Cu3 N6 97.66(14) . .
N10 Cu3 N6 98.08(15) . .
N10 Cu3 N9 92.48(16) . .
C9 N5 Cu2 111.6(3) . .
C11 N5 Cu2 143.2(3) . .
C11 N5 C9 104.0(4) . .
C2 N1 Cu1 125.8(3) . .
C1 N1 Cu1 128.4(3) . .
C1 N1 C2 105.8(4) . .
C22 N12 Cu4 125.2(3) . .
C22 N12 C21 105.7(4) . .
C21 N12 Cu4 128.6(3) . .
C11 N6 Cu3 122.1(3) . .
C11 N6 C10 104.9(4) . .
C10 N6 Cu3 132.9(3) . .
C12 N7 Cu2 117.3(3) . 4_565
C12 N7 C13 104.9(4) . .
C13 N7 Cu2 137.8(3) . 4_565
C14 N8 Cu3 111.5(3) . .
C12 N8 Cu3 143.8(3) . .
C12 N8 C14 104.5(4) . .
C3 N2 Cu2 110.6(3) . .
C1 N2 Cu2 144.2(3) . .
C1 N2 C3 105.2(4) . .
C4 N3 Cu2 113.6(3) . .
C4 N3 C5 120.3(4) . .
C5 N3 Cu2 125.9(3) . .
C22 N11 Cu3 144.2(3) . .
C22 N11 C20 104.9(4) . .
C20 N11 Cu3 110.7(3) . .
C15 N9 Cu3 113.1(3) . .
C15 N9 C16 121.2(4) . .
C16 N9 Cu3 125.6(3) . .
C8 N4 Cu2 113.4(3) . .
C8 N4 C7 120.5(4) . .
C7 N4 Cu2 126.2(3) . .
C19 N10 Cu3 113.2(3) . .
C19 N10 C18 120.2(4) . .
C18 N10 Cu3 126.5(3) . .
N8 C14 C15 114.7(4) . .
C13 C14 N8 108.0(4) . .
C13 C14 C15 137.3(4) . .
N2 C3 C4 116.7(4) . .
N2 C3 C2 108.0(4) . .
C2 C3 C4 135.3(5) . .
N5 C9 C8 115.2(4) . .
C10 C9 N5 108.5(4) . .
C10 C9 C8 136.2(4) . .
N5 C11 N6 113.6(4) . .
N5 C11 H11 123.2 . .
N6 C11 H11 123.2 . .
N12 C22 H22 123.2 . .
N11 C22 N12 113.6(4) . .
N11 C22 H22 123.2 . .
N7 C12 H12 123.0 . .
N8 C12 N7 114.1(4) . .
N8 C12 H12 123.0 . .
N3 C4 C3 117.3(4) . .
N3 C4 H4 121.4 . .
C3 C4 H4 121.4 . .
N7 C13 C14 108.5(4) . .
N7 C13 H13 125.7 . .
C14 C13 H13 125.7 . .
N11 C20 C21 107.9(4) . .
N11 C20 C19 116.0(4) . .
C21 C20 C19 136.1(5) . .
N6 C10 C9 109.0(4) . .
N6 C10 H10 125.5 . .
C9 C10 H10 125.5 . .
N1 C2 C3 107.7(4) . .
N1 C2 H2 126.1 . .
C3 C2 H2 126.1 . .
N12 C21 C20 107.9(4) . .
N12 C21 H21 126.0 . .
C20 C21 H21 126.0 . .
N1 C1 H1 123.4 . .
N2 C1 N1 113.2(4) . .
N2 C1 H1 123.4 . .
N4 C8 C9 117.5(4) . .
N4 C8 H8 121.2 . .
C9 C8 H8 121.2 . .
N10 C19 C20 117.3(4) . .
N10 C19 H19 121.3 . .
C20 C19 H19 121.3 . .
N9 C15 C14 118.2(4) . .
N9 C15 H15 120.9 . .
C14 C15 H15 120.9 . .
N4 C7 H7A 108.9 . .
N4 C7 H7B 108.9 . .
N4 C7 C6 113.4(4) . .
H7A C7 H7B 107.7 . .
C6 C7 H7A 108.9 . .
C6 C7 H7B 108.9 . .
C7 C6 H6A 108.6 . .
C7 C6 H6B 108.6 . .
H6A C6 H6B 107.5 . .
C5 C6 C7 114.8(4) . .
C5 C6 H6A 108.6 . .
C5 C6 H6B 108.6 . .
N3 C5 C6 111.1(4) . .
N3 C5 H5A 109.4 . .
N3 C5 H5B 109.4 . .
C6 C5 H5A 109.4 . .
C6 C5 H5B 109.4 . .
H5A C5 H5B 108.0 . .
N9 C16 H16A 108.9 . .
N9 C16 H16B 108.9 . .
N9 C16 C17 113.3(4) . .
H16A C16 H16B 107.7 . .
C17 C16 H16A 108.9 . .
C17 C16 H16B 108.9 . .
N10 C18 H18A 109.4 . .
N10 C18 H18B 109.4 . .
N10 C18 C17 111.3(4) . .
H18A C18 H18B 108.0 . .
C17 C18 H18A 109.4 . .
C17 C18 H18B 109.4 . .
C16 C17 C18 115.5(5) . .
C16 C17 H17A 108.4 . .
C16 C17 H17B 108.4 . .
C18 C17 H17A 108.4 . .
C18 C17 H17B 108.4 . .
H17A C17 H17B 107.5 . .
loop_
_geom_bond_atom_site_label_1
_geom_bond_atom_site_label_2
_geom_bond_distance
_geom_bond_site_symmetry_2
Br1 Cu1 2.8278(17) .
Cu1 N1 1.998(3) 2_665
Cu1 N1 1.998(3) 3_655
Cu1 N1 1.998(3) .
Cu1 N1 1.998(3) 4_565
Cu2 N5 1.990(4) .
Cu2 N7 2.201(4) 3_655
Cu2 N2 2.011(4) .
Cu2 N3 2.019(4) .
Cu2 N4 2.024(4) .
Cu4 N12 1.991(3) 3_655
Cu4 N12 1.992(3) .
Cu4 N12 1.991(3) 4_565
Cu4 N12 1.991(4) 2_665
Cu3 N6 2.181(4) .
Cu3 N8 1.994(4) .
Cu3 N11 1.989(4) .
Cu3 N9 2.019(4) .
Cu3 N10 2.011(4) .
N5 C9 1.381(5) .
N5 C11 1.344(6) .
N1 C2 1.361(6) .
N1 C1 1.329(6) .
N12 C22 1.334(5) .
N12 C21 1.355(6) .
N6 C11 1.348(5) .
N6 C10 1.354(6) .
N7 C12 1.345(5) .
N7 C13 1.365(6) .
N8 C14 1.388(5) .
N8 C12 1.328(5) .
N2 C3 1.373(6) .
N2 C1 1.324(5) .
N3 C4 1.281(6) .
N3 C5 1.468(5) .
N11 C22 1.322(5) .
N11 C20 1.379(6) .
N9 C15 1.275(6) .
N9 C16 1.467(6) .
N4 C8 1.277(6) .
N4 C7 1.458(6) .
N10 C19 1.278(6) .
N10 C18 1.475(6) .
C14 C13 1.379(6) .
C14 C15 1.441(6) .
C3 C4 1.433(6) .
C3 C2 1.375(6) .
C9 C10 1.371(6) .
C9 C8 1.444(6) .
C11 H11 0.9300 .
C22 H22 0.9300 .
C12 H12 0.9300 .
C4 H4 0.9300 .
C13 H13 0.9300 .
C20 C21 1.381(6) .
C20 C19 1.437(6) .
C10 H10 0.9300 .
C2 H2 0.9300 .
C21 H21 0.9300 .
C1 H1 0.9300 .
C8 H8 0.9300 .
C19 H19 0.9300 .
C15 H15 0.9300 .
C7 H7A 0.9700 .
C7 H7B 0.9700 .
C7 C6 1.516(8) .
C6 H6A 0.9700 .
C6 H6B 0.9700 .
C6 C5 1.508(7) .
C5 H5A 0.9700 .
C5 H5B 0.9700 .
C16 H16A 0.9700 .
C16 H16B 0.9700 .
C16 C17 1.504(7) .
C18 H18A 0.9700 .
C18 H18B 0.9700 .
C18 C17 1.505(8) .
C17 H17A 0.9700 .
C17 H17B 0.9700 .
loop_
_platon_squeeze_void_nr
_platon_squeeze_void_average_x
_platon_squeeze_void_average_y
_platon_squeeze_void_average_z
_platon_squeeze_void_volume
_platon_squeeze_void_count_electrons
_platon_squeeze_void_content
1 0.250 0.750 0.000 48 3 ' '
2 0.750 0.250 0.000 48 3 ' '
3 0.250 0.250 0.264 396 136 ' '
4 0.250 0.750 0.500 8 -1 ' '
5 0.750 0.250 0.500 8 -1 ' '
6 0.750 0.750 0.735 397 136 ' '
