#------------------------------------------------------------------------------
#$Date: 2019-11-08 00:27:12 +0200 (Fri, 08 Nov 2019) $
#$Revision: 224262 $
#$URL: file:///home/coder/svn-repositories/cod/cif/7/70/12/7701232.cif $
#------------------------------------------------------------------------------
#
# This file is available in the Crystallography Open Database (COD),
# http://www.crystallography.net/
#
# All data on this site have been placed in the public domain by the
# contributors.
#
data_7701232
loop_
_publ_author_name
'Stein, Timo'
'Hoffmann, Frank'
'Fr\"oba, Michael'
_publ_section_title
;
 A new set of metal-organic frameworks synthesised from
 diisophthalate-based, 2'-phosphorus-substituted m-terphenyl linker
 molecules.
;
_journal_issue                   40
_journal_name_full
'Dalton transactions (Cambridge, England : 2003)'
_journal_page_first              15127
_journal_page_last               15135
_journal_paper_doi               10.1039/c9dt03044a
_journal_volume                  48
_journal_year                    2019
_chemical_formula_moiety
'(C156 H114 Cu12 O54 P6), 10(O), O, (Cl -), (C2 H8 N +)'
_chemical_formula_sum            'C158 H122 Cl Cu12 N O65 P6'
_chemical_formula_weight         4058.31
_chemical_name_common            UHM-62
_space_group_crystal_system      orthorhombic
_space_group_IT_number           71
_space_group_name_Hall           '-I 2 2'
_space_group_name_H-M_alt        'I m m m'
_symmetry_space_group_name_Hall  '-I 2 2'
_symmetry_space_group_name_H-M   'I m m m'
_atom_sites_solution_hydrogens   geom
_audit_creation_method           SHELXL-2018/3
_audit_update_record
;
2019-07-24 deposited with the CCDC.    2019-08-14 downloaded from the CCDC.
;
_cell_angle_alpha                90
_cell_angle_beta                 90
_cell_angle_gamma                90
_cell_formula_units_Z            2
_cell_length_a                   18.3318(4)
_cell_length_b                   25.8343(5)
_cell_length_c                   33.4448(6)
_cell_measurement_reflns_used    20450
_cell_measurement_temperature    100(2)
_cell_measurement_theta_max      75.2010
_cell_measurement_theta_min      3.9440
_cell_volume                     15839.1(5)
_computing_cell_refinement       'CrysAlisPro 1.171.39.46 (Rigaku OD, 2018)'
_computing_data_collection       'CrysAlisPro 1.171.39.46 (Rigaku OD, 2018)'
_computing_data_reduction        'CrysAlisPro 1.171.39.46 (Rigaku OD, 2018)'
_computing_structure_refinement  'SHELXL-2018/3 (Sheldrick, 2018)'
_computing_structure_solution    'SHELXT 2018/2 (Sheldrick, 2018)'
_diffrn_ambient_temperature      100(2)
_diffrn_detector                 'CCD plate'
_diffrn_detector_area_resol_mean 10.4127
_diffrn_detector_type            Atlas
_diffrn_measured_fraction_theta_full 0.996
_diffrn_measured_fraction_theta_max 0.996
_diffrn_measurement_details
;
List of Runs (angles in degrees, time in seconds):

  # Type    Start    End  Width  t~exp~   \w     \q     \k     \f   Frames
#--------------------------------------------------------------------------
  1  \w    -58.00 -10.00   1.00   30.00    --  -42.10 -77.00  30.00   48
  2  \w   -115.00 -88.00   1.00   30.00    --  -42.10 -38.00 -30.00   27
  3  \w    -87.00 -18.00   1.00   30.00    --  -42.10 -38.00 -30.00   69
  4  \w   -118.00 -10.00   1.00   30.00    --  -42.10 -77.00-150.00  108
  5  \w   -115.00 -10.00   1.00   30.00    --  -42.10 -77.00 -60.00  105
  6  \w    -67.00 -10.00   1.00   30.00    --  -42.10 -77.00 120.00   57
  7  \w   -100.00  -4.00   1.00   30.00    --  -42.10 -19.00  30.00   96
  8  \w    -70.00  29.00   1.00   30.00    --  -42.10  57.00 -30.00   99
  9  \w    -39.00  29.00   1.00   30.00    --  -42.10  38.00  90.00   68
 10  \w    -30.00  70.00   1.00   30.00    --   42.10 -57.00 150.00  100
 11  \w     30.00  97.00   1.00   30.00    --   42.10-125.00  90.00   67
 12  \w     79.00 176.00   1.00  120.00    --  112.00  77.00-150.00   97
 13  \w     79.00 115.00   1.00  120.00    --  112.00  77.00 120.00   36
 14  \w    116.00 172.00   1.00  120.00    --  112.00  77.00 120.00   56
 15  \w     79.00 155.00   1.00  120.00    --  112.00  77.00 -30.00   76
 16  \w     83.00 108.00   1.00  120.00    --  112.00 -94.00 150.00   25
 17  \w     36.00 116.00   1.00  120.00    --  112.00-111.00-120.00   80
 18  \w     82.00 177.00   1.00  120.00    --  112.00  67.00 154.57   95
 19  \w     79.00 105.00   1.00  120.00    --  112.00  77.00  30.00   26
 20  \w     83.00 177.00   1.00  120.00    --  112.00  61.00  90.00   94
 21  \w     83.00 110.00   1.00  120.00    --  112.00  61.00 -30.00   27
 22  \w     29.00  67.00   1.00  120.00    --  112.00 -94.00 150.00   38
 23  \w    112.00 177.00   1.00  120.00    --  112.00  77.00-120.00   65
 24  \w     79.00 149.00   1.00  120.00    --  112.00  77.00 -90.00   70
 25  \w     83.00 109.00   1.00  120.00    --  112.00  61.00 120.00   26
 26  \w     45.00 145.00   1.00  120.00    --  112.00 -77.00-120.00  100
 27  \w     83.00 109.00   1.00  120.00    --  112.00  61.00 -60.00   26
 28  \w     83.00 109.00   1.00  120.00    --  112.00  61.00  30.00   26
 29  \w     83.00 109.00   1.00  120.00    --  112.00  61.00   0.00   26
 30  \w     83.00 140.00   1.00  120.00    --  112.00  61.00  60.00   57
 31  \w     79.00 105.00   1.00  120.00    --  112.00  77.00-180.00   26
 32  \w     79.00  86.00   1.00  120.00    --  112.00 -94.00 -30.00    7
;
_diffrn_measurement_device       'four-circle diffractometer'
_diffrn_measurement_device_type  'SuperNova, Dual, Cu at home/near, Atlas'
_diffrn_measurement_method       '\w scans'
_diffrn_orient_matrix_type
'CrysAlisPro convention (1999,Acta A55,543-557)'
_diffrn_orient_matrix_UB_11      0.0387168000
_diffrn_orient_matrix_UB_12      0.0097672000
_diffrn_orient_matrix_UB_13      -0.0514009000
_diffrn_orient_matrix_UB_21      -0.0650969000
_diffrn_orient_matrix_UB_22      0.0262554000
_diffrn_orient_matrix_UB_23      -0.0163409000
_diffrn_orient_matrix_UB_31      0.0363942000
_diffrn_orient_matrix_UB_32      0.0365650000
_diffrn_orient_matrix_UB_33      0.0254317000
_diffrn_radiation_monochromator  mirror
_diffrn_radiation_probe          x-ray
_diffrn_radiation_type           CuK\a
_diffrn_radiation_wavelength     1.54178
_diffrn_reflns_av_R_equivalents  0.0524
_diffrn_reflns_av_unetI/netI     0.0258
_diffrn_reflns_Laue_measured_fraction_full 0.996
_diffrn_reflns_Laue_measured_fraction_max 0.996
_diffrn_reflns_limit_h_max       21
_diffrn_reflns_limit_h_min       -21
_diffrn_reflns_limit_k_max       30
_diffrn_reflns_limit_k_min       -30
_diffrn_reflns_limit_l_max       39
_diffrn_reflns_limit_l_min       -40
_diffrn_reflns_number            82547
_diffrn_reflns_point_group_measured_fraction_full 0.996
_diffrn_reflns_point_group_measured_fraction_max 0.996
_diffrn_reflns_theta_full        67.492
_diffrn_reflns_theta_max         67.492
_diffrn_reflns_theta_min         3.421
_diffrn_source                   'micro-focus sealed X-ray tube'
_diffrn_source_type              'SuperNova (Cu) X-ray Source'
_exptl_absorpt_coefficient_mu    1.634
_exptl_absorpt_correction_T_max  1.00000
_exptl_absorpt_correction_T_min  0.90019
_exptl_absorpt_correction_type   multi-scan
_exptl_absorpt_process_details
;
CrysAlisPro 1.171.39.46 (Rigaku Oxford Diffraction, 2018)
Empirical absorption correction using spherical harmonics,
 implemented in SCALE3 ABSPACK scaling algorithm.
;
_exptl_crystal_colour            blue
_exptl_crystal_density_diffrn    0.851
_exptl_crystal_description       block
_exptl_crystal_F_000             4104
_exptl_crystal_size_max          0.120
_exptl_crystal_size_mid          0.100
_exptl_crystal_size_min          0.060
_refine_diff_density_max         0.821
_refine_diff_density_min         -0.649
_refine_diff_density_rms         0.074
_refine_ls_extinction_method     none
_refine_ls_goodness_of_fit_ref   1.065
_refine_ls_hydrogen_treatment    constr
_refine_ls_matrix_type           full
_refine_ls_number_parameters     434
_refine_ls_number_reflns         7657
_refine_ls_number_restraints     494
_refine_ls_restrained_S_all      1.074
_refine_ls_R_factor_all          0.0727
_refine_ls_R_factor_gt           0.0625
_refine_ls_shift/su_max          0.001
_refine_ls_shift/su_mean         0.000
_refine_ls_structure_factor_coef Fsqd
_refine_ls_weighting_details
'w=1/[\s^2^(Fo^2^)+(0.1343P)^2^+10.7141P] where P=(Fo^2^+2Fc^2^)/3'
_refine_ls_weighting_scheme      calc
_refine_ls_wR_factor_gt          0.1937
_refine_ls_wR_factor_ref         0.2037
_reflns_Friedel_coverage         0.000
_reflns_number_gt                6198
_reflns_number_total             7657
_reflns_threshold_expression     'I > 2\s(I)'
_cod_data_source_file            c9dt03044a2.cif
_cod_data_source_block           UHM-62
_cod_depositor_comments
'Adding full bibliography for 7701221--7701232.cif.'
_cod_database_code               7701232
_shelx_shelxl_version_number     2018/3
_shelx_space_group_comment
;
The symmetry employed for this shelxl refinement is uniquely defined
by the following loop, which should always be used as a source of
symmetry information in preference to the above space-group names.
They are only intended as comments.
;
_cell_oxdiff_length_a            18.3350(4)
_cell_oxdiff_length_b            25.8325(6)
_cell_oxdiff_length_c            33.4452(6)
_cell_oxdiff_angle_alpha         90.0234(17)
_cell_oxdiff_angle_beta          89.9865(18)
_cell_oxdiff_angle_gamma         90.0076(19)
_cell_oxdiff_volume              15841.0(6)
_cell_oxdiff_measurement_reflns_used 20453
_shelx_estimated_absorpt_t_min   0.828
_shelx_estimated_absorpt_t_max   0.908
_oxdiff_exptl_absorpt_empirical_full_min 0.682
_oxdiff_exptl_absorpt_empirical_full_max 1.730
_oxdiff_exptl_absorpt_empirical_details
;
Empirical correction (ABSPACK) includes:
- Absorption correction using spherical harmonics
- Frame scaling
;
_shelx_res_file
;
TITL UHM-62 in Immm
    UHM-62.res
    created by SHELXL-2018/3 at 14:50:50 on 18-Feb-2019
REM Old TITL TSTMOF-32 in Imm2
REM SHELXT solution in Immm: R1 0.255, Rweak 0.032, Alpha 0.054
REM <I/s> 0.000 for 0 systematic absences, Orientation as input
REM Formula found by SHELXT: C162 O82 P12 Cu13

CELL  1.54178  18.3318  25.8343  33.4448   90.000   90.000   90.000
ZERR    2.00   0.0004   0.0005   0.0006    0.000    0.000    0.000
LATT   2
SYMM  - X, - Y,   Z
SYMM  - X,   Y, - Z
SYMM    X, - Y, - Z
SFAC  C   H   O   P  CU CL N
UNIT  316 244 130 12 24 2  2
MERG   2
REM cut weak data and disagreeable reflections Fo^2 >> Fc^2
OMIT    -4.00 135.00
OMIT 1 7 0
OMIT 2 3 7
EQIV $1  -x+1, y, z
EQIV $2   x,  -y, z
EQIV $3   x,   y,-z
EQIV $4   x,  -y,-z
EQIV $5  -x,   y, z
EQIV $6  -x+1,-y, z
RIGU
REM idealize disordered rings
FLAT  0.005 C20B C21B C22B C23B C22B_$3 C21B_$3
FLAT  0.005 C20C C21C C22C C23C C22C_$3 C21C_$3
REM idealize disordered rings 2
DFIX  1.39 C20A C21A C21A C22A C22A C23A
SADI C20A C22A C21A C23A C22A C22A_$2
REM idealize disordered rings 3
DFIX  1.39 C20B C21B C21B C22B C22B C23B
SADI C20B C22B C21B C23B C22B C22B_$3
REM idealize disordered rings 4
DFIX  1.39 C20C C21C C21C C22C C22C C23C
SADI C20C C22C C21C C23C C22C C22C_$3
REM idealize POEt2 groups
DFIX  1.842 C20A P40A
DFIX  1.842 C20B P40B
DFIX  1.842 C20C P40C
DFIX  1.488 P40A O40A
DFIX  1.488 P40B O40B
DFIX  1.488 P40C O40C
DFIX  1.820 P40A C40A
DFIX  1.820 P40B C40B
DFIX  1.820 P40C C40C
DFIX  1.530 C40A C41A
DFIX  1.530 C40B C41B
DFIX  1.530 C40C C41C
DANG  2.822 C40A C40A_$1
DANG  2.822 C40B C40B_$3
DANG  2.822 C40C C40C_$3
DANG  2.80 P40A C41A
DANG  2.80 P40B C41B
DANG  2.80 P40C C41C
REM I want to break free
FREE C41C C41C_$5
FREE C40A C41A_$2
FREE C40A C40A_$2
FREE C41A C41A_$2
FREE C41A C40A_$2
FREE C40A O40A_$6
REM those atoms are very close to each other
EADP C13B C13C
EADP C12B C12C
EADP C20B C20C
REM these Et groups are very soft
ISOR 0.05 C40A C41A C41B C41C
REM idealize Me2NH2+ cation
ISOR 0.05 N60 C60
DFIX 1.51 N60 C60
DANG 2.53 C60 C60_$4
FMAP   2
PLAN   80
SIZE     0.06   0.10   0.12
ACTA
MORE -1
BOND   $H
L.S. 5 0  133
TEMP  -173
ABIN
WGHT    0.134300   10.714100
FVAR       0.10115
C10A  1    0.500000    0.099984    0.299128    10.50000    0.07386    0.05479 =
         0.07037   -0.00263    0.00000    0.00000
C11A  1    0.434940    0.124887    0.290571    11.00000    0.06645    0.06147 =
         0.07312   -0.00309   -0.00105   -0.00624
AFIX  43
H11A  2    0.390089    0.108430    0.296964    11.00000   -1.20000
AFIX   0
C12A  1    0.434080    0.173407    0.272842    11.00000    0.05735    0.05918 =
         0.06179   -0.00746   -0.00416   -0.00328
C13A  1    0.500000    0.197235    0.263361    10.50000    0.06997    0.05728 =
         0.06179   -0.00913    0.00000    0.00000
AFIX  43
H13A  2    0.500000    0.229925    0.250353    10.50000   -1.20000
AFIX   0
C14A  1    0.364762    0.200156    0.264519    11.00000    0.07232    0.05707 =
         0.05081   -0.00781   -0.00809   -0.00668
C20A  1    0.500000    0.000000    0.296106    10.25000    0.06321    0.05866 =
         0.07026    0.00000    0.00000    0.00000
C21A  1    0.500000    0.046537    0.317280    10.50000    0.07614    0.05459 =
         0.07237   -0.00495    0.00000    0.00000
C22A  1    0.500000    0.045865    0.357592    10.50000    0.23754    0.07722 =
         0.07164   -0.00379    0.00000    0.00000
AFIX  43
H22A  2    0.500000    0.077709    0.371797    10.50000   -1.20000
AFIX   0
C23A  1    0.500000    0.000000    0.378649    10.25000    0.38610    0.07279 =
         0.07424    0.00000    0.00000    0.00000
AFIX  43
H23A  2    0.500000    0.000000    0.407054    10.25000   -1.20000
AFIX   0
C40A  1    0.580847   -0.034303    0.226307    10.50000    0.49331    0.43917 =
         0.15526    0.12035    0.15335    0.30963
AFIX  23
H40A  2    0.611903   -0.041492    0.249879    10.50000   -1.20000
H40B  2    0.567518   -0.067686    0.213742    10.50000   -1.20000
AFIX   0
C41A  1    0.622412    0.000000    0.196133    10.50000    0.37163    0.55144 =
         0.59079    0.00000    0.23774    0.00000
AFIX  33
H41A  2    0.666843   -0.017860    0.187461    10.50000   -1.50000
H41B  2    0.591278    0.006767    0.172893    10.50000   -1.50000
H41C  2    0.635495    0.032862    0.208892    10.50000   -1.50000
AFIX   0

PART 1
P40B  4    0.266196    0.118804    0.000000    10.25000    0.12005    0.11325 =
         0.04575    0.00000    0.00000    0.00125
O13B  3    0.059302    0.061683    0.079021    10.50000    0.09140    0.04916 =
         0.02305    0.00096   -0.01295   -0.02568
O40B  3    0.210319    0.072048    0.000000    10.25000    0.22813    0.08664 =
         0.12093    0.00000    0.00000   -0.00746
C10B  1    0.201570    0.185554    0.075093    10.50000    0.10215    0.06028 =
         0.03362   -0.00513   -0.00824   -0.02842
C11B  1    0.228255    0.205007    0.110896    10.50000    0.09501    0.06428 =
         0.03928   -0.00611   -0.00608   -0.02963
AFIX  43
H11B  2    0.259656    0.234255    0.111368    10.50000   -1.20000
AFIX   0
C12B  1    0.207075    0.179738    0.146889    10.50000    0.08445    0.07367 =
         0.03436   -0.00871   -0.00889   -0.02995
C13B  1    0.158544    0.138079    0.144702    10.50000    0.04532    0.06032 =
         0.02635   -0.00010   -0.02387   -0.00434
AFIX  43
H13B  2    0.140015    0.123874    0.168854    10.50000   -1.20000
AFIX   0
C14B  1    0.137884    0.118120    0.111088    10.50000    0.06490    0.05228 =
         0.02726    0.00129   -0.01289   -0.01725
C15B  1    0.154070    0.143335    0.075736    10.50000    0.09229    0.06354 =
         0.02924    0.00086   -0.00843   -0.02876
AFIX  43
H15B  2    0.132534    0.131752    0.051499    10.50000   -1.20000
AFIX   0
C17B  1    0.085100    0.074360    0.112593    10.50000    0.06278    0.03324 =
         0.02327   -0.00685   -0.00495    0.00010
C20B  1    0.222770    0.185880    0.000000    10.25000    0.10090    0.08377 =
         0.04063    0.00000    0.00000   -0.04395
C21B  1    0.216921    0.212465    0.035792    10.50000    0.10229    0.07185 =
         0.03330   -0.00027    0.00031   -0.03426
C22B  1    0.204914    0.267254    0.035595    10.50000    0.17412    0.07893 =
         0.04142   -0.00715    0.00377   -0.06054
AFIX  43
H22B  2    0.200845    0.285709    0.060062    10.50000   -1.20000
AFIX   0
C23B  1    0.199370    0.292712    0.000000    10.25000    0.27240    0.05115 =
         0.07924    0.00000    0.00000   -0.03784
AFIX  43
H23B  2    0.191455    0.329054    0.000000    10.25000   -1.20000
AFIX   0
C40B  1    0.322650    0.112965    0.041742    10.50000    0.17579    0.14784 =
         0.07955    0.01360    0.02107    0.00042
AFIX  23
H40C  2    0.292046    0.114666    0.066096    10.50000   -1.20000
H40D  2    0.345997    0.078419    0.041148    10.50000   -1.20000
AFIX   0
C41B  1    0.382672    0.154315    0.044892    10.50000    0.38646    0.45936 =
         0.21590   -0.02671    0.14216   -0.24804
AFIX  33
H41D  2    0.411698    0.148212    0.069043    10.50000   -1.50000
H41E  2    0.414319    0.152389    0.021323    10.50000   -1.50000
H41F  2    0.360263    0.188706    0.046319    10.50000   -1.50000
AFIX   0
PART 1

PART 2
P40C  4    0.143754    0.191660    0.000000    10.25000    0.12042    0.07913 =
         0.07466    0.00000    0.00000   -0.02078
O13C  3    0.089396    0.042175    0.079715    10.50000    0.07519    0.05972 =
         0.02911   -0.00440   -0.00562   -0.01197
O40C  3    0.083411    0.139733    0.000000    10.25000    0.14313    0.13567 =
         0.11300    0.00000    0.00000   -0.03910
C10C  1    0.244411    0.159862    0.075366    10.50000    0.10384    0.10935 =
         0.03540   -0.00824   -0.00368   -0.04484
C11C  1    0.256950    0.187656    0.110024    10.50000    0.07836    0.08978 =
         0.04275   -0.00012   -0.00919   -0.03837
AFIX  43
H11C  2    0.289742    0.216095    0.108937    10.50000   -1.20000
AFIX   0
C12C  1    0.224732    0.176344    0.145566    10.50000    0.08445    0.07367 =
         0.03436   -0.00871   -0.00889   -0.02995
C13C  1    0.179824    0.133501    0.148689    10.50000    0.04532    0.06032 =
         0.02635   -0.00010   -0.02387   -0.00434
AFIX  43
H13C  2    0.160749    0.123017    0.173827    10.50000   -1.20000
AFIX   0
C14C  1    0.162713    0.105098    0.112590    10.50000    0.07000    0.07359 =
         0.03336   -0.00741   -0.01167   -0.01082
C15C  1    0.195252    0.117987    0.076623    10.50000    0.08782    0.09657 =
         0.03385   -0.00559   -0.00858   -0.02751
AFIX  43
H15C  2    0.184586    0.098850    0.053083    10.50000   -1.20000
AFIX   0
C17C  1    0.107134    0.062478    0.112176    10.50000    0.06942    0.04682 =
         0.03416   -0.01219   -0.00597    0.01045

C20C  1    0.242376    0.171810    0.000000    10.25000    0.10090    0.08377 =
         0.04063    0.00000    0.00000   -0.04395
C21C  1    0.278911    0.172926    0.035751    10.50000    0.11489    0.13947 =
         0.03961   -0.01131    0.00098   -0.07068
C22C  1    0.356035    0.175307    0.035980    10.50000    0.12505    0.37509 =
         0.02968   -0.01480   -0.00784   -0.07458
AFIX  43
H22C  2    0.381827    0.176076    0.060610    10.50000   -1.20000
AFIX   0
C23C  1    0.393797    0.176514    0.000000    10.25000    0.08482    0.46292 =
         0.06761    0.00000    0.00000   -0.08577
AFIX  43
H23C  2    0.445567    0.178168    0.000000    10.25000   -1.20000
AFIX   0
C40C  1    0.128036    0.227067    0.041340    10.50000    0.19977    0.13187 =
         0.07874   -0.05498   -0.00216   -0.03289
AFIX  23
H40E  2    0.143766    0.205758    0.064382    10.50000   -1.20000
H40F  2    0.161522    0.257094    0.040174    10.50000   -1.20000
AFIX   0
C41C  1    0.047148    0.249939    0.052456    10.50000    0.16512    0.83625 =
         0.83461    0.00108   -0.01660    0.08825
AFIX  33
H41G  2    0.049844    0.269336    0.077594    10.50000   -1.50000
H41H  2    0.030566    0.272953    0.031009    10.50000   -1.50000
H41I  2    0.012667    0.221204    0.055411    10.50000   -1.50000
AFIX   0
PART 2

PART 0
C16B  1    0.234400    0.204346    0.184810    11.00000    0.07468    0.05967 =
         0.04432   -0.00954   -0.01329   -0.00873
O10A  3    0.307293    0.180554    0.277359    11.00000    0.06258    0.07179 =
         0.08000    0.01398   -0.00735   -0.00638
O11A  3    0.369111    0.241988    0.245034    11.00000    0.05723    0.06809 =
         0.08608    0.00773   -0.00507   -0.00559
O10B  3    0.270704    0.244968    0.182796    11.00000    0.09596    0.07066 =
         0.04672   -0.00941   -0.00555   -0.03400
O11B  3    0.208754    0.183897    0.215653    11.00000    0.10412    0.06358 =
         0.03786   -0.01024   -0.00571   -0.02822
O12B  3    0.074978    0.053308    0.145255    11.00000    0.09176    0.05412 =
         0.02480   -0.00483   -0.00600   -0.01644
O100  3    0.149132    0.153704    0.301093    11.00000    0.11482    0.07386 =
         0.07777    0.00355    0.00206   -0.02572
O200  3    0.000000    0.000000    0.221582    10.25000    0.10811    0.06357 =
         0.03353    0.00000    0.00000    0.00000
CL1   6    0.000000    0.000000    0.000000    10.12500    0.08649    0.04635 =
         0.01042    0.00000    0.00000    0.00000
P40A  4    0.500000    0.000000    0.241304    10.25000    0.20519    0.06621 =
         0.06757    0.00000    0.00000    0.00000
O40A  3    0.500000    0.052058    0.221961    10.25000    0.25742    0.06519 =
         0.06834    0.00818    0.00000    0.00000
CU1   5    0.212636    0.213494    0.269125    11.00000    0.05924    0.04941 =
         0.03731   -0.00638   -0.00745   -0.01310
CU2   5    0.000000    0.000000    0.151945    10.25000    0.07631    0.03862 =
         0.01814    0.00000    0.00000    0.00000
CU3   5    0.000000    0.000000    0.072092    10.25000    0.06797    0.03200 =
         0.01540    0.00000    0.00000    0.00000
PART 0

PART 3
O50   3    0.000000    0.147922    0.000000    10.12500    0.05476    0.14549 =
         0.14911    0.00000    0.00000    0.00000
C60   1    0.234868    0.000000    0.036835    10.25000    0.38089    0.41517 =
         0.21675    0.00000   -0.03202    0.00000
AFIX  33
H60A  2    0.205396    0.000000    0.061282    10.25000   -1.50000
H60B  2    0.265717   -0.030973    0.036301    10.25000   -1.50000
H60C  2    0.265717    0.030973    0.036301    10.25000   -1.50000
AFIX   0
N60   7    0.184094    0.000000    0.000000    10.12500    0.29555    0.09095 =
         0.16238    0.00000    0.00000    0.00000
AFIX  23
H60D  2    0.155168    0.028626    0.000000    10.12500   -1.20000
H60E  2    0.155168   -0.028626    0.000000    10.12500   -1.20000
AFIX   0
HKLF    4




REM  UHM-62 in Immm
REM wR2 = 0.2037, GooF = S = 1.065, Restrained GooF = 1.074 for all data
REM R1 = 0.0625 for 6198 Fo > 4sig(Fo) and 0.0727 for all 7657 data
REM 434 parameters refined using 494 restraints

END

WGHT      0.1343     10.7232

REM Highest difference peak  0.821,  deepest hole -0.649,  1-sigma level  0.074
Q1    1   0.0000  0.0333  0.2429  10.50000  0.05    0.82
Q2    1   0.1468  0.0000  0.0000  10.25000  0.05    0.81
Q3    1   0.0000  0.2697  0.0917  10.50000  0.05    0.66
Q4    1   0.2247  0.0212  0.0000  10.50000  0.05    0.56
Q5    1   0.0000  0.3045  0.0798  10.50000  0.05    0.49
Q6    1   0.5982  0.0000  0.2326  10.50000  0.05    0.49
Q7    1   0.6237  0.0379  0.2270  11.00000  0.05    0.47
Q8    1   0.1686  0.1393  0.2980  11.00000  0.05    0.46
Q9    1   0.2505  0.0000  0.0771  10.50000  0.05    0.43
Q10   1   0.0000  0.1027  0.0000  10.25000  0.05    0.42
Q11   1   0.2930  0.1479  0.0000  10.50000  0.05    0.41
Q12   1   0.3635  0.0521  0.0437  11.00000  0.05    0.36
Q13   1   0.3444  0.0410  0.0481  11.00000  0.05    0.35
Q14   1   0.0000  0.1670  0.0000  10.25000  0.05    0.35
Q15   1   0.0946  0.1378  0.3024  11.00000  0.05    0.34
Q16   1   0.5000  0.0000  0.2841  10.25000  0.05    0.32
Q17   1   0.6781 -0.0403  0.1382  11.00000  0.05    0.31
Q18   1   0.2388  0.2606  0.0339  11.00000  0.05    0.28
Q19   1   0.1931  0.3081  0.0784  11.00000  0.05    0.27
Q20   1   0.3182  0.0000  0.0401  10.50000  0.05    0.27
Q21   1   0.0000  0.0000  0.0194  10.25000  0.05    0.26
Q22   1   0.5378 -0.0489  0.2115  11.00000  0.05    0.26
Q23   1   0.5000  0.1453  0.0808  10.50000  0.05    0.26
Q24   1   0.2930  0.2075  0.2813  11.00000  0.05    0.25
Q25   1   0.1799  0.2896  0.0492  11.00000  0.05    0.25
Q26   1   0.1928  0.0592  0.0000  10.50000  0.05    0.25
Q27   1   0.2343  0.2985  0.0611  11.00000  0.05    0.24
Q28   1   0.1700  0.2879  0.0332  11.00000  0.05    0.24
Q29   1   0.5000  0.0662  0.3027  10.50000  0.05    0.23
Q30   1   0.3012  0.1140  0.0389  11.00000  0.05    0.23
Q31   1   0.2987  0.0562  0.1093  11.00000  0.05    0.23
Q32   1   0.0000  0.0447  0.1288  10.50000  0.05    0.23
Q33   1   0.0000  0.3017  0.0000  10.25000  0.05    0.23
Q34   1   0.1353  0.2137  0.0403  11.00000  0.05    0.23
Q35   1   0.1546  0.0000  0.0799  10.50000  0.05    0.23
Q36   1   0.2221  0.1785  0.1353  11.00000  0.05    0.21
Q37   1   0.0000  0.0000  0.3537  10.25000  0.05    0.20
Q38   1   0.3089  0.1820  0.2535  11.00000  0.05    0.20
Q39   1   0.3134  0.1882  0.2880  11.00000  0.05    0.20
Q40   1   0.2415  0.2835  0.0000  10.50000  0.05    0.19
Q41   1   0.3072  0.0472  0.0000  10.50000  0.05    0.19
Q42   1   0.5000  0.0000  0.1376  10.25000  0.05    0.19
Q43   1   0.4842  0.1480  0.3218  11.00000  0.05    0.19
Q44   1   0.2916  0.2382  0.2619  11.00000  0.05    0.19
Q45   1   0.1425  0.1216  0.1204  11.00000  0.05    0.19
Q46   1   0.2905  0.1644  0.2822  11.00000  0.05    0.18
Q47   1   0.6173 -0.0895  0.1906  11.00000  0.05    0.18
Q48   1   0.1945  0.1237  0.1435  11.00000  0.05    0.18
Q49   1   0.0722  0.0676  0.0674  11.00000  0.05    0.18
Q50   1   0.1920  0.0796  0.0416  11.00000  0.05    0.17
Q51   1   0.2095  0.1922  0.2300  11.00000  0.05    0.17
Q52   1   0.1281  0.2213  0.0000  10.50000  0.05    0.17
Q53   1   0.0800  0.0000  0.1674  10.50000  0.05    0.17
Q54   1   0.5000  0.1000  0.2815  10.50000  0.05    0.17
Q55   1   0.2155  0.0773  0.0404  11.00000  0.05    0.17
Q56   1   0.5000  0.0409  0.3698  10.50000  0.05    0.17
Q57   1   0.5810 -0.0683  0.1753  11.00000  0.05    0.17
Q58   1   0.0463  0.0615  0.1456  11.00000  0.05    0.17
Q59   1   0.1219  0.0878  0.0000  10.50000  0.05    0.16
Q60   1   0.3594  0.2187  0.2523  11.00000  0.05    0.16
Q61   1   0.4305  0.0000  0.4805  10.50000  0.05    0.16
Q62   1   0.1959  0.0573  0.0994  11.00000  0.05    0.16
Q63   1   0.4676  0.0913  0.3773  11.00000  0.05    0.16
Q64   1   0.1553  0.1205  0.0935  11.00000  0.05    0.16
Q65   1   0.2881  0.1413  0.1490  11.00000  0.05    0.16
Q66   1   0.2848  0.2722  0.1616  11.00000  0.05    0.16
Q67   1   0.2794  0.2601  0.1697  11.00000  0.05    0.15
Q68   1   0.5289 -0.0499  0.1810  11.00000  0.05    0.15
Q69   1   0.1797  0.1123  0.0053  11.00000  0.05    0.15
Q70   1   0.6268 -0.0627  0.1709  11.00000  0.05    0.15
Q71   1   0.4770  0.1199  0.3497  11.00000  0.05    0.15
Q72   1   0.2407  0.0834  0.1215  11.00000  0.05    0.15
Q73   1   0.5000  0.0298  0.1534  10.50000  0.05    0.15
Q74   1   0.2251  0.0962  0.0294  11.00000  0.05    0.15
Q75   1   0.4860  0.0000  0.4334  10.50000  0.05    0.14
Q76   1   0.0864  0.0000  0.1383  10.50000  0.05    0.14
Q77   1   0.0826  0.0323  0.1488  11.00000  0.05    0.14
Q78   1   0.1660  0.0397  0.0914  11.00000  0.05    0.14
Q79   1   0.0830  0.0381  0.0000  10.50000  0.05    0.14
Q80   1   0.5153 -0.1079  0.2209  11.00000  0.05    0.14
;
_shelx_res_checksum              39090
_shelx_fab_file
;
    2    0    0    285.35      0.00
    4    0    0    265.17      0.00
    6    0    0     84.83      0.00
    8    0    0     39.35      0.00
   10    0    0     45.28      0.00
   12    0    0     25.21      0.00
   14    0    0     23.94      0.00
   16    0    0     11.70      0.00
   18    0    0      8.50      0.00
   20    0    0      5.51      0.00
    3    1    0      2.50      0.00
    5    1    0    143.34      0.00
    7    1    0      4.33      0.00
    9    1    0     36.73      0.00
   11    1    0      7.87      0.00
   13    1    0      6.99      0.00
   15    1    0     10.12      0.00
   17    1    0      2.92      0.00
   19    1    0      1.46      0.00
   21    1    0      3.03      0.00
    0    2    0    255.13      0.00
    2    2    0   -398.71      0.00
    4    2    0     -5.59      0.00
    6    2    0      0.83      0.00
    8    2    0     13.05      0.00
   10    2    0      9.41      0.00
   12    2    0     -5.27      0.00
   14    2    0     -0.67      0.00
   16    2    0      0.37      0.00
   18    2    0      0.61      0.00
   20    2    0     -1.48      0.00
    1    3    0     27.62      0.00
    3    3    0    -31.40      0.00
    5    3    0     29.07      0.00
    7    3    0    -80.28      0.00
    9    3    0     18.78      0.00
   11    3    0      4.00      0.00
   13    3    0     -3.54      0.00
   15    3    0      1.37      0.00
   17    3    0     -9.46      0.00
   19    3    0     -6.34      0.00
   21    3    0     -2.08      0.00
    0    4    0     15.85      0.00
    2    4    0    -41.03      0.00
    4    4    0     36.03      0.00
    6    4    0    -33.90      0.00
    8    4    0     -8.17      0.00
   10    4    0      1.12      0.00
   12    4    0     -3.27      0.00
   14    4    0     -1.17      0.00
   16    4    0     -2.46      0.00
   18    4    0      1.18      0.00
   20    4    0     -5.89      0.00
    1    5    0     10.07      0.00
    3    5    0    -33.42      0.00
    5    5    0      7.26      0.00
    7    5    0    -10.39      0.00
    9    5    0     16.06      0.00
   11    5    0    -10.32      0.00
   13    5    0     -8.93      0.00
   15    5    0     -2.13      0.00
   17    5    0     -1.18      0.00
   19    5    0     -9.06      0.00
   21    5    0     -5.02      0.00
    0    6    0     37.45      0.00
    2    6    0    -27.48      0.00
    4    6    0    -14.54      0.00
    6    6    0      7.43      0.00
    8    6    0     -2.07      0.00
   10    6    0     -2.22      0.00
   12    6    0     -5.22      0.00
   14    6    0     -4.07      0.00
   16    6    0     -1.50      0.00
   18    6    0      1.52      0.00
   20    6    0     -6.06      0.00
    3    7    0     -4.01      0.00
    5    7    0    -29.32      0.00
    7    7    0     17.59      0.00
    9    7    0      4.52      0.00
   11    7    0     -1.80      0.00
   13    7    0      7.88      0.00
   15    7    0      1.09      0.00
   17    7    0     -0.10      0.00
   19    7    0     -0.97      0.00
   21    7    0     -1.69      0.00
    0    8    0    -62.20      0.00
    2    8    0     41.60      0.00
    4    8    0      7.39      0.00
    6    8    0     -2.96      0.00
    8    8    0     -1.79      0.00
   10    8    0      6.76      0.00
   12    8    0     -1.78      0.00
   14    8    0     -4.83      0.00
   16    8    0     -1.85      0.00
   18    8    0     -2.27      0.00
   20    8    0     -2.29      0.00
    1    9    0    -12.47      0.00
    3    9    0     74.24      0.00
    5    9    0    -24.08      0.00
    7    9    0    -13.20      0.00
    9    9    0     -3.72      0.00
   11    9    0     -3.94      0.00
   13    9    0      1.66      0.00
   15    9    0     -2.24      0.00
   17    9    0     -0.64      0.00
   19    9    0      6.74      0.00
   21    9    0      1.14      0.00
    0   10    0    -81.71      0.00
    2   10    0     41.21      0.00
    4   10    0    -20.50      0.00
    6   10    0    -12.03      0.00
    8   10    0      9.79      0.00
   10   10    0     -0.31      0.00
   12   10    0      0.07      0.00
   14   10    0      7.53      0.00
   16   10    0      2.61      0.00
   18   10    0      1.95      0.00
   20   10    0      1.42      0.00
    1   11    0      6.01      0.00
    3   11    0     25.69      0.00
    5   11    0    -24.27      0.00
    7   11    0      7.04      0.00
    9   11    0      4.45      0.00
   11   11    0     -5.71      0.00
   13   11    0      1.06      0.00
   15   11    0      4.25      0.00
   17   11    0      0.47      0.00
   19   11    0     -0.54      0.00
    0   12    0      9.91      0.00
    2   12    0     11.38      0.00
    4   12    0     -7.54      0.00
    6   12    0      0.50      0.00
    8   12    0     -0.96      0.00
   10   12    0     -1.52      0.00
   12   12    0      5.27      0.00
   14   12    0      8.12      0.00
   16   12    0     -0.54      0.00
   18   12    0     -7.73      0.00
   20   12    0     -1.84      0.00
    1   13    0    -24.53      0.00
    3   13    0      4.98      0.00
    5   13    0    -10.43      0.00
    7   13    0      9.87      0.00
    9   13    0      2.48      0.00
   11   13    0     -3.17      0.00
   13   13    0     -3.38      0.00
   15   13    0     -1.37      0.00
   17   13    0     -0.97      0.00
   19   13    0     -0.84      0.00
    0   14    0     -3.86      0.00
    2   14    0     -8.45      0.00
    4   14    0      8.91      0.00
    6   14    0     -0.26      0.00
    8   14    0     -3.16      0.00
   10   14    0      2.23      0.00
   12   14    0     -2.50      0.00
   14   14    0     -0.64      0.00
   16   14    0     -2.91      0.00
   18   14    0     -2.52      0.00
    1   15    0      7.31      0.00
    3   15    0      3.49      0.00
    5   15    0     -0.34      0.00
    7   15    0     -4.76      0.00
    9   15    0      2.13      0.00
   11   15    0     -5.01      0.00
   13   15    0      0.54      0.00
   15   15    0     -1.61      0.00
   17   15    0     -0.01      0.00
   19   15    0     -8.18      0.00
    0   16    0      7.34      0.00
    2   16    0    -12.11      0.00
    4   16    0      2.32      0.00
    6   16    0     -3.33      0.00
    8   16    0      2.26      0.00
   10   16    0      0.44      0.00
   12   16    0      0.89      0.00
   14   16    0      0.45      0.00
   16   16    0     -3.53      0.00
   18   16    0      0.11      0.00
    1   17    0      6.68      0.00
    3   17    0    -15.25      0.00
    5   17    0     10.78      0.00
    7   17    0     -3.67      0.00
    9   17    0     -0.99      0.00
   11   17    0      0.93      0.00
   13   17    0      2.66      0.00
   15   17    0     -3.57      0.00
   17   17    0      0.16      0.00
    0   18    0     18.16      0.00
    2   18    0     -6.82      0.00
    4   18    0      7.18      0.00
    6   18    0      6.12      0.00
    8   18    0      3.73      0.00
   10   18    0      3.23      0.00
   12   18    0      1.91      0.00
   14   18    0      1.19      0.00
   16   18    0      1.76      0.00
    1   19    0      2.37      0.00
    3   19    0    -15.87      0.00
    5   19    0     11.94      0.00
    7   19    0     -2.76      0.00
    9   19    0     -0.15      0.00
   11   19    0      4.20      0.00
   13   19    0      0.11      0.00
   15   19    0     -1.05      0.00
   17   19    0      1.43      0.00
    0   20    0     11.70      0.00
    2   20    0     -0.47      0.00
    4   20    0     -3.95      0.00
    6   20    0     -4.57      0.00
    8   20    0     -4.08      0.00
   10   20    0      5.04      0.00
   12   20    0      1.21      0.00
   14   20    0     -2.82      0.00
   16   20    0     -1.02      0.00
    1   21    0      8.25      0.00
    3   21    0     -4.87      0.00
    5   21    0     10.96      0.00
    7   21    0     -4.18      0.00
    9   21    0     -2.38      0.00
   11   21    0      1.69      0.00
   13   21    0      1.73      0.00
   15   21    0      3.54      0.00
    0   22    0     -3.59      0.00
    2   22    0     -2.42      0.00
    4   22    0     -0.07      0.00
    6   22    0      3.19      0.00
    8   22    0      2.37      0.00
   10   22    0      1.26      0.00
   12   22    0     -1.48      0.00
   14   22    0     -5.41      0.00
    1   23    0      0.89      0.00
    3   23    0     -4.00      0.00
    5   23    0      0.25      0.00
    7   23    0     -3.74      0.00
    9   23    0      1.89      0.00
   11   23    0      4.87      0.00
   13   23    0     -0.43      0.00
    0   24    0      0.93      0.00
    2   24    0      3.70      0.00
    4   24    0     -5.00      0.00
    6   24    0     -8.15      0.00
    8   24    0      0.56      0.00
   10   24    0      0.02      0.00
   12   24    0     -0.41      0.00
    1   25    0     -0.11      0.00
    3   25    0      2.95      0.00
    5   25    0     -7.08      0.00
    7   25    0      1.49      0.00
    9   25    0     -5.44      0.00
   11   25    0     -3.49      0.00
    0   26    0     -7.45      0.00
    2   26    0      3.76      0.00
    4   26    0     -6.99      0.00
    6   26    0     -2.92      0.00
    8   26    0      2.42      0.00
   10   26    0     -2.16      0.00
    1   27    0      2.64      0.00
    3   27    0      6.30      0.00
    5   27    0     -6.05      0.00
    7   27    0      2.82      0.00
    9   27    0     -5.78      0.00
    0   28    0     -3.36      0.00
    2   28    0      3.56      0.00
    4   28    0     -1.48      0.00
    6   28    0      3.68      0.00
    8   28    0      0.79      0.00
    1   29    0     -0.17      0.00
    3   29    0      1.91      0.00
    5   29    0     -1.82      0.00
    7   29    0      3.61      0.00
    0   30    0     -1.75      0.00
    2   30    0     -1.98      0.00
    4   30    0     -0.55      0.00
    3    0    1    -33.17      0.00
    5    0    1     -0.49      0.00
    7    0    1    -49.41      0.00
    9    0    1    -11.93      0.00
   11    0    1     -4.72      0.00
   13    0    1    -11.59      0.00
   15    0    1     -2.38      0.00
   17    0    1     -6.17      0.00
   19    0    1     -0.85      0.00
   21    0    1      1.39      0.00
    2    1    1     26.27      0.00
    4    1    1     -6.82      0.00
    6    1    1     -5.35      0.00
    8    1    1      4.84      0.00
   10    1    1     -7.26      0.00
   12    1    1     -0.60      0.00
   14    1    1     -6.04      0.00
   16    1    1     -1.48      0.00
   18    1    1      4.25      0.00
   20    1    1     -0.20      0.00
    1    2    1    -41.89      0.00
    3    2    1    -16.01      0.00
    5    2    1      1.61      0.00
    7    2    1    -14.11      0.00
    9    2    1    -12.58      0.00
   11    2    1      2.02      0.00
   13    2    1      1.22      0.00
   15    2    1      2.61      0.00
   17    2    1      3.20      0.00
   19    2    1     -2.06      0.00
   21    2    1     -0.69      0.00
    0    3    1    205.64      0.00
    2    3    1     14.86      0.00
    4    3    1    -15.36      0.00
    6    3    1      2.52      0.00
    8    3    1      4.34      0.00
   10    3    1     -3.68      0.00
   12    3    1      1.12      0.00
   14    3    1      0.31      0.00
   16    3    1     -3.71      0.00
   18    3    1      0.93      0.00
   20    3    1      4.78      0.00
    1    4    1    -77.33      0.00
    3    4    1    -28.60      0.00
    5    4    1     -4.90      0.00
    7    4    1     13.57      0.00
    9    4    1     -5.60      0.00
   11    4    1      5.75      0.00
   13    4    1      1.45      0.00
   15    4    1     -2.34      0.00
   17    4    1     -0.27      0.00
   19    4    1     -3.17      0.00
   21    4    1     -0.48      0.00
    0    5    1     62.92      0.00
    2    5    1    -40.71      0.00
    4    5    1     21.20      0.00
    6    5    1     -0.13      0.00
    8    5    1     -2.89      0.00
   10    5    1    -11.05      0.00
   12    5    1     -1.45      0.00
   14    5    1      0.22      0.00
   16    5    1      0.30      0.00
   18    5    1     -1.00      0.00
   20    5    1      4.97      0.00
    1    6    1     -8.31      0.00
    3    6    1     57.24      0.00
    5    6    1     28.27      0.00
    7    6    1    -10.10      0.00
    9    6    1     -4.60      0.00
   11    6    1     -1.42      0.00
   13    6    1     -2.84      0.00
   15    6    1      0.39      0.00
   17    6    1     -1.93      0.00
   19    6    1      4.22      0.00
   21    6    1      1.99      0.00
    0    7    1     27.68      0.00
    2    7    1     -3.56      0.00
    4    7    1     -3.93      0.00
    6    7    1    -10.95      0.00
    8    7    1     12.71      0.00
   10    7    1      0.67      0.00
   12    7    1      0.09      0.00
   14    7    1     -0.21      0.00
   16    7    1      1.26      0.00
   18    7    1     -0.17      0.00
   20    7    1     -0.77      0.00
    1    8    1     28.58      0.00
    3    8    1      5.15      0.00
    5    8    1     -8.69      0.00
    7    8    1     -1.05      0.00
    9    8    1      6.76      0.00
   11    8    1     -1.26      0.00
   13    8    1      1.33      0.00
   15    8    1      2.19      0.00
   17    8    1     -2.14      0.00
   19    8    1     -1.61      0.00
   21    8    1     -1.31      0.00
    0    9    1     46.64      0.00
    2    9    1    -31.38      0.00
    4    9    1      8.37      0.00
    6    9    1     15.54      0.00
    8    9    1      0.82      0.00
   10    9    1     -4.40      0.00
   12    9    1      0.40      0.00
   14    9    1      3.63      0.00
   16    9    1      4.17      0.00
   18    9    1     -0.34      0.00
   20    9    1     -0.74      0.00
    1   10    1     -9.80      0.00
    3   10    1     -5.56      0.00
    5   10    1     -9.19      0.00
    7   10    1      5.25      0.00
    9   10    1     -5.32      0.00
   11   10    1     -2.55      0.00
   13   10    1     -0.16      0.00
   15   10    1     -0.61      0.00
   17   10    1      1.95      0.00
   19   10    1      0.90      0.00
    0   11    1     -1.07      0.00
    2   11    1     -8.66      0.00
    4   11    1     18.69      0.00
    6   11    1      2.09      0.00
    8   11    1     -4.38      0.00
   10   11    1      2.78      0.00
   12   11    1      0.13      0.00
   14   11    1      0.06      0.00
   16   11    1      0.89      0.00
   18   11    1      2.94      0.00
   20   11    1      1.77      0.00
    1   12    1      7.75      0.00
    3   12    1     11.66      0.00
    5   12    1     -1.24      0.00
    7   12    1     -2.92      0.00
    9   12    1      3.03      0.00
   11   12    1      0.91      0.00
   13   12    1     -0.54      0.00
   15   12    1     -5.51      0.00
   17   12    1     -1.73      0.00
   19   12    1     -0.36      0.00
    0   13    1    -20.09      0.00
    2   13    1     -8.91      0.00
    4   13    1     -6.48      0.00
    6   13    1     -5.54      0.00
    8   13    1      0.84      0.00
   10   13    1     -0.85      0.00
   12   13    1      2.45      0.00
   14   13    1      1.68      0.00
   16   13    1      0.45      0.00
   18   13    1      1.18      0.00
    1   14    1      8.84      0.00
    3   14    1      0.01      0.00
    5   14    1      2.45      0.00
    7   14    1      3.97      0.00
    9   14    1      2.49      0.00
   11   14    1     -0.01      0.00
   13   14    1      2.01      0.00
   15   14    1     -2.04      0.00
   17   14    1      2.50      0.00
   19   14    1      7.30      0.00
    0   15    1     10.32      0.00
    2   15    1      3.95      0.00
    4   15    1      0.71      0.00
    6   15    1      1.17      0.00
    8   15    1     -3.41      0.00
   10   15    1     -0.26      0.00
   12   15    1      3.20      0.00
   14   15    1     -0.90      0.00
   16   15    1      2.43      0.00
   18   15    1      0.11      0.00
    1   16    1     -6.58      0.00
    3   16    1     -6.65      0.00
    5   16    1     -4.50      0.00
    7   16    1     -0.98      0.00
    9   16    1     -5.33      0.00
   11   16    1     -3.39      0.00
   13   16    1     -1.82      0.00
   15   16    1      1.41      0.00
   17   16    1      4.20      0.00
    0   17    1     -4.56      0.00
    2   17    1      3.01      0.00
    4   17    1      1.29      0.00
    6   17    1     -1.26      0.00
    8   17    1     -1.27      0.00
   10   17    1      3.55      0.00
   12   17    1     -1.93      0.00
   14   17    1     -1.37      0.00
   16   17    1     -0.54      0.00
   18   17    1     -3.02      0.00
    1   18    1      0.88      0.00
    3   18    1     -0.71      0.00
    5   18    1      0.26      0.00
    7   18    1     -0.46      0.00
    9   18    1     -1.57      0.00
   11   18    1     -2.73      0.00
   13   18    1     -3.44      0.00
   15   18    1     -2.08      0.00
   17   18    1     -1.72      0.00
    0   19    1     -5.56      0.00
    2   19    1     -0.43      0.00
    4   19    1      1.29      0.00
    6   19    1     -2.15      0.00
    8   19    1      1.18      0.00
   10   19    1      0.71      0.00
   12   19    1     -0.01      0.00
   14   19    1     -0.35      0.00
   16   19    1     -0.52      0.00
    1   20    1     -1.63      0.00
    3   20    1     -4.89      0.00
    5   20    1      0.03      0.00
    7   20    1      0.17      0.00
    9   20    1     -0.25      0.00
   11   20    1     -1.38      0.00
   13   20    1     -2.07      0.00
   15   20    1      0.24      0.00
    0   21    1      4.51      0.00
    2   21    1      2.36      0.00
    4   21    1      5.56      0.00
    6   21    1      0.36      0.00
    8   21    1      1.24      0.00
   10   21    1      0.22      0.00
   12   21    1      0.72      0.00
   14   21    1     -1.06      0.00
   16   21    1     -0.79      0.00
    1   22    1     -1.96      0.00
    3   22    1      1.21      0.00
    5   22    1      2.10      0.00
    7   22    1      1.19      0.00
    9   22    1     -0.62      0.00
   11   22    1     -0.59      0.00
   13   22    1      2.08      0.00
   15   22    1     -0.62      0.00
    0   23    1     -3.98      0.00
    2   23    1     -3.73      0.00
    4   23    1     -1.29      0.00
    6   23    1     -0.97      0.00
    8   23    1     -0.79      0.00
   10   23    1     -0.92      0.00
   12   23    1      0.85      0.00
   14   23    1      0.38      0.00
    1   24    1     -1.48      0.00
    3   24    1      1.42      0.00
    5   24    1      6.49      0.00
    7   24    1      2.15      0.00
    9   24    1     -0.58      0.00
   11   24    1     -0.65      0.00
   13   24    1      1.38      0.00
    0   25    1      3.74      0.00
    2   25    1      1.54      0.00
    4   25    1      2.31      0.00
    6   25    1     -1.62      0.00
    8   25    1     -1.15      0.00
   10   25    1     -0.81      0.00
   12   25    1      0.21      0.00
    1   26    1     -7.61      0.00
    3   26    1     -2.42      0.00
    5   26    1      6.89      0.00
    7   26    1     -0.81      0.00
    9   26    1      1.13      0.00
   11   26    1      0.39      0.00
    0   27    1      2.33      0.00
    2   27    1     -1.35      0.00
    4   27    1      0.91      0.00
    6   27    1     -3.01      0.00
    8   27    1     -0.64      0.00
   10   27    1     -0.62      0.00
    1   28    1      0.40      0.00
    3   28    1     -0.48      0.00
    5   28    1     -1.42      0.00
    7   28    1     -2.72      0.00
    9   28    1      0.18      0.00
    0   29    1     -1.98      0.00
    2   29    1     -2.15      0.00
    4   29    1     -5.35      0.00
    6   29    1     -0.98      0.00
    1   30    1     -1.22      0.00
    3   30    1      1.56      0.00
    5   30    1      2.82      0.00
    2    0    2    139.37      0.00
    4    0    2   -179.38      0.00
    6    0    2    -25.32      0.00
    8    0    2     -3.06      0.00
   10    0    2    -29.83      0.00
   12    0    2     -1.06      0.00
   14    0    2     -9.61      0.00
   16    0    2     -7.40      0.00
   18    0    2     -0.90      0.00
   20    0    2     -1.93      0.00
    1    1    2   -246.98      0.00
    3    1    2     15.90      0.00
    5    1    2   -137.26      0.00
    7    1    2     23.53      0.00
    9    1    2    -32.15      0.00
   11    1    2    -10.89      0.00
   13    1    2     -4.81      0.00
   15    1    2     -9.39      0.00
   17    1    2     -3.14      0.00
   19    1    2     -6.80      0.00
   21    1    2     -4.37      0.00
    0    2    2    -84.17      0.00
    2    2    2    171.54      0.00
    4    2    2    -97.63      0.00
    6    2    2     -5.13      0.00
    8    2    2      1.31      0.00
   10    2    2    -18.38      0.00
   12    2    2      5.48      0.00
   14    2    2     -3.85      0.00
   16    2    2     -0.53      0.00
   18    2    2      1.89      0.00
   20    2    2      0.22      0.00
    1    3    2    -61.02      0.00
    3    3    2    141.81      0.00
    5    3    2    -29.41      0.00
    7    3    2     43.80      0.00
    9    3    2     -7.11      0.00
   11    3    2      1.04      0.00
   13    3    2      1.42      0.00
   15    3    2      3.88      0.00
   17    3    2      4.02      0.00
   19    3    2      2.90      0.00
   21    3    2     -0.90      0.00
    0    4    2    -70.59      0.00
    2    4    2    128.22      0.00
    4    4    2    -14.84      0.00
    6    4    2     19.85      0.00
    8    4    2     13.78      0.00
   10    4    2      2.40      0.00
   12    4    2      7.33      0.00
   14    4    2      0.01      0.00
   16    4    2      3.53      0.00
   18    4    2      7.10      0.00
   20    4    2      4.35      0.00
    1    5    2     53.52      0.00
    3    5    2     48.40      0.00
    5    5    2    -27.73      0.00
    7    5    2      8.48      0.00
    9    5    2     -7.36      0.00
   11    5    2      5.99      0.00
   13    5    2      5.59      0.00
   15    5    2      6.16      0.00
   17    5    2      3.95      0.00
   19    5    2      3.64      0.00
   21    5    2     -0.61      0.00
    0    6    2     10.54      0.00
    2    6    2      7.53      0.00
    4    6    2     -7.09      0.00
    6    6    2      3.98      0.00
    8    6    2      2.10      0.00
   10    6    2      5.24      0.00
   12    6    2      3.31      0.00
   14    6    2      0.05      0.00
   16    6    2     -1.25      0.00
   18    6    2     -0.61      0.00
   20    6    2      2.65      0.00
    1    7    2    -23.98      0.00
    3    7    2    -58.75      0.00
    5    7    2     -3.93      0.00
    7    7    2      1.25      0.00
    9    7    2     -5.36      0.00
   11    7    2      8.52      0.00
   13    7    2      1.39      0.00
   15    7    2     -1.27      0.00
   17    7    2      2.99      0.00
   19    7    2      2.65      0.00
   21    7    2     -0.13      0.00
    0    8    2     29.96      0.00
    2    8    2    -41.00      0.00
    4    8    2     13.83      0.00
    6    8    2      2.59      0.00
    8    8    2     -6.10      0.00
   10    8    2      2.52      0.00
   12    8    2      0.05      0.00
   14    8    2     -1.98      0.00
   16    8    2     -2.33      0.00
   18    8    2     -2.78      0.00
   20    8    2      3.98      0.00
    1    9    2     15.40      0.00
    3    9    2    -21.55      0.00
    5    9    2     27.62      0.00
    7    9    2     -4.06      0.00
    9    9    2     -0.60      0.00
   11    9    2      5.14      0.00
   13    9    2     -2.65      0.00
   15    9    2     -8.17      0.00
   17    9    2     -2.77      0.00
   19    9    2     -0.84      0.00
    0   10    2     47.42      0.00
    2   10    2    -32.68      0.00
    4   10    2      5.67      0.00
    6   10    2      1.34      0.00
    8   10    2     -4.31      0.00
   10   10    2      3.04      0.00
   12   10    2     -2.00      0.00
   14   10    2     -4.36      0.00
   16   10    2     -4.08      0.00
   18   10    2     -3.47      0.00
   20   10    2     -2.12      0.00
    1   11    2     16.50      0.00
    3   11    2    -19.94      0.00
    5   11    2     17.91      0.00
    7   11    2     -3.06      0.00
    9   11    2      0.43      0.00
   11   11    2     -0.84      0.00
   13   11    2     -5.09      0.00
   15   11    2     -4.28      0.00
   17   11    2      2.36      0.00
   19   11    2      2.00      0.00
    0   12    2     31.76      0.00
    2   12    2     -8.77      0.00
    4   12    2      7.33      0.00
    6   12    2      8.79      0.00
    8   12    2     -1.43      0.00
   10   12    2      2.29      0.00
   12   12    2      0.50      0.00
   14   12    2      0.87      0.00
   16   12    2      0.37      0.00
   18   12    2     -1.24      0.00
   20   12    2     -0.07      0.00
    1   13    2     -1.36      0.00
    3   13    2     -8.91      0.00
    5   13    2      6.11      0.00
    7   13    2      0.45      0.00
    9   13    2     -2.22      0.00
   11   13    2      1.22      0.00
   13   13    2     -3.50      0.00
   15   13    2      2.59      0.00
   17   13    2      2.90      0.00
   19   13    2      0.78      0.00
    0   14    2     -4.40      0.00
    2   14    2      3.96      0.00
    4   14    2      0.32      0.00
    6   14    2      0.80      0.00
    8   14    2     -4.29      0.00
   10   14    2      1.51      0.00
   12   14    2      0.36      0.00
   14   14    2      3.89      0.00
   16   14    2      0.84      0.00
   18   14    2     -0.97      0.00
    1   15    2      5.68      0.00
    3   15    2      7.33      0.00
    5   15    2     -3.70      0.00
    7   15    2      2.23      0.00
    9   15    2     -0.54      0.00
   11   15    2      0.57      0.00
   13   15    2     -2.53      0.00
   15   15    2      1.24      0.00
   17   15    2     -3.97      0.00
   19   15    2     -5.03      0.00
    0   16    2    -14.79      0.00
    2   16    2      7.38      0.00
    4   16    2     -3.11      0.00
    6   16    2     -1.25      0.00
    8   16    2      2.21      0.00
   10   16    2      0.28      0.00
   12   16    2      2.25      0.00
   14   16    2      2.49      0.00
   16   16    2      0.05      0.00
   18   16    2     -0.25      0.00
    1   17    2     -1.56      0.00
    3   17    2     11.03      0.00
    5   17    2     -5.27      0.00
    7   17    2      5.74      0.00
    9   17    2     -1.29      0.00
   11   17    2      0.29      0.00
   13   17    2      1.97      0.00
   15   17    2      1.33      0.00
   17   17    2      0.09      0.00
    0   18    2     -9.47      0.00
    2   18    2     11.38      0.00
    4   18    2      0.37      0.00
    6   18    2     -3.00      0.00
    8   18    2      4.24      0.00
   10   18    2     -2.47      0.00
   12   18    2      2.09      0.00
   14   18    2     -1.15      0.00
   16   18    2     -0.85      0.00
    1   19    2     -7.37      0.00
    3   19    2      6.97      0.00
    5   19    2     -9.55      0.00
    7   19    2      4.61      0.00
    9   19    2     -2.89      0.00
   11   19    2     -1.62      0.00
   13   19    2      5.94      0.00
   15   19    2      1.82      0.00
   17   19    2      0.25      0.00
    0   20    2     -9.15      0.00
    2   20    2      3.91      0.00
    4   20    2     -3.12      0.00
    6   20    2     -3.91      0.00
    8   20    2      5.67      0.00
   10   20    2     -1.89      0.00
   12   20    2     -0.50      0.00
   14   20    2      2.49      0.00
   16   20    2     -1.60      0.00
    1   21    2     -0.75      0.00
    3   21    2      6.91      0.00
    5   21    2     -4.92      0.00
    7   21    2      1.22      0.00
    9   21    2     -1.69      0.00
   11   21    2     -1.42      0.00
   13   21    2      4.58      0.00
   15   21    2      1.71      0.00
    0   22    2      3.40      0.00
    2   22    2      2.62      0.00
    4   22    2     -1.82      0.00
    6   22    2     -5.06      0.00
    8   22    2      0.97      0.00
   10   22    2     -3.39      0.00
   12   22    2     -4.63      0.00
   14   22    2      0.82      0.00
    1   23    2     -0.12      0.00
    3   23    2     -0.53      0.00
    5   23    2     -0.48      0.00
    7   23    2     -1.16      0.00
    9   23    2      0.96      0.00
   11   23    2     -0.76      0.00
   13   23    2      0.26      0.00
    0   24    2      9.31      0.00
    2   24    2     -1.58      0.00
    4   24    2     -0.21      0.00
    6   24    2      1.97      0.00
    8   24    2      2.35      0.00
   10   24    2      1.86      0.00
   12   24    2      0.21      0.00
    1   25    2      5.63      0.00
    3   25    2     -1.05      0.00
    5   25    2      2.72      0.00
    7   25    2     -1.32      0.00
    9   25    2      3.35      0.00
   11   25    2      2.59      0.00
    0   26    2      5.16      0.00
    2   26    2     -5.76      0.00
    4   26    2     -1.67      0.00
    6   26    2      5.68      0.00
    8   26    2      1.05      0.00
   10   26    2      2.35      0.00
    1   27    2      5.84      0.00
    3   27    2      0.35      0.00
    5   27    2      5.91      0.00
    7   27    2     -0.23      0.00
    9   27    2      2.05      0.00
    0   28    2      6.64      0.00
    2   28    2     -0.41      0.00
    4   28    2      3.99      0.00
    6   28    2      0.55      0.00
    8   28    2     -1.98      0.00
    1   29    2     -2.74      0.00
    3   29    2     -3.64      0.00
    5   29    2      1.90      0.00
    7   29    2     -3.17      0.00
    0   30    2      0.99      0.00
    2   30    2     -3.13      0.00
    4   30    2      1.63      0.00
    1    0    3    171.06      0.00
    3    0    3     68.09      0.00
    5    0    3     -7.00      0.00
    7    0    3     -5.70      0.00
    9    0    3     12.34      0.00
   11    0    3      3.61      0.00
   13    0    3     10.75      0.00
   15    0    3      6.92      0.00
   17    0    3      2.89      0.00
   19    0    3     -1.37      0.00
   21    0    3     -3.92      0.00
    0    1    3    -49.71      0.00
    2    1    3    -97.83      0.00
    4    1    3     49.79      0.00
    6    1    3     -1.88      0.00
    8    1    3      7.12      0.00
   10    1    3     10.94      0.00
   12    1    3      1.07      0.00
   14    1    3      6.75      0.00
   16    1    3      1.90      0.00
   18    1    3     -4.69      0.00
   20    1    3      2.64      0.00
    1    2    3     65.30      0.00
    3    2    3     14.19      0.00
    5    2    3     15.63      0.00
    7    2    3     -1.02      0.00
    9    2    3     25.64      0.00
   11    2    3     -2.01      0.00
   13    2    3     -0.76      0.00
   15    2    3      1.39      0.00
   17    2    3      0.72      0.00
   19    2    3      3.56      0.00
   21    2    3     -1.10      0.00
    0    3    3     62.46      0.00
    2    3    3     93.93      0.00
    4    3    3     42.07      0.00
    6    3    3      2.57      0.00
    8    3    3      5.33      0.00
   10    3    3     -0.83      0.00
   12    3    3     -1.95      0.00
   14    3    3      0.09      0.00
   16    3    3     -2.67      0.00
   18    3    3     -6.99      0.00
   20    3    3     -5.64      0.00
    1    4    3    -91.37      0.00
    3    4    3    -30.16      0.00
    5    4    3     23.30      0.00
    7    4    3    -11.55      0.00
    9    4    3      4.69      0.00
   11    4    3     -8.77      0.00
   13    4    3      1.16      0.00
   15    4    3     -0.53      0.00
   17    4    3     -0.45      0.00
   19    4    3      3.92      0.00
   21    4    3      3.05      0.00
    0    5    3     50.35      0.00
    2    5    3     11.18      0.00
    4    5    3    -41.54      0.00
    6    5    3     20.81      0.00
    8    5    3     13.36      0.00
   10    5    3      3.92      0.00
   12    5    3     -2.83      0.00
   14    5    3     -0.71      0.00
   16    5    3      0.36      0.00
   18    5    3     -1.63      0.00
   20    5    3     -4.83      0.00
    1    6    3    -10.31      0.00
    3    6    3     14.33      0.00
    5    6    3    -14.83      0.00
    7    6    3     -4.61      0.00
    9    6    3     -2.70      0.00
   11    6    3      0.19      0.00
   13    6    3      5.48      0.00
   15    6    3     -2.16      0.00
   17    6    3     -0.80      0.00
   19    6    3     -2.80      0.00
   21    6    3      2.87      0.00
    0    7    3     22.51      0.00
    2    7    3    -12.42      0.00
    4    7    3    -21.14      0.00
    6    7    3     16.12      0.00
    8    7    3    -15.64      0.00
   10    7    3     -5.32      0.00
   12    7    3     -1.73      0.00
   14    7    3      4.32      0.00
   16    7    3      2.35      0.00
   18    7    3      2.77      0.00
   20    7    3     -3.01      0.00
    1    8    3     10.88      0.00
    3    8    3     21.17      0.00
    5    8    3     -9.13      0.00
    7    8    3     -2.25      0.00
    9    8    3     -3.92      0.00
   11    8    3     -1.30      0.00
   13    8    3     -3.03      0.00
   15    8    3      2.01      0.00
   17    8    3      3.15      0.00
   19    8    3     -0.21      0.00
   21    8    3      1.83      0.00
    0    9    3    -16.10      0.00
    2    9    3     20.25      0.00
    4    9    3    -16.84      0.00
    6    9    3     -2.60      0.00
    8    9    3     -4.85      0.00
   10    9    3     -1.13      0.00
   12    9    3      0.29      0.00
   14    9    3      0.65      0.00
   16    9    3      2.45      0.00
   18    9    3      3.62      0.00
   20    9    3     -4.01      0.00
    1   10    3    -11.17      0.00
    3   10    3     -9.03      0.00
    5   10    3     -8.33      0.00
    7   10    3      1.45      0.00
    9   10    3      3.88      0.00
   11   10    3      3.21      0.00
   13   10    3     -1.02      0.00
   15   10    3      6.14      0.00
   17   10    3      0.00      0.00
   19   10    3     -1.20      0.00
    0   11    3    -25.36      0.00
    2   11    3     -5.42      0.00
    4   11    3    -12.92      0.00
    6   11    3      7.21      0.00
    8   11    3     -1.01      0.00
   10   11    3     -2.90      0.00
   12   11    3      1.87      0.00
   14   11    3      1.30      0.00
   16   11    3      4.54      0.00
   18   11    3     -1.11      0.00
   20   11    3     -1.01      0.00
    1   12    3      8.01      0.00
    3   12    3     -1.54      0.00
    5   12    3     -4.27      0.00
    7   12    3      2.94      0.00
    9   12    3     -3.46      0.00
   11   12    3      0.60      0.00
   13   12    3     -1.50      0.00
   15   12    3     -0.90      0.00
   17   12    3     -1.30      0.00
   19   12    3      1.92      0.00
    0   13    3      1.95      0.00
    2   13    3     -6.21      0.00
    4   13    3     -1.58      0.00
    6   13    3      1.35      0.00
    8   13    3     -2.92      0.00
   10   13    3      2.40      0.00
   12   13    3     -1.09      0.00
   14   13    3     -2.78      0.00
   16   13    3      0.06      0.00
   18   13    3     -2.07      0.00
    1   14    3     -2.48      0.00
    3   14    3     -7.37      0.00
    5   14    3     -2.86      0.00
    7   14    3     -0.30      0.00
    9   14    3     -0.95      0.00
   11   14    3      0.07      0.00
   13   14    3     -1.71      0.00
   15   14    3     -0.93      0.00
   17   14    3      0.98      0.00
   19   14    3     -1.22      0.00
    0   15    3     -5.54      0.00
    2   15    3      0.24      0.00
    4   15    3      3.71      0.00
    6   15    3     -0.77      0.00
    8   15    3      0.38      0.00
   10   15    3      3.44      0.00
   12   15    3      1.88      0.00
   14   15    3      1.80      0.00
   16   15    3     -2.19      0.00
   18   15    3     -0.48      0.00
    1   16    3     -0.34      0.00
    3   16    3     -0.15      0.00
    5   16    3      7.89      0.00
    7   16    3      5.84      0.00
    9   16    3      4.54      0.00
   11   16    3     -2.14      0.00
   13   16    3     -3.23      0.00
   15   16    3      1.26      0.00
   17   16    3      2.54      0.00
    0   17    3     -0.32      0.00
    2   17    3     -0.95      0.00
    4   17    3     -0.08      0.00
    6   17    3      0.22      0.00
    8   17    3     -3.77      0.00
   10   17    3      2.48      0.00
   12   17    3     -0.73      0.00
   14   17    3      1.78      0.00
   16   17    3     -3.83      0.00
   18   17    3     -1.47      0.00
    1   18    3      5.48      0.00
    3   18    3      0.98      0.00
    5   18    3     -1.77      0.00
    7   18    3     -2.10      0.00
    9   18    3      0.83      0.00
   11   18    3     -3.68      0.00
   13   18    3     -1.15      0.00
   15   18    3      5.53      0.00
   17   18    3      0.51      0.00
    0   19    3     -0.82      0.00
    2   19    3     -0.15      0.00
    4   19    3      1.17      0.00
    6   19    3      1.62      0.00
    8   19    3     -4.47      0.00
   10   19    3      3.76      0.00
   12   19    3     -1.28      0.00
   14   19    3      0.89      0.00
   16   19    3     -0.33      0.00
    1   20    3     -3.42      0.00
    3   20    3      0.91      0.00
    5   20    3     -1.17      0.00
    7   20    3     -1.02      0.00
    9   20    3     -0.32      0.00
   11   20    3     -1.70      0.00
   13   20    3     -2.52      0.00
   15   20    3      1.50      0.00
    0   21    3     -1.71      0.00
    2   21    3      3.32      0.00
    4   21    3      1.24      0.00
    6   21    3      3.57      0.00
    8   21    3     -1.44      0.00
   10   21    3      0.33      0.00
   12   21    3      1.50      0.00
   14   21    3     -2.46      0.00
   16   21    3     -1.95      0.00
    1   22    3     -3.38      0.00
    3   22    3     -5.15      0.00
    5   22    3     -3.82      0.00
    7   22    3      4.88      0.00
    9   22    3      1.79      0.00
   11   22    3     -0.67      0.00
   13   22    3     -1.92      0.00
   15   22    3     -1.09      0.00
    0   23    3     -3.37      0.00
    2   23    3      1.33      0.00
    4   23    3     -3.67      0.00
    6   23    3     -0.51      0.00
    8   23    3     -0.78      0.00
   10   23    3     -0.55      0.00
   12   23    3      0.04      0.00
   14   23    3      1.04      0.00
    1   24    3     -2.19      0.00
    3   24    3      3.13      0.00
    5   24    3      0.59      0.00
    7   24    3      2.67      0.00
    9   24    3     -0.24      0.00
   11   24    3      0.09      0.00
   13   24    3     -0.43      0.00
    0   25    3     -5.92      0.00
    2   25    3      2.83      0.00
    4   25    3      0.55      0.00
    6   25    3     -2.28      0.00
    8   25    3      3.21      0.00
   10   25    3     -0.01      0.00
   12   25    3     -3.69      0.00
    1   26    3     -3.47      0.00
    3   26    3     -0.14      0.00
    5   26    3     -1.52      0.00
    7   26    3      0.90      0.00
    9   26    3      1.54      0.00
   11   26    3      4.24      0.00
    0   27    3     -0.55      0.00
    2   27    3      2.56      0.00
    4   27    3     -4.74      0.00
    6   27    3     -8.37      0.00
    8   27    3      2.43      0.00
   10   27    3     -2.35      0.00
    1   28    3     -5.46      0.00
    3   28    3      0.28      0.00
    5   28    3      6.38      0.00
    7   28    3      3.18      0.00
    9   28    3     -1.06      0.00
    0   29    3      2.69      0.00
    2   29    3      4.67      0.00
    4   29    3      0.50      0.00
    6   29    3     -0.32      0.00
    1   30    3      0.92      0.00
    3   30    3      3.05      0.00
    5   30    3      0.43      0.00
    0    0    4   -286.87      0.00
    2    0    4   -134.17      0.00
    4    0    4     49.82      0.00
    6    0    4     34.70      0.00
    8    0    4    -16.17      0.00
   10    0    4     14.19      0.00
   12    0    4    -14.42      0.00
   14    0    4     -0.40      0.00
   16    0    4     -3.50      0.00
   18    0    4     -5.50      0.00
   20    0    4     -0.87      0.00
    1    1    4    159.92      0.00
    3    1    4    -72.90      0.00
    5    1    4    129.33      0.00
    7    1    4    -14.92      0.00
    9    1    4     24.66      0.00
   11    1    4      5.81      0.00
   13    1    4      1.04      0.00
   15    1    4      7.93      0.00
   17    1    4     -9.42      0.00
   19    1    4      7.83      0.00
   21    1    4      3.42      0.00
    0    2    4    364.95      0.00
    2    2    4    100.87      0.00
    4    2    4     83.70      0.00
    6    2    4     17.11      0.00
    8    2    4    -24.74      0.00
   10    2    4     24.30      0.00
   12    2    4     -0.38      0.00
   14    2    4      6.06      0.00
   16    2    4      2.56      0.00
   18    2    4      4.38      0.00
   20    2    4      6.44      0.00
    3    3    4   -121.42      0.00
    5    3    4     37.92      0.00
    7    3    4    -17.61      0.00
    9    3    4     -1.84      0.00
   11    3    4     -7.65      0.00
   13    3    4      0.35      0.00
   15    3    4      3.51      0.00
   17    3    4     -1.20      0.00
   19    3    4      3.30      0.00
   21    3    4      3.97      0.00
    0    4    4     14.07      0.00
    2    4    4   -175.84      0.00
    4    4    4    -33.49      0.00
    6    4    4     -2.39      0.00
    8    4    4    -19.90      0.00
   10    4    4      8.03      0.00
   12    4    4     -6.09      0.00
   14    4    4     -3.56      0.00
   16    4    4     -3.52      0.00
   18    4    4     -3.40      0.00
   20    4    4     -1.97      0.00
    1    5    4     -1.05      0.00
    3    5    4     -5.86      0.00
    5    5    4      5.09      0.00
    7    5    4    -36.49      0.00
    9    5    4      8.26      0.00
   11    5    4      0.02      0.00
   13    5    4      2.35      0.00
   15    5    4      1.99      0.00
   17    5    4     -0.98      0.00
   19    5    4      0.98      0.00
   21    5    4     -1.17      0.00
    0    6    4    -63.03      0.00
    2    6    4     61.01      0.00
    4    6    4     28.53      0.00
    6    6    4     -3.75      0.00
    8    6    4      9.20      0.00
   10    6    4      4.92      0.00
   12    6    4     -0.04      0.00
   14    6    4     -3.52      0.00
   16    6    4     -6.16      0.00
   18    6    4     -4.79      0.00
   20    6    4     -4.32      0.00
    1    7    4    -10.26      0.00
    3    7    4     16.13      0.00
    5    7    4     15.24      0.00
    7    7    4    -14.73      0.00
    9    7    4     10.96      0.00
   11    7    4     -8.41      0.00
   13    7    4     -5.74      0.00
   15    7    4     -0.84      0.00
   17    7    4      0.17      0.00
   19    7    4     -0.68      0.00
   21    7    4     -2.37      0.00
    0    8    4    -56.59      0.00
    2    8    4     41.76      0.00
    4    8    4    -14.23      0.00
    6    8    4      8.56      0.00
    8    8    4     12.20      0.00
   10    8    4    -10.40      0.00
   12    8    4      1.37      0.00
   14    8    4      3.77      0.00
   16    8    4      0.27      0.00
   18    8    4      0.46      0.00
   20    8    4     -1.85      0.00
    1    9    4    -18.23      0.00
    3    9    4      7.10      0.00
    5    9    4     -5.53      0.00
    7    9    4      6.48      0.00
    9    9    4      6.26      0.00
   11    9    4      0.08      0.00
   13    9    4      6.79      0.00
   15    9    4      0.87      0.00
   17    9    4     -1.88      0.00
   19    9    4      2.20      0.00
    0   10    4      1.36      0.00
    2   10    4     21.44      0.00
    4   10    4     -8.03      0.00
    6   10    4     -3.29      0.00
    8   10    4     -2.58      0.00
   10   10    4     -0.81      0.00
   12   10    4      3.58      0.00
   14   10    4      0.17      0.00
   16   10    4     -2.54      0.00
   18   10    4     -4.67      0.00
   20   10    4     -4.53      0.00
    1   11    4    -13.79      0.00
    3   11    4     15.03      0.00
    5   11    4     -9.54      0.00
    7   11    4     -8.03      0.00
    9   11    4      2.38      0.00
   11   11    4     -0.63      0.00
   13   11    4      4.72      0.00
   15   11    4     -0.66      0.00
   17   11    4     -4.18      0.00
   19   11    4      1.54      0.00
    0   12    4    -25.52      0.00
    2   12    4     16.54      0.00
    4   12    4      3.34      0.00
    6   12    4    -12.19      0.00
    8   12    4      2.04      0.00
   10   12    4     -2.87      0.00
   12   12    4     -2.94      0.00
   14   12    4      0.46      0.00
   16   12    4     -0.72      0.00
   18   12    4      3.31      0.00
   20   12    4     -3.25      0.00
    1   13    4      5.43      0.00
    3   13    4      1.66      0.00
    5   13    4     -2.45      0.00
    7   13    4     -2.67      0.00
    9   13    4      0.63      0.00
   11   13    4     -8.74      0.00
   13   13    4      0.49      0.00
   15   13    4      1.20      0.00
   17   13    4     -0.22      0.00
   19   13    4      0.06      0.00
    0   14    4      2.06      0.00
    2   14    4     -1.81      0.00
    4   14    4      2.39      0.00
    6   14    4     -5.94      0.00
    8   14    4      2.89      0.00
   10   14    4     -5.95      0.00
   12   14    4     -2.80      0.00
   14   14    4      1.14      0.00
   16   14    4     -1.63      0.00
   18   14    4     -0.05      0.00
    1   15    4      6.33      0.00
    3   15    4     -5.13      0.00
    5   15    4      2.71      0.00
    7   15    4      2.43      0.00
    9   15    4     -0.83      0.00
   11   15    4     -2.65      0.00
   13   15    4     -1.64      0.00
   15   15    4     -4.73      0.00
   17   15    4     -1.91      0.00
   19   15    4      1.40      0.00
    0   16    4      9.78      0.00
    2   16    4    -13.13      0.00
    4   16    4      3.96      0.00
    6   16    4     -2.49      0.00
    8   16    4     -1.14      0.00
   10   16    4      1.96      0.00
   12   16    4      2.04      0.00
   14   16    4     -0.50      0.00
   16   16    4      2.72      0.00
   18   16    4     -0.70      0.00
    1   17    4     -1.37      0.00
    3   17    4     -7.40      0.00
    5   17    4      1.11      0.00
    7   17    4     -0.73      0.00
    9   17    4      3.12      0.00
   11   17    4      1.96      0.00
   13   17    4      2.40      0.00
   15   17    4      1.06      0.00
   17   17    4      4.46      0.00
    0   18    4     14.49      0.00
    2   18    4     -5.98      0.00
    4   18    4      0.36      0.00
    6   18    4      0.50      0.00
    8   18    4     -2.46      0.00
   10   18    4      1.19      0.00
   12   18    4      2.64      0.00
   14   18    4     -7.72      0.00
   16   18    4      0.53      0.00
    1   19    4      5.96      0.00
    3   19    4     -3.31      0.00
    5   19    4      5.12      0.00
    7   19    4      0.53      0.00
    9   19    4      1.83      0.00
   11   19    4      1.43      0.00
   13   19    4      0.61      0.00
   15   19    4     -0.88      0.00
   17   19    4      2.65      0.00
    0   20    4      4.47      0.00
    2   20    4     -7.82      0.00
    4   20    4      0.11      0.00
    6   20    4      7.23      0.00
    8   20    4     -0.41      0.00
   10   20    4     -0.18      0.00
   12   20    4     -2.01      0.00
   14   20    4     -5.17      0.00
   16   20    4      2.80      0.00
    1   21    4      2.08      0.00
    3   21    4     -1.22      0.00
    5   21    4      1.85      0.00
    7   21    4     -3.25      0.00
    9   21    4      0.07      0.00
   11   21    4      4.86      0.00
   13   21    4     -0.73      0.00
   15   21    4     -0.22      0.00
    0   22    4      0.83      0.00
    2   22    4      2.61      0.00
    4   22    4     -0.38      0.00
    6   22    4     -3.39      0.00
    8   22    4     -3.89      0.00
   10   22    4      2.40      0.00
   12   22    4     -0.58      0.00
   14   22    4     -1.91      0.00
    1   23    4     -5.04      0.00
    3   23    4      3.37      0.00
    5   23    4      0.85      0.00
    7   23    4     -0.66      0.00
    9   23    4     -2.83      0.00
   11   23    4      3.06      0.00
   13   23    4      0.72      0.00
    0   24    4     -5.21      0.00
    2   24    4      1.83      0.00
    4   24    4     -0.81      0.00
    6   24    4      2.29      0.00
    8   24    4     -2.00      0.00
   10   24    4     -4.65      0.00
   12   24    4     -0.05      0.00
    1   25    4     -1.23      0.00
    3   25    4      3.04      0.00
    5   25    4     -5.74      0.00
    7   25    4     -2.52      0.00
    9   25    4     -3.28      0.00
   11   25    4      0.93      0.00
    0   26    4     -3.07      0.00
    2   26    4      0.63      0.00
    4   26    4     -1.87      0.00
    6   26    4      0.80      0.00
    8   26    4     -6.77      0.00
   10   26    4     -3.87      0.00
    1   27    4     -0.80      0.00
    3   27    4      5.71      0.00
    5   27    4     -4.66      0.00
    7   27    4      0.90      0.00
    9   27    4      1.40      0.00
    0   28    4     -3.56      0.00
    2   28    4      2.90      0.00
    4   28    4     -0.46      0.00
    6   28    4      1.10      0.00
    8   28    4     -1.00      0.00
    1   29    4     -1.96      0.00
    3   29    4     -1.45      0.00
    5   29    4     -4.00      0.00
    7   29    4      2.85      0.00
    0   30    4     -3.30      0.00
    2   30    4      0.07      0.00
    4   30    4     -2.23      0.00
    1    0    5    -19.95      0.00
    3    0    5    -38.79      0.00
    5    0    5    -46.09      0.00
    7    0    5     40.55      0.00
    9    0    5    -16.87      0.00
   11    0    5      0.06      0.00
   13    0    5     -4.30      0.00
   15    0    5     -7.37      0.00
   17    0    5     37.83      0.00
   19    0    5      5.39      0.00
   21    0    5      0.75      0.00
    0    1    5     -7.16      0.00
    2    1    5    -51.39      0.00
    4    1    5    -84.18      0.00
    6    1    5     -8.20      0.00
    8    1    5    -24.63      0.00
   10    1    5     -4.92      0.00
   12    1    5     -4.14      0.00
   14    1    5     -4.31      0.00
   16    1    5     -2.47      0.00
   18    1    5     -3.38      0.00
   20    1    5     -2.19      0.00
    1    2    5     78.16      0.00
    3    2    5      4.80      0.00
    5    2    5    -38.31      0.00
    7    2    5      3.73      0.00
    9    2    5    -15.99      0.00
   11    2    5      2.74      0.00
   13    2    5     -2.14      0.00
   15    2    5    -10.78      0.00
   17    2    5      6.62      0.00
   19    2    5     -5.53      0.00
   21    2    5     -1.83      0.00
    0    3    5   -287.19      0.00
    2    3    5     32.42      0.00
    4    3    5     -9.75      0.00
    6    3    5     15.17      0.00
    8    3    5      1.42      0.00
   10    3    5      4.15      0.00
   12    3    5      2.09      0.00
   14    3    5     -1.94      0.00
   16    3    5      1.84      0.00
   18    3    5     -7.50      0.00
   20    3    5    -10.27      0.00
    1    4    5     32.78      0.00
    3    4    5    -45.42      0.00
    5    4    5    -18.89      0.00
    7    4    5     -8.62      0.00
    9    4    5     -3.25      0.00
   11    4    5      2.70      0.00
   13    4    5     -4.90      0.00
   15    4    5     -0.17      0.00
   17    4    5      2.88      0.00
   19    4    5      3.20      0.00
   21    4    5      2.35      0.00
    0    5    5      0.57      0.00
    2    5    5     62.71      0.00
    4    5    5    -26.83      0.00
    6    5    5     -7.61      0.00
    8    5    5     -9.16      0.00
   10    5    5     -5.99      0.00
   12    5    5      1.43      0.00
   14    5    5      0.09      0.00
   16    5    5      1.79      0.00
   18    5    5     -1.48      0.00
   20    5    5     -4.08      0.00
    1    6    5    -27.74      0.00
    3    6    5    -54.07      0.00
    5    6    5     15.84      0.00
    7    6    5      9.97      0.00
    9    6    5      0.04      0.00
   11    6    5      0.16      0.00
   13    6    5     -6.28      0.00
   15    6    5      0.47      0.00
   17    6    5     -0.78      0.00
   19    6    5     -1.07      0.00
   21    6    5      2.63      0.00
    0    7    5     67.73      0.00
    2    7    5      7.06      0.00
    4    7    5     20.86      0.00
    6    7    5      7.16      0.00
    8    7    5     -0.73      0.00
   10    7    5     -2.45      0.00
   12    7    5      1.57      0.00
   14    7    5     -2.04      0.00
   16    7    5     -0.33      0.00
   18    7    5      0.66      0.00
   20    7    5      6.23      0.00
    1    8    5      4.93      0.00
    3    8    5     23.27      0.00
    5    8    5     23.46      0.00
    7    8    5    -12.40      0.00
    9    8    5      5.38      0.00
   11    8    5      3.08      0.00
   13    8    5     -3.64      0.00
   15    8    5      1.38      0.00
   17    8    5      3.90      0.00
   19    8    5      3.95      0.00
   21    8    5      3.22      0.00
    0    9    5    -18.20      0.00
    2    9    5      6.85      0.00
    4    9    5     14.07      0.00
    6    9    5    -11.78      0.00
    8    9    5     18.47      0.00
   10    9    5      3.41      0.00
   12    9    5     -3.18      0.00
   14    9    5     -2.43      0.00
   16    9    5     -1.46      0.00
   18    9    5      1.78      0.00
   20    9    5      1.67      0.00
    1   10    5      0.84      0.00
    3   10    5     14.60      0.00
    5   10    5      9.21      0.00
    7   10    5     -8.76      0.00
    9   10    5      8.53      0.00
   11   10    5     -2.67      0.00
   13   10    5     -1.79      0.00
   15   10    5     -0.81      0.00
   17   10    5      3.41      0.00
   19   10    5      2.48      0.00
    0   11    5    -11.69      0.00
    2   11    5     -7.74      0.00
    4   11    5      0.52      0.00
    6   11    5     -1.66      0.00
    8   11    5      8.04      0.00
   10   11    5     -8.84      0.00
   12   11    5      1.92      0.00
   14   11    5      0.22      0.00
   16   11    5      1.92      0.00
   18   11    5      3.25      0.00
   20   11    5      1.00      0.00
    1   12    5      3.64      0.00
    3   12    5      7.44      0.00
    5   12    5      7.00      0.00
    7   12    5      7.39      0.00
    9   12    5      4.49      0.00
   11   12    5      1.10      0.00
   13   12    5     -0.19      0.00
   15   12    5     -1.40      0.00
   17   12    5     -1.28      0.00
   19   12    5      2.07      0.00
    0   13    5      9.54      0.00
    2   13    5      5.57      0.00
    4   13    5      9.99      0.00
    6   13    5      2.25      0.00
    8   13    5     -0.28      0.00
   10   13    5      2.53      0.00
   12   13    5      9.40      0.00
   14   13    5     -4.98      0.00
   16   13    5      0.47      0.00
   18   13    5     -2.59      0.00
    1   14    5     -2.71      0.00
    3   14    5      5.91      0.00
    5   14    5     -3.52      0.00
    7   14    5     -2.02      0.00
    9   14    5      2.73      0.00
   11   14    5      5.06      0.00
   13   14    5      1.22      0.00
   15   14    5      4.30      0.00
   17   14    5      2.82      0.00
   19   14    5      4.02      0.00
    0   15    5     -8.01      0.00
    2   15    5      1.63      0.00
    4   15    5      1.59      0.00
    6   15    5     -1.24      0.00
    8   15    5      0.00      0.00
   10   15    5     -0.69      0.00
   12   15    5      3.84      0.00
   14   15    5     -1.82      0.00
   16   15    5     -0.72      0.00
   18   15    5      0.89      0.00
    1   16    5     -0.46      0.00
    3   16    5      1.85      0.00
    5   16    5     -4.24      0.00
    7   16    5      0.49      0.00
    9   16    5     -2.25      0.00
   11   16    5      0.69      0.00
   13   16    5     -0.89      0.00
   15   16    5      1.75      0.00
   17   16    5      1.48      0.00
    0   17    5     -0.32      0.00
    2   17    5     -4.06      0.00
    4   17    5     -2.63      0.00
    6   17    5     -1.27      0.00
    8   17    5     -2.05      0.00
   10   17    5     -4.14      0.00
   12   17    5      0.85      0.00
   14   17    5      2.09      0.00
   16   17    5     -6.14      0.00
   18   17    5     -1.09      0.00
    1   18    5     -1.39      0.00
    3   18    5     -0.01      0.00
    5   18    5     -4.28      0.00
    7   18    5      1.19      0.00
    9   18    5     -3.95      0.00
   11   18    5     -0.53      0.00
   13   18    5     -3.53      0.00
   15   18    5     -0.01      0.00
   17   18    5     -1.97      0.00
    0   19    5      2.05      0.00
    2   19    5      0.10      0.00
    4   19    5      2.08      0.00
    6   19    5      0.05      0.00
    8   19    5     -4.06      0.00
   10   19    5      0.47      0.00
   12   19    5      0.48      0.00
   14   19    5      6.62      0.00
   16   19    5     -5.12      0.00
    1   20    5     -1.41      0.00
    3   20    5      3.77      0.00
    5   20    5      2.02      0.00
    7   20    5      1.69      0.00
    9   20    5      0.75      0.00
   11   20    5      0.37      0.00
   13   20    5     -0.14      0.00
   15   20    5      0.88      0.00
    0   21    5      5.07      0.00
    2   21    5     -0.64      0.00
    4   21    5     -0.18      0.00
    6   21    5      2.73      0.00
    8   21    5     -2.13      0.00
   10   21    5      2.76      0.00
   12   21    5      0.56      0.00
   14   21    5      2.87      0.00
    1   22    5      3.77      0.00
    3   22    5     -2.15      0.00
    5   22    5      1.52      0.00
    7   22    5     -1.22      0.00
    9   22    5      1.92      0.00
   11   22    5      0.64      0.00
   13   22    5      1.49      0.00
   15   22    5      1.49      0.00
    0   23    5      8.31      0.00
    2   23    5     -1.91      0.00
    4   23    5      3.89      0.00
    6   23    5      2.64      0.00
    8   23    5     -2.68      0.00
   10   23    5      4.21      0.00
   12   23    5     -2.58      0.00
   14   23    5      1.39      0.00
    1   24    5      2.66      0.00
    3   24    5     -1.09      0.00
    5   24    5      2.01      0.00
    7   24    5     -2.55      0.00
    9   24    5      3.00      0.00
   11   24    5     -0.29      0.00
   13   24    5     -4.51      0.00
    0   25    5      5.33      0.00
    2   25    5     -0.77      0.00
    4   25    5      1.25      0.00
    6   25    5     -2.05      0.00
    8   25    5     -3.22      0.00
   10   25    5      3.17      0.00
   12   25    5     -1.99      0.00
    1   26    5      0.51      0.00
    3   26    5     -2.03      0.00
    5   26    5      3.03      0.00
    7   26    5      2.40      0.00
    9   26    5      0.50      0.00
   11   26    5      1.33      0.00
    0   27    5      5.48      0.00
    2   27    5     -1.51      0.00
    4   27    5     -4.08      0.00
    6   27    5      0.61      0.00
    8   27    5      0.40      0.00
   10   27    5     -3.45      0.00
    1   28    5     -0.78      0.00
    3   28    5     -1.88      0.00
    5   28    5      5.37      0.00
    7   28    5      0.42      0.00
    0   29    5      2.09      0.00
    2   29    5     -4.14      0.00
    4   29    5     -2.65      0.00
    6   29    5     -3.18      0.00
    1   30    5     -1.39      0.00
    3   30    5     -0.50      0.00
    0    0    6   -171.88      0.00
    2    0    6     96.28      0.00
    4    0    6     23.06      0.00
    6    0    6    -51.09      0.00
    8    0    6      4.25      0.00
   10    0    6    -14.20      0.00
   12    0    6     13.81      0.00
   14    0    6     -4.02      0.00
   16    0    6     -3.78      0.00
   18    0    6     -5.91      0.00
   20    0    6    -12.50      0.00
    1    1    6    -43.50      0.00
    3    1    6     20.80      0.00
    5    1    6    -32.85      0.00
    7    1    6     17.38      0.00
    9    1    6     -4.27      0.00
   11    1    6      2.93      0.00
   13    1    6      5.61      0.00
   15    1    6      4.10      0.00
   17    1    6     -8.19      0.00
   19    1    6     -1.42      0.00
   21    1    6      8.45      0.00
    0    2    6   -128.08      0.00
    2    2    6    -13.83      0.00
    4    2    6     11.49      0.00
    6    2    6    -17.07      0.00
    8    2    6     19.95      0.00
   10    2    6    -14.53      0.00
   12    2    6      4.49      0.00
   14    2    6     -4.35      0.00
   16    2    6     -0.52      0.00
   18    2    6      4.31      0.00
   20    2    6     -1.39      0.00
    1    3    6      5.94      0.00
    3    3    6    -14.17      0.00
    5    3    6    -25.78      0.00
    7    3    6     11.12      0.00
    9    3    6    -17.08      0.00
   11    3    6     -0.65      0.00
   13    3    6     -0.28      0.00
   15    3    6     -0.14      0.00
   17    3    6      5.37      0.00
   19    3    6      2.17      0.00
   21    3    6      3.71      0.00
    0    4    6     48.73      0.00
    2    4    6     21.42      0.00
    4    4    6     38.50      0.00
    6    4    6     -2.90      0.00
    8    4    6      9.39      0.00
   10    4    6    -13.42      0.00
   12    4    6      3.73      0.00
   14    4    6     -0.36      0.00
   16    4    6     -0.67      0.00
   18    4    6     -1.28      0.00
   20    4    6      3.59      0.00
    1    5    6     10.41      0.00
    3    5    6     36.65      0.00
    5    5    6      8.97      0.00
    7    5    6     30.79      0.00
    9    5    6      0.80      0.00
   11    5    6      6.62      0.00
   13    5    6      0.32      0.00
   15    5    6      0.67      0.00
   17    5    6      3.12      0.00
   19    5    6      3.30      0.00
   21    5    6      0.88      0.00
    0    6    6    -11.83      0.00
    2    6    6      8.09      0.00
    4    6    6     -8.82      0.00
    6    6    6     -1.65      0.00
    8    6    6      4.38      0.00
   10    6    6      0.70      0.00
   12    6    6      6.03      0.00
   14    6    6     -0.92      0.00
   16    6    6      2.10      0.00
   18    6    6      0.41      0.00
   20    6    6      0.03      0.00
    1    7    6      4.06      0.00
    3    7    6     -8.74      0.00
    5    7    6    -26.51      0.00
    7    7    6     -2.63      0.00
    9    7    6    -11.89      0.00
   11    7    6     -1.07      0.00
   13    7    6      1.87      0.00
   15    7    6      4.35      0.00
   17    7    6     -3.18      0.00
   19    7    6      2.12      0.00
   21    7    6      3.58      0.00
    0    8    6      2.71      0.00
    2    8    6     -9.26      0.00
    4    8    6    -41.49      0.00
    6    8    6      5.80      0.00
    8    8    6     -9.16      0.00
   10    8    6     -3.99      0.00
   12    8    6      3.55      0.00
   14    8    6     -2.02      0.00
   16    8    6     -0.12      0.00
   18    8    6     -1.85      0.00
   20    8    6     -6.50      0.00
    1    9    6    -11.25      0.00
    3    9    6    -45.25      0.00
    5    9    6     -4.55      0.00
    7    9    6      2.51      0.00
    9    9    6    -12.99      0.00
   11    9    6      0.12      0.00
   13    9    6     -4.45      0.00
   15    9    6      1.40      0.00
   17    9    6     -2.93      0.00
   19    9    6     -1.24      0.00
    0   10    6     20.04      0.00
    2   10    6     18.25      0.00
    4   10    6     -6.05      0.00
    6   10    6     18.41      0.00
    8   10    6     -5.93      0.00
   10   10    6      0.58      0.00
   12   10    6      2.75      0.00
   14   10    6     -1.54      0.00
   16   10    6     -0.43      0.00
   18   10    6     -1.98      0.00
   20   10    6      2.76      0.00
    1   11    6     11.95      0.00
    3   11    6     -8.53      0.00
    5   11    6      5.73      0.00
    7   11    6     -0.47      0.00
    9   11    6     -1.39      0.00
   11   11    6      5.88      0.00
   13   11    6     -1.29      0.00
   15   11    6      1.50      0.00
   17   11    6     -0.55      0.00
   19   11    6     -3.40      0.00
    0   12    6     -3.69      0.00
    2   12    6      3.73      0.00
    4   12    6    -14.13      0.00
    6   12    6      3.31      0.00
    8   12    6     -7.38      0.00
   10   12    6      1.07      0.00
   12   12    6     -2.44      0.00
   14   12    6      2.59      0.00
   16   12    6     -0.60      0.00
   18   12    6     -0.27      0.00
    1   13    6      1.18      0.00
    3   13    6     -1.85      0.00
    5   13    6     -1.16      0.00
    7   13    6      1.51      0.00
    9   13    6      2.12      0.00
   11   13    6     -1.90      0.00
   13   13    6      7.00      0.00
   15   13    6      3.81      0.00
   17   13    6      3.01      0.00
   19   13    6     -1.20      0.00
    0   14    6     -4.91      0.00
    2   14    6     -2.24      0.00
    4   14    6     -8.37      0.00
    6   14    6     10.71      0.00
    8   14    6     -1.33      0.00
   10   14    6      1.83      0.00
   12   14    6     -0.45      0.00
   14   14    6      3.47      0.00
   16   14    6      1.89      0.00
   18   14    6     -1.10      0.00
    1   15    6     -3.35      0.00
    3   15    6      3.56      0.00
    5   15    6      2.67      0.00
    7   15    6      3.59      0.00
    9   15    6      2.22      0.00
   11   15    6     -2.73      0.00
   13   15    6      3.11      0.00
   15   15    6     -2.08      0.00
   17   15    6     -4.01      0.00
    0   16    6     -4.56      0.00
    2   16    6      8.89      0.00
    4   16    6     -1.42      0.00
    6   16    6      6.54      0.00
    8   16    6     -4.10      0.00
   10   16    6      1.51      0.00
   12   16    6     -3.16      0.00
   14   16    6     -3.96      0.00
   16   16    6      2.40      0.00
   18   16    6     -1.73      0.00
    1   17    6     -1.99      0.00
    3   17    6      0.24      0.00
    5   17    6     -2.58      0.00
    7   17    6     -4.38      0.00
    9   17    6      2.28      0.00
   11   17    6     -1.59      0.00
   13   17    6      0.57      0.00
   15   17    6      1.43      0.00
   17   17    6     -2.79      0.00
    0   18    6     -5.76      0.00
    2   18    6      4.64      0.00
    4   18    6      0.62      0.00
    6   18    6      1.99      0.00
    8   18    6     -2.04      0.00
   10   18    6     -1.70      0.00
   12   18    6     -2.35      0.00
   14   18    6     -2.19      0.00
   16   18    6      3.75      0.00
    1   19    6     -0.61      0.00
    3   19    6      1.14      0.00
    5   19    6      1.35      0.00
    7   19    6      0.45      0.00
    9   19    6      3.68      0.00
   11   19    6      1.15      0.00
   13   19    6      0.48      0.00
   15   19    6      0.23      0.00
   17   19    6     -0.15      0.00
    0   20    6     -1.62      0.00
    2   20    6     -4.09      0.00
    4   20    6     -2.69      0.00
    6   20    6     -6.58      0.00
    8   20    6      2.16      0.00
   10   20    6     -1.64      0.00
   12   20    6     -3.44      0.00
   14   20    6     -3.89      0.00
   16   20    6      3.51      0.00
    1   21    6     -1.59      0.00
    3   21    6     -0.48      0.00
    5   21    6     -2.02      0.00
    7   21    6      1.78      0.00
    9   21    6      0.93      0.00
   11   21    6     -1.94      0.00
   13   21    6      2.19      0.00
   15   21    6     -0.74      0.00
    0   22    6     -0.45      0.00
    2   22    6     -2.85      0.00
    4   22    6      1.95      0.00
    6   22    6      1.25      0.00
    8   22    6      4.54      0.00
   10   22    6     -1.33      0.00
   12   22    6     -0.72      0.00
   14   22    6      1.70      0.00
    1   23    6      0.93      0.00
    3   23    6      0.59      0.00
    5   23    6     -0.48      0.00
    7   23    6      2.08      0.00
    9   23    6      0.90      0.00
   11   23    6      0.27      0.00
   13   23    6      7.30      0.00
    0   24    6      2.22      0.00
    2   24    6     -2.41      0.00
    4   24    6     -3.71      0.00
    6   24    6      3.64      0.00
    8   24    6      3.09      0.00
   10   24    6     -2.43      0.00
   12   24    6     -0.82      0.00
    1   25    6     -0.50      0.00
    3   25    6     -5.23      0.00
    5   25    6      2.41      0.00
    7   25    6      4.10      0.00
    9   25    6      2.53      0.00
   11   25    6     -1.12      0.00
    0   26    6      1.61      0.00
    2   26    6     -1.34      0.00
    4   26    6      3.01      0.00
    6   26    6      0.12      0.00
    8   26    6     -0.20      0.00
   10   26    6      0.94      0.00
    1   27    6     -0.25      0.00
    3   27    6      2.06      0.00
    5   27    6      1.38      0.00
    7   27    6     -2.14      0.00
    9   27    6      3.91      0.00
    0   28    6     -0.16      0.00
    2   28    6     -0.83      0.00
    4   28    6      4.70      0.00
    6   28    6      3.17      0.00
    8   28    6     -0.62      0.00
    1   29    6      7.19      0.00
    3   29    6      4.98      0.00
    5   29    6     -0.77      0.00
    0   30    6      1.89      0.00
    2   30    6      0.88      0.00
    4   30    6     -2.02      0.00
    1    0    7    -43.79      0.00
    3    0    7      7.98      0.00
    5    0    7     58.98      0.00
    7    0    7    -15.84      0.00
    9    0    7     28.56      0.00
   11    0    7      0.71      0.00
   13    0    7     -1.87      0.00
   15    0    7      9.03      0.00
   17    0    7      1.70      0.00
   19    0    7     11.73      0.00
   21    0    7      1.62      0.00
    0    1    7     68.03      0.00
    2    1    7     24.64      0.00
    4    1    7     26.74      0.00
    6    1    7    -13.26      0.00
    8    1    7     19.55      0.00
   10    1    7     -1.24      0.00
   12    1    7      2.73      0.00
   14    1    7      3.05      0.00
   16    1    7      2.01      0.00
   18    1    7     -5.72      0.00
   20    1    7     -4.37      0.00
    1    2    7     27.25      0.00
    3    2    7     52.20      0.00
    5    2    7     19.04      0.00
    7    2    7    -12.87      0.00
    9    2    7      9.29      0.00
   11    2    7     -5.26      0.00
   13    2    7     -0.60      0.00
   15    2    7      3.65      0.00
   17    2    7     -2.79      0.00
   19    2    7      4.23      0.00
   21    2    7      1.08      0.00
    0    3    7     -6.29      0.00
    2    3    7    -16.53      0.00
    4    3    7     22.47      0.00
    6    3    7     -3.85      0.00
    8    3    7      7.87      0.00
   10    3    7      1.94      0.00
   12    3    7     -3.92      0.00
   14    3    7      2.78      0.00
   16    3    7     -2.15      0.00
   18    3    7     -4.72      0.00
   20    3    7     -5.15      0.00
    1    4    7    133.42      0.00
    3    4    7     52.66      0.00
    5    4    7     -9.26      0.00
    7    4    7      6.39      0.00
    9    4    7     15.31      0.00
   11    4    7     -0.03      0.00
   13    4    7     -0.57      0.00
   15    4    7     -3.18      0.00
   17    4    7     -1.76      0.00
   19    4    7     -0.40      0.00
   21    4    7      3.14      0.00
    0    5    7    -32.85      0.00
    2    5    7      2.32      0.00
    4    5    7     41.98      0.00
    6    5    7     -3.12      0.00
    8    5    7     -5.53      0.00
   10    5    7      3.79      0.00
   12    5    7      0.74      0.00
   14    5    7      7.16      0.00
   16    5    7     -1.02      0.00
   18    5    7      6.46      0.00
   20    5    7      3.04      0.00
    1    6    7    -33.92      0.00
    3    6    7    -53.18      0.00
    5    6    7     15.95      0.00
    7    6    7      5.64      0.00
    9    6    7      5.06      0.00
   11    6    7      0.19      0.00
   13    6    7      1.71      0.00
   15    6    7     -0.65      0.00
   17    6    7      4.52      0.00
   19    6    7      2.16      0.00
   21    6    7      2.03      0.00
    0    7    7     12.52      0.00
    2    7    7     14.17      0.00
    4    7    7     15.61      0.00
    6    7    7     -6.99      0.00
    8    7    7      2.77      0.00
   10    7    7      3.95      0.00
   12    7    7     -2.50      0.00
   14    7    7      1.02      0.00
   16    7    7     -3.13      0.00
   18    7    7     -3.77      0.00
   20    7    7     -2.61      0.00
    1    8    7      0.58      0.00
    3    8    7     -9.00      0.00
    5    8    7      6.59      0.00
    7    8    7     -4.64      0.00
    9    8    7     -2.47      0.00
   11    8    7      1.68      0.00
   13    8    7      2.59      0.00
   15    8    7     -1.02      0.00
   17    8    7      1.13      0.00
   19    8    7     -2.26      0.00
    0    9    7     21.28      0.00
    2    9    7    -26.43      0.00
    4    9    7     -3.13      0.00
    6    9    7      0.97      0.00
    8    9    7     -6.57      0.00
   10    9    7      5.14      0.00
   12    9    7     -0.68      0.00
   14    9    7      1.66      0.00
   16    9    7     -0.19      0.00
   18    9    7     -1.84      0.00
   20    9    7      1.38      0.00
    1   10    7      2.29      0.00
    3   10    7      2.22      0.00
    5   10    7      2.98      0.00
    7   10    7     -0.87      0.00
    9   10    7     -3.59      0.00
   11   10    7     -1.18      0.00
   13   10    7      0.02      0.00
   15   10    7     -1.70      0.00
   17   10    7     -0.05      0.00
   19   10    7      0.16      0.00
    0   11    7     11.58      0.00
    2   11    7    -19.70      0.00
    4   11    7     -9.44      0.00
    6   11    7      2.50      0.00
    8   11    7     -3.75      0.00
   10   11    7      4.10      0.00
   12   11    7     -0.75      0.00
   14   11    7     -0.59      0.00
   16   11    7     -0.72      0.00
   18   11    7     -2.81      0.00
   20   11    7     -3.61      0.00
    1   12    7     -9.22      0.00
    3   12    7     -7.15      0.00
    5   12    7      6.01      0.00
    7   12    7     -6.63      0.00
    9   12    7     -2.37      0.00
   11   12    7      1.87      0.00
   13   12    7     -6.69      0.00
   15   12    7      0.06      0.00
   17   12    7      1.01      0.00
   19   12    7      2.32      0.00
    0   13    7     -0.95      0.00
    2   13    7      2.59      0.00
    4   13    7    -10.53      0.00
    6   13    7      2.04      0.00
    8   13    7     -4.79      0.00
   10   13    7     -4.73      0.00
   12   13    7     -3.09      0.00
   14   13    7     -3.77      0.00
   16   13    7     -0.25      0.00
   18   13    7     -0.69      0.00
    1   14    7      0.78      0.00
    3   14    7     -3.52      0.00
    5   14    7      0.96      0.00
    7   14    7     -9.01      0.00
    9   14    7      0.17      0.00
   11   14    7      1.67      0.00
   13   14    7     -6.79      0.00
   15   14    7     -0.18      0.00
   17   14    7      0.87      0.00
   19   14    7     -0.25      0.00
    0   15    7      2.45      0.00
    2   15    7     -1.83      0.00
    4   15    7     -6.15      0.00
    6   15    7      2.40      0.00
    8   15    7      0.63      0.00
   10   15    7      0.51      0.00
   12   15    7     -2.38      0.00
   14   15    7     -3.21      0.00
   16   15    7     -1.36      0.00
   18   15    7     -1.36      0.00
    1   16    7      3.85      0.00
    3   16    7      0.21      0.00
    5   16    7     -2.12      0.00
    7   16    7     -2.60      0.00
    9   16    7      4.72      0.00
   11   16    7      0.99      0.00
   13   16    7      2.78      0.00
   15   16    7     -1.40      0.00
   17   16    7     -1.17      0.00
    0   17    7     -3.42      0.00
    2   17    7     -0.31      0.00
    4   17    7      2.06      0.00
    6   17    7     -1.36      0.00
    8   17    7      4.89      0.00
   10   17    7     -0.84      0.00
   12   17    7     -1.31      0.00
   14   17    7      1.53      0.00
   16   17    7      3.05      0.00
    1   18    7     -0.30      0.00
    3   18    7      4.68      0.00
    5   18    7      0.16      0.00
    7   18    7      3.31      0.00
    9   18    7      1.43      0.00
   11   18    7     -4.75      0.00
   13   18    7      3.37      0.00
   15   18    7     -2.58      0.00
   17   18    7      2.11      0.00
    0   19    7     -1.53      0.00
    2   19    7      7.24      0.00
    4   19    7      0.90      0.00
    6   19    7     -3.29      0.00
    8   19    7     -1.22      0.00
   10   19    7     -2.05      0.00
   12   19    7      3.11      0.00
   14   19    7      4.22      0.00
   16   19    7      2.31      0.00
    1   20    7     -2.24      0.00
    3   20    7     -0.49      0.00
    5   20    7     -6.52      0.00
    7   20    7      0.40      0.00
    9   20    7     -1.17      0.00
   11   20    7     -2.10      0.00
   13   20    7      4.59      0.00
   15   20    7     -2.40      0.00
    0   21    7     -4.32      0.00
    2   21    7      2.76      0.00
    4   21    7     -4.45      0.00
    6   21    7     -0.07      0.00
    8   21    7      1.04      0.00
   10   21    7     -0.74      0.00
   12   21    7     -0.14      0.00
   14   21    7      1.01      0.00
    1   22    7     -2.45      0.00
    3   22    7      3.36      0.00
    5   22    7      0.05      0.00
    7   22    7      3.22      0.00
    9   22    7     -3.06      0.00
   11   22    7     -0.97      0.00
   13   22    7     -4.25      0.00
    0   23    7     -4.64      0.00
    2   23    7      4.09      0.00
    4   23    7     -1.13      0.00
    6   23    7     -4.58      0.00
    8   23    7     -0.16      0.00
   10   23    7     -4.33      0.00
   12   23    7      0.36      0.00
   14   23    7     -2.17      0.00
    1   24    7      1.11      0.00
    3   24    7     -0.89      0.00
    5   24    7     -6.49      0.00
    7   24    7     -2.18      0.00
    9   24    7     -5.04      0.00
   11   24    7      0.88      0.00
   13   24    7     -6.69      0.00
    0   25    7     -3.52      0.00
    2   25    7      4.10      0.00
    4   25    7     -1.38      0.00
    6   25    7     -3.55      0.00
    8   25    7     -0.32      0.00
   10   25    7     -0.64      0.00
   12   25    7      5.34      0.00
    1   26    7     -0.92      0.00
    3   26    7      0.70      0.00
    5   26    7      2.61      0.00
    7   26    7      5.71      0.00
    9   26    7     -0.49      0.00
   11   26    7     -0.92      0.00
    0   27    7     -5.07      0.00
    2   27    7     -1.10      0.00
    4   27    7     -6.44      0.00
    6   27    7      3.34      0.00
    8   27    7      0.41      0.00
   10   27    7      2.79      0.00
    1   28    7      2.58      0.00
    3   28    7      0.75      0.00
    5   28    7     -3.84      0.00
    7   28    7      0.47      0.00
    0   29    7     -1.39      0.00
    2   29    7     -1.65      0.00
    4   29    7     -3.69      0.00
    6   29    7     -2.19      0.00
    1   30    7     -3.03      0.00
    3   30    7      3.41      0.00
    0    0    8    219.21      0.00
    2    0    8     42.72      0.00
    4    0    8     -4.09      0.00
    6    0    8     26.25      0.00
    8    0    8    -16.14      0.00
   10    0    8     10.25      0.00
   12    0    8     -8.46      0.00
   14    0    8      2.51      0.00
   16    0    8     -4.43      0.00
   18    0    8      6.81      0.00
   20    0    8      2.66      0.00
    1    1    8     12.00      0.00
    3    1    8    -32.21      0.00
    5    1    8    -24.51      0.00
    7    1    8      0.41      0.00
    9    1    8     -3.21      0.00
   11    1    8     -3.77      0.00
   13    1    8     -2.52      0.00
   15    1    8     -4.85      0.00
   17    1    8     -1.71      0.00
   19    1    8     -0.28      0.00
   21    1    8      1.56      0.00
    0    2    8    -94.38      0.00
    2    2    8    -66.72      0.00
    4    2    8    -15.74      0.00
    6    2    8     23.16      0.00
    8    2    8     -8.27      0.00
   10    2    8      3.26      0.00
   12    2    8     -7.17      0.00
   14    2    8      2.33      0.00
   16    2    8     -3.71      0.00
   18    2    8      1.26      0.00
   20    2    8      0.38      0.00
    1    3    8    -24.86      0.00
    3    3    8    -32.92      0.00
    5    3    8     35.94      0.00
    7    3    8     -8.11      0.00
    9    3    8     15.45      0.00
   11    3    8      6.30      0.00
   13    3    8     -2.08      0.00
   15    3    8      4.73      0.00
   17    3    8      2.08      0.00
   19    3    8      1.59      0.00
   21    3    8     -1.47      0.00
    0    4    8     19.97      0.00
    2    4    8     27.85      0.00
    4    4    8    -14.51      0.00
    6    4    8    -18.04      0.00
    8    4    8     -3.36      0.00
   10    4    8      3.75      0.00
   12    4    8      1.18      0.00
   14    4    8      1.76      0.00
   16    4    8     -2.91      0.00
   18    4    8     -5.41      0.00
   20    4    8     -0.70      0.00
    1    5    8    -70.21      0.00
    3    5    8    -33.07      0.00
    5    5    8      0.84      0.00
    7    5    8    -17.73      0.00
    9    5    8     -7.32      0.00
   11    5    8     -4.03      0.00
   13    5    8     -3.06      0.00
   15    5    8      1.84      0.00
   17    5    8     -3.33      0.00
   19    5    8     -4.49      0.00
   21    5    8      1.78      0.00
    0    6    8     20.41      0.00
    4    6    8    -15.07      0.00
    6    6    8     -7.82      0.00
    8    6    8     -2.05      0.00
   10    6    8     -1.87      0.00
   12    6    8     -5.03      0.00
   14    6    8     -0.17      0.00
   16    6    8      4.97      0.00
   18    6    8     -3.16      0.00
   20    6    8     -4.54      0.00
    1    7    8     44.29      0.00
    3    7    8     32.26      0.00
    5    7    8     -0.73      0.00
    7    7    8     -0.55      0.00
    9    7    8      7.41      0.00
   11    7    8      2.60      0.00
   13    7    8      1.43      0.00
   15    7    8     -2.04      0.00
   17    7    8     -0.53      0.00
   19    7    8      3.38      0.00
    0    8    8      5.87      0.00
    2    8    8     -3.78      0.00
    4    8    8     44.93      0.00
    6    8    8     -5.87      0.00
    8    8    8      4.59      0.00
   10    8    8      7.54      0.00
   12    8    8      1.70      0.00
   14    8    8      0.25      0.00
   16    8    8      1.74      0.00
   18    8    8     -1.27      0.00
   20    8    8     -3.28      0.00
    1    9    8     -3.88      0.00
    3    9    8      5.66      0.00
    5    9    8     10.89      0.00
    7    9    8      0.36      0.00
    9    9    8     11.57      0.00
   11    9    8     -3.59      0.00
   13    9    8     -3.23      0.00
   15    9    8      0.85      0.00
   17    9    8     -0.97      0.00
   19    9    8     -1.97      0.00
    0   10    8     -9.56      0.00
    2   10    8     17.97      0.00
    4   10    8     30.08      0.00
    6   10    8     -8.60      0.00
    8   10    8      8.75      0.00
   10   10    8     -1.66      0.00
   12   10    8      1.33      0.00
   14   10    8      0.91      0.00
   16   10    8     -0.30      0.00
   18   10    8      4.01      0.00
   20   10    8     -0.67      0.00
    1   11    8     -3.65      0.00
    3   11    8     -6.21      0.00
    5   11    8     -0.80      0.00
    7   11    8     -0.43      0.00
    9   11    8      4.39      0.00
   11   11    8     -1.93      0.00
   13   11    8     -2.50      0.00
   15   11    8      2.41      0.00
   17   11    8      4.16      0.00
   19   11    8      1.56      0.00
    0   12    8     12.26      0.00
    2   12    8    -14.39      0.00
    4   12    8      4.39      0.00
    6   12    8     -2.42      0.00
    8   12    8      5.90      0.00
   10   12    8     -2.02      0.00
   12   12    8     -0.03      0.00
   14   12    8      0.77      0.00
   16   12    8     -1.15      0.00
   18   12    8      1.90      0.00
    1   13    8      0.37      0.00
    3   13    8      7.84      0.00
    5   13    8      1.64      0.00
    7   13    8     -6.17      0.00
    9   13    8     -1.54      0.00
   11   13    8      0.66      0.00
   13   13    8      0.52      0.00
   15   13    8     -2.17      0.00
   17   13    8     -4.12      0.00
   19   13    8     -2.20      0.00
    0   14    8     12.09      0.00
    2   14    8     -3.39      0.00
    4   14    8      7.90      0.00
    6   14    8     -1.50      0.00
    8   14    8      2.71      0.00
   10   14    8     -3.71      0.00
   12   14    8     -1.75      0.00
   14   14    8     -1.67      0.00
   16   14    8     -0.01      0.00
   18   14    8      2.59      0.00
    1   15    8     -3.02      0.00
    3   15    8      9.34      0.00
    5   15    8     -1.89      0.00
    7   15    8     -2.73      0.00
    9   15    8     -2.68      0.00
   11   15    8     -1.68      0.00
   13   15    8     -0.21      0.00
   15   15    8     -0.80      0.00
   17   15    8     -2.22      0.00
    0   16    8      2.42      0.00
    2   16    8      0.62      0.00
    4   16    8     -3.50      0.00
    6   16    8      0.01      0.00
    8   16    8     -1.71      0.00
   10   16    8     -4.93      0.00
   12   16    8      2.12      0.00
   14   16    8      0.67      0.00
   16   16    8      2.95      0.00
   18   16    8      3.63      0.00
    1   17    8      1.75      0.00
    3   17    8      1.57      0.00
    5   17    8     -3.49      0.00
    7   17    8      1.75      0.00
    9   17    8      0.25      0.00
   11   17    8     10.13      0.00
   13   17    8      5.39      0.00
   15   17    8     -3.13      0.00
   17   17    8     -1.29      0.00
    0   18    8     -1.56      0.00
    2   18    8     -0.95      0.00
    4   18    8     -0.72      0.00
    6   18    8      5.76      0.00
    8   18    8      2.79      0.00
   10   18    8      2.36      0.00
   12   18    8     -0.39      0.00
   14   18    8     -2.47      0.00
   16   18    8      3.56      0.00
    1   19    8      1.16      0.00
    3   19    8      0.10      0.00
    5   19    8      3.31      0.00
    7   19    8      3.53      0.00
    9   19    8      0.44      0.00
   11   19    8      6.03      0.00
   13   19    8     -1.49      0.00
   15   19    8     -1.05      0.00
    0   20    8     -1.23      0.00
    2   20    8      4.44      0.00
    4   20    8      0.73      0.00
    6   20    8     -0.16      0.00
    8   20    8      1.28      0.00
   10   20    8     -2.90      0.00
   12   20    8     -2.06      0.00
   14   20    8     -5.65      0.00
   16   20    8     -0.75      0.00
    1   21    8     -1.35      0.00
    3   21    8      0.81      0.00
    5   21    8      1.89      0.00
    7   21    8     -1.66      0.00
    9   21    8     -3.19      0.00
   11   21    8      0.99      0.00
   13   21    8     -3.91      0.00
   15   21    8      0.12      0.00
    0   22    8     -4.14      0.00
    2   22    8     -0.79      0.00
    4   22    8      1.72      0.00
    6   22    8      1.00      0.00
    8   22    8     -2.85      0.00
   10   22    8     -1.14      0.00
   12   22    8      5.22      0.00
   14   22    8      1.03      0.00
    1   23    8     -1.93      0.00
    3   23    8      1.13      0.00
    5   23    8      1.93      0.00
    7   23    8      1.11      0.00
    9   23    8      3.23      0.00
   11   23    8      2.98      0.00
   13   23    8     -0.38      0.00
    0   24    8     -0.74      0.00
    2   24    8     -0.67      0.00
    4   24    8      4.77      0.00
    6   24    8      2.55      0.00
    8   24    8     -0.55      0.00
   10   24    8      2.61      0.00
   12   24    8     -1.70      0.00
    1   25    8      0.24      0.00
    3   25    8      4.78      0.00
    5   25    8     -0.08      0.00
    7   25    8     -0.93      0.00
    9   25    8      0.82      0.00
   11   25    8      1.17      0.00
    0   26    8     -0.82      0.00
    2   26    8      0.09      0.00
    4   26    8      3.83      0.00
    6   26    8     -6.76      0.00
    8   26    8     -0.98      0.00
   10   26    8     -3.09      0.00
    1   27    8      1.29      0.00
    3   27    8     -1.18      0.00
    5   27    8     -4.86      0.00
    7   27    8     -3.57      0.00
    9   27    8     -4.31      0.00
    0   28    8     -2.52      0.00
    2   28    8     -2.03      0.00
    4   28    8      3.14      0.00
    6   28    8     -2.32      0.00
    8   28    8      2.36      0.00
    1   29    8     -0.90      0.00
    3   29    8     -0.97      0.00
    5   29    8      2.86      0.00
    0   30    8     -0.98      0.00
    2   30    8     -0.95      0.00
    1    0    9     31.81      0.00
    3    0    9     26.76      0.00
    5    0    9      8.88      0.00
    7    0    9    -16.47      0.00
    9    0    9    -29.93      0.00
   11    0    9      5.23      0.00
   13    0    9     -2.27      0.00
   15    0    9     -0.32      0.00
   17    0    9     -2.52      0.00
   19    0    9     -1.53      0.00
   21    0    9      5.04      0.00
    0    1    9      3.65      0.00
    2    1    9    -19.02      0.00
    4    1    9     -0.17      0.00
    6    1    9     -1.32      0.00
    8    1    9     -3.77      0.00
   10    1    9     -5.64      0.00
   12    1    9      2.38      0.00
   14    1    9     -1.79      0.00
   16    1    9      4.08      0.00
   18    1    9      0.04      0.00
   20    1    9     -0.07      0.00
    1    2    9    -82.75      0.00
    3    2    9    -33.81      0.00
    5    2    9    -18.80      0.00
    7    2    9     17.85      0.00
    9    2    9    -13.98      0.00
   11    2    9      8.13      0.00
   13    2    9     -3.90      0.00
   15    2    9     -0.34      0.00
   17    2    9      4.35      0.00
   19    2    9      1.32      0.00
   21    2    9      6.10      0.00
    0    3    9    147.95      0.00
    2    3    9    -28.44      0.00
    4    3    9    -29.89      0.00
    6    3    9    -12.16      0.00
    8    3    9     -7.10      0.00
   10    3    9     -7.65      0.00
   12    3    9      4.54      0.00
   14    3    9     -3.36      0.00
   16    3    9     -1.02      0.00
   18    3    9      5.90      0.00
   20    3    9     -1.00      0.00
    1    4    9     21.24      0.00
    3    4    9     36.98      0.00
    5    4    9     -7.93      0.00
    7    4    9     21.67      0.00
    9    4    9    -13.85      0.00
   11    4    9      2.15      0.00
   13    4    9     -1.26      0.00
   15    4    9     -0.93      0.00
   17    4    9     -0.31      0.00
   19    4    9     -1.16      0.00
   21    4    9     -2.00      0.00
    0    5    9    -84.08      0.00
    2    5    9    -33.46      0.00
    4    5    9     18.50      0.00
    6    5    9      5.43      0.00
    8    5    9      2.54      0.00
   10    5    9     -2.67      0.00
   12    5    9      2.85      0.00
   14    5    9     -2.29      0.00
   16    5    9     -0.94      0.00
   18    5    9      5.44      0.00
   20    5    9     -2.40      0.00
    1    6    9      8.92      0.00
    3    6    9     10.76      0.00
    5    6    9    -33.15      0.00
    7    6    9     -1.89      0.00
    9    6    9     -8.97      0.00
   11    6    9     -0.79      0.00
   13    6    9     -1.10      0.00
   15    6    9      2.38      0.00
   17    6    9      1.04      0.00
   19    6    9      0.65      0.00
    0    7    9    -58.95      0.00
    2    7    9     44.18      0.00
    4    7    9      0.60      0.00
    6    7    9    -12.59      0.00
    8    7    9     -0.03      0.00
   10    7    9     -9.14      0.00
   12    7    9     -1.16      0.00
   14    7    9     -0.01      0.00
   16    7    9     -2.20      0.00
   18    7    9      0.71      0.00
   20    7    9     -2.79      0.00
    1    8    9    -13.36      0.00
    3    8    9     -0.67      0.00
    5    8    9    -17.53      0.00
    7    8    9     24.73      0.00
    9    8    9     -6.56      0.00
   11    8    9     -2.75      0.00
   13    8    9     -2.53      0.00
   15    8    9     -1.28      0.00
   17    8    9      2.84      0.00
   19    8    9      3.09      0.00
    0    9    9     -5.59      0.00
    2    9    9      8.26      0.00
    4    9    9    -21.79      0.00
    6    9    9     -6.04      0.00
    8    9    9     -4.61      0.00
   10    9    9     -7.06      0.00
   12    9    9      4.23      0.00
   14    9    9     -0.38      0.00
   16    9    9      1.68      0.00
   18    9    9      0.60      0.00
   20    9    9      2.51      0.00
    1   10    9     -1.80      0.00
    3   10    9     17.00      0.00
    5   10    9    -14.19      0.00
    7   10    9      5.48      0.00
    9   10    9     -8.39      0.00
   11   10    9     -0.70      0.00
   13   10    9      4.50      0.00
   15   10    9      1.64      0.00
   17   10    9      2.48      0.00
   19   10    9      3.33      0.00
    0   11    9     -8.76      0.00
    2   11    9      6.23      0.00
    4   11    9     -6.03      0.00
    6   11    9     -9.68      0.00
    8   11    9      1.10      0.00
   10   11    9      0.96      0.00
   12   11    9      2.54      0.00
   14   11    9     -0.97      0.00
   16   11    9      0.45      0.00
   18   11    9     -8.43      0.00
    1   12    9     -5.93      0.00
    3   12    9     19.09      0.00
    5   12    9    -12.53      0.00
    7   12    9      3.47      0.00
    9   12    9      3.11      0.00
   11   12    9     -0.08      0.00
   13   12    9      4.84      0.00
   15   12    9     -1.65      0.00
   17   12    9     -3.11      0.00
   19   12    9     -2.41      0.00
    0   13    9     -6.42      0.00
    2   13    9      7.26      0.00
    4   13    9      4.16      0.00
    6   13    9      5.06      0.00
    8   13    9     11.11      0.00
   10   13    9      3.71      0.00
   12   13    9      4.63      0.00
   14   13    9      5.18      0.00
   16   13    9      5.73      0.00
   18   13    9     -0.01      0.00
    1   14    9      0.13      0.00
    3   14    9      3.07      0.00
    5   14    9     -4.09      0.00
    7   14    9      8.22      0.00
    9   14    9      2.66      0.00
   11   14    9      3.30      0.00
   13   14    9      3.62      0.00
   15   14    9     -2.11      0.00
   17   14    9      0.44      0.00
    0   15    9      5.40      0.00
    2   15    9     -3.57      0.00
    4   15    9      0.51      0.00
    6   15    9      4.53      0.00
    8   15    9      0.07      0.00
   10   15    9      1.31      0.00
   12   15    9     -0.25      0.00
   14   15    9      1.21      0.00
   16   15    9      4.61      0.00
   18   15    9     -0.90      0.00
    1   16    9      4.02      0.00
    3   16    9     -0.44      0.00
    5   16    9      8.26      0.00
    7   16    9     -0.30      0.00
    9   16    9      0.39      0.00
   11   16    9     -0.54      0.00
   13   16    9     -3.38      0.00
   15   16    9      2.95      0.00
   17   16    9     -1.41      0.00
    0   17    9      0.26      0.00
    2   17    9     -5.87      0.00
    4   17    9     -2.11      0.00
    6   17    9      0.30      0.00
    8   17    9     -2.17      0.00
   10   17    9      0.44      0.00
   12   17    9     -4.24      0.00
   14   17    9      0.38      0.00
   16   17    9      3.36      0.00
    1   18    9     -1.20      0.00
    3   18    9     -4.63      0.00
    5   18    9      5.86      0.00
    7   18    9     -1.56      0.00
    9   18    9     -0.14      0.00
   11   18    9      0.60      0.00
   13   18    9     -3.24      0.00
   15   18    9      1.03      0.00
   17   18    9     -3.96      0.00
    0   19    9      7.53      0.00
    2   19    9     -6.60      0.00
    4   19    9     -1.77      0.00
    6   19    9      1.38      0.00
    8   19    9     -4.25      0.00
   10   19    9      0.34      0.00
   12   19    9     -1.79      0.00
   14   19    9      2.70      0.00
   16   19    9     -0.58      0.00
    1   20    9      4.94      0.00
    3   20    9     -8.46      0.00
    5   20    9     -1.88      0.00
    7   20    9     -7.17      0.00
    9   20    9     -2.27      0.00
   11   20    9      2.14      0.00
   13   20    9     -0.21      0.00
   15   20    9     -4.07      0.00
    0   21    9      7.20      0.00
    2   21    9     -3.76      0.00
    4   21    9      5.78      0.00
    6   21    9     -1.11      0.00
    8   21    9     -2.03      0.00
   10   21    9      5.73      0.00
   12   21    9     -1.30      0.00
   14   21    9      4.75      0.00
    1   22    9      3.70      0.00
    3   22    9     -4.31      0.00
    5   22    9      3.68      0.00
    7   22    9      0.41      0.00
    9   22    9      5.57      0.00
   11   22    9     -0.63      0.00
   13   22    9      0.96      0.00
    0   23    9     10.36      0.00
    2   23    9      1.64      0.00
    4   23    9      0.32      0.00
    6   23    9     -6.98      0.00
    8   23    9      1.50      0.00
   10   23    9      1.83      0.00
   12   23    9     -1.03      0.00
    1   24    9     -0.72      0.00
    3   24    9     -2.07      0.00
    5   24    9      4.48      0.00
    7   24    9     -0.38      0.00
    9   24    9      0.80      0.00
   11   24    9     -4.26      0.00
    0   25    9      2.53      0.00
    2   25    9     -4.33      0.00
    4   25    9     -0.54      0.00
    6   25    9      0.32      0.00
    8   25    9      0.05      0.00
   10   25    9     -0.18      0.00
    1   26    9     -1.45      0.00
    3   26    9     -0.04      0.00
    5   26    9      3.61      0.00
    7   26    9      0.22      0.00
    9   26    9      0.38      0.00
    0   27    9      1.65      0.00
    2   27    9     -3.12      0.00
    4   27    9      0.21      0.00
    6   27    9      1.34      0.00
    8   27    9     -2.00      0.00
    1   28    9      0.86      0.00
    3   28    9      3.62      0.00
    5   28    9      1.40      0.00
    7   28    9      1.35      0.00
    0   29    9      3.75      0.00
    2   29    9      1.10      0.00
    4   29    9      0.84      0.00
    1   30    9      4.85      0.00
    0    0   10     28.78      0.00
    2    0   10    -43.01      0.00
    4    0   10     24.55      0.00
    6    0   10     16.19      0.00
    8    0   10     29.75      0.00
   10    0   10     -2.96      0.00
   12    0   10      7.59      0.00
   14    0   10      2.99      0.00
   16    0   10     -3.61      0.00
   18    0   10     -0.13      0.00
   20    0   10     -3.01      0.00
    1    1   10      7.46      0.00
    3    1   10     17.29      0.00
    5    1   10     -3.81      0.00
    7    1   10     -2.15      0.00
    9    1   10      8.62      0.00
   11    1   10      3.78      0.00
   13    1   10     -0.30      0.00
   15    1   10     -1.56      0.00
   17    1   10     -1.00      0.00
   19    1   10     -4.84      0.00
   21    1   10     -6.63      0.00
    0    2   10     46.32      0.00
    2    2   10     24.71      0.00
    4    2   10     19.56      0.00
    6    2   10     -9.09      0.00
    8    2   10      0.87      0.00
   10    2   10     -4.07      0.00
   12    2   10      3.94      0.00
   14    2   10      1.22      0.00
   16    2   10      1.59      0.00
   18    2   10      1.47      0.00
   20    2   10      0.42      0.00
    1    3   10    -35.37      0.00
    3    3   10     23.67      0.00
    5    3   10     -5.61      0.00
    7    3   10     -6.89      0.00
    9    3   10      0.24      0.00
   11    3   10     -1.90      0.00
   13    3   10      5.05      0.00
   15    3   10      1.37      0.00
   17    3   10     -2.32      0.00
   19    3   10      2.29      0.00
   21    3   10      4.49      0.00
    0    4   10     23.55      0.00
    2    4   10     12.17      0.00
    4    4   10    -24.04      0.00
    6    4   10      3.10      0.00
    8    4   10      5.90      0.00
   10    4   10      2.68      0.00
   12    4   10      1.26      0.00
   14    4   10     -0.92      0.00
   16    4   10      1.53      0.00
   18    4   10     -1.74      0.00
   20    4   10     -2.12      0.00
    1    5   10      6.82      0.00
    3    5   10     10.78      0.00
    5    5   10      1.90      0.00
    7    5   10     10.11      0.00
    9    5   10     -1.96      0.00
   11    5   10     -0.16      0.00
   13    5   10      0.53      0.00
   15    5   10     -5.64      0.00
   17    5   10     -1.04      0.00
   19    5   10      3.34      0.00
    0    6   10     75.09      0.00
    2    6   10     21.74      0.00
    4    6   10    -17.31      0.00
    6    6   10     13.65      0.00
    8    6   10      3.25      0.00
   10    6   10     -2.75      0.00
   12    6   10      2.40      0.00
   14    6   10      0.29      0.00
   16    6   10      0.27      0.00
   18    6   10     -0.39      0.00
   20    6   10      0.21      0.00
    1    7   10    -10.38      0.00
    3    7   10     -0.71      0.00
    5    7   10     10.97      0.00
    7    7   10     16.40      0.00
    9    7   10      3.82      0.00
   11    7   10      4.58      0.00
   13    7   10     -3.40      0.00
   15    7   10     -7.16      0.00
   17    7   10     -0.28      0.00
   19    7   10      3.79      0.00
    0    8   10    -37.98      0.00
    2    8   10    -16.47      0.00
    4    8   10    -11.09      0.00
    6    8   10      2.44      0.00
    8    8   10     -1.38      0.00
   10    8   10      2.51      0.00
   12    8   10     -0.81      0.00
   14    8   10      2.01      0.00
   16    8   10     -1.65      0.00
   18    8   10     -0.58      0.00
   20    8   10      0.74      0.00
    1    9   10      7.26      0.00
    3    9   10     13.57      0.00
    5    9   10    -20.35      0.00
    7    9   10      0.10      0.00
    9    9   10     -1.74      0.00
   11    9   10     -0.65      0.00
   13    9   10      0.95      0.00
   15    9   10     -3.02      0.00
   17    9   10     -2.66      0.00
   19    9   10      3.33      0.00
    0   10   10    -11.40      0.00
    2   10   10     13.13      0.00
    4   10   10     -4.34      0.00
    6   10   10      3.61      0.00
    8   10   10     -4.82      0.00
   10   10   10     -1.56      0.00
   12   10   10     -8.22      0.00
   14   10   10      0.48      0.00
   16   10   10     -1.12      0.00
   18   10   10      1.94      0.00
   20   10   10     -3.89      0.00
    1   11   10      0.85      0.00
    3   11   10     -2.24      0.00
    5   11   10     -8.01      0.00
    7   11   10     13.76      0.00
    9   11   10     -6.40      0.00
   11   11   10     -2.90      0.00
   13   11   10      2.98      0.00
   15   11   10     -1.82      0.00
   17   11   10      0.15      0.00
   19   11   10      4.70      0.00
    0   12   10     -8.76      0.00
    2   12   10     13.34      0.00
    4   12   10      0.14      0.00
    6   12   10      8.37      0.00
    8   12   10     -2.88      0.00
   10   12   10      3.22      0.00
   12   12   10     -0.18      0.00
   14   12   10     -0.01      0.00
   16   12   10      4.36      0.00
   18   12   10      6.05      0.00
    1   13   10      5.21      0.00
    3   13   10     -9.12      0.00
    5   13   10      5.23      0.00
    7   13   10     -0.33      0.00
    9   13   10     -5.45      0.00
   11   13   10     -2.67      0.00
   13   13   10     -1.86      0.00
   15   13   10     -3.50      0.00
   17   13   10     -7.67      0.00
   19   13   10     -0.69      0.00
    0   14   10    -15.20      0.00
    2   14   10      1.65      0.00
    4   14   10     -4.97      0.00
    6   14   10     -5.92      0.00
    8   14   10      0.08      0.00
   10   14   10      3.16      0.00
   12   14   10     -2.30      0.00
   14   14   10     -0.48      0.00
   16   14   10      1.13      0.00
   18   14   10      1.26      0.00
    1   15   10     -1.17      0.00
    3   15   10     -8.77      0.00
    5   15   10     -1.67      0.00
    7   15   10     -3.99      0.00
    9   15   10      1.70      0.00
   11   15   10      0.52      0.00
   13   15   10      1.76      0.00
   15   15   10     -0.33      0.00
   17   15   10     -0.07      0.00
    0   16   10      2.49      0.00
    2   16   10     -3.58      0.00
    4   16   10      3.64      0.00
    6   16   10     -2.08      0.00
    8   16   10      0.09      0.00
   10   16   10     -4.23      0.00
   12   16   10     -1.19      0.00
   14   16   10      4.99      0.00
   16   16   10      1.23      0.00
    1   17   10      0.56      0.00
    3   17   10     -1.20      0.00
    5   17   10      0.45      0.00
    7   17   10     -7.23      0.00
    9   17   10     -3.78      0.00
   11   17   10      1.32      0.00
   13   17   10      3.68      0.00
   15   17   10     -6.98      0.00
   17   17   10     -0.88      0.00
    0   18   10      3.17      0.00
    2   18   10     -6.32      0.00
    4   18   10      0.48      0.00
    6   18   10     -4.38      0.00
    8   18   10      3.99      0.00
   10   18   10      0.12      0.00
   12   18   10     -5.09      0.00
   14   18   10     -2.20      0.00
   16   18   10     -0.83      0.00
    1   19   10     -2.26      0.00
    3   19   10     -2.11      0.00
    5   19   10      2.93      0.00
    7   19   10     -5.22      0.00
    9   19   10      3.75      0.00
   11   19   10     -0.13      0.00
   13   19   10      0.08      0.00
   15   19   10     -0.63      0.00
    0   20   10     -3.64      0.00
    2   20   10     -1.00      0.00
    4   20   10      3.35      0.00
    6   20   10      1.11      0.00
    8   20   10      2.48      0.00
   10   20   10     -4.06      0.00
   12   20   10     -1.16      0.00
   14   20   10      2.07      0.00
    1   21   10      1.61      0.00
    3   21   10      0.79      0.00
    5   21   10      3.22      0.00
    7   21   10     -0.27      0.00
    9   21   10      1.86      0.00
   11   21   10     -0.89      0.00
   13   21   10     -1.22      0.00
   15   21   10      3.62      0.00
    0   22   10      0.95      0.00
    2   22   10     -0.05      0.00
    4   22   10     -2.41      0.00
    6   22   10     -0.75      0.00
    8   22   10     -3.44      0.00
   10   22   10     -2.26      0.00
   12   22   10     -0.05      0.00
   14   22   10     -3.39      0.00
    1   23   10     -0.39      0.00
    3   23   10     -0.69      0.00
    5   23   10     -0.32      0.00
    7   23   10      3.58      0.00
    9   23   10      1.60      0.00
   11   23   10      1.80      0.00
   13   23   10     -1.58      0.00
    0   24   10     -0.99      0.00
    2   24   10     -3.62      0.00
    4   24   10     -1.78      0.00
    6   24   10      1.34      0.00
    8   24   10     -0.05      0.00
   10   24   10      2.62      0.00
   12   24   10     -1.87      0.00
    1   25   10     -3.40      0.00
    3   25   10     -0.33      0.00
    5   25   10     -6.09      0.00
    7   25   10     -1.07      0.00
    9   25   10      1.61      0.00
   11   25   10      2.95      0.00
    0   26   10      4.36      0.00
    2   26   10      1.16      0.00
    4   26   10      0.12      0.00
    6   26   10     -0.69      0.00
    8   26   10      0.94      0.00
   10   26   10      1.18      0.00
    1   27   10      4.40      0.00
    3   27   10     -0.64      0.00
    5   27   10     -2.26      0.00
    7   27   10     -0.82      0.00
    9   27   10      1.71      0.00
    0   28   10      1.66      0.00
    2   28   10      1.83      0.00
    4   28   10      3.48      0.00
    6   28   10      0.56      0.00
    1   29   10     -6.05      0.00
    3   29   10     -3.56      0.00
    5   29   10      2.82      0.00
    1    0   11    -52.79      0.00
    3    0   11     34.78      0.00
    5    0   11    -18.45      0.00
    7    0   11     -3.39      0.00
    9    0   11      5.87      0.00
   11    0   11    -10.38      0.00
   13    0   11      3.85      0.00
   15    0   11      6.33      0.00
   17    0   11      4.04      0.00
   19    0   11      4.58      0.00
   21    0   11      1.58      0.00
    0    1   11    -32.02      0.00
    2    1   11     21.29      0.00
    4    1   11    -19.06      0.00
    6    1   11      5.62      0.00
    8    1   11     -0.04      0.00
   10    1   11      8.92      0.00
   12    1   11     -6.75      0.00
   14    1   11      0.93      0.00
   16    1   11     -1.83      0.00
   18    1   11      4.26      0.00
   20    1   11     -2.49      0.00
    1    2   11      1.54      0.00
    3    2   11     18.09      0.00
    5    2   11      1.28      0.00
    7    2   11     -6.84      0.00
    9    2   11     17.53      0.00
   11    2   11     -3.36      0.00
   13    2   11     -0.98      0.00
   15    2   11     -0.53      0.00
   17    2   11     -6.12      0.00
   19    2   11     -4.06      0.00
   21    2   11     -4.77      0.00
    0    3   11    -17.52      0.00
    2    3   11     25.03      0.00
    4    3   11     17.20      0.00
    6    3   11      7.14      0.00
    8    3   11      4.70      0.00
   10    3   11      4.09      0.00
   12    3   11      0.34      0.00
   14    3   11      3.89      0.00
   16    3   11     -0.24      0.00
   18    3   11      0.79      0.00
   20    3   11     -2.04      0.00
    1    4   11    -23.39      0.00
    3    4   11     -5.03      0.00
    5    4   11     26.37      0.00
    7    4   11    -13.77      0.00
    9    4   11     12.01      0.00
   11    4   11     -4.61      0.00
   13    4   11     -3.14      0.00
   15    4   11      4.68      0.00
   17    4   11     -1.30      0.00
   19    4   11      1.40      0.00
    0    5   11     16.93      0.00
    2    5   11    -17.88      0.00
    4    5   11     18.13      0.00
    6    5   11      1.65      0.00
    8    5   11     -6.68      0.00
   10    5   11      2.17      0.00
   12    5   11     -7.30      0.00
   14    5   11      1.26      0.00
   16    5   11      0.09      0.00
   18    5   11     -2.40      0.00
   20    5   11     -2.04      0.00
    1    6   11     48.36      0.00
    3    6   11     16.50      0.00
    5    6   11      5.08      0.00
    7    6   11    -16.86      0.00
    9    6   11     10.06      0.00
   11    6   11     -3.37      0.00
   13    6   11      1.72      0.00
   15    6   11      6.31      0.00
   17    6   11     -3.50      0.00
   19    6   11     -1.35      0.00
    0    7   11     48.16      0.00
    2    7   11    -48.89      0.00
    4    7   11     16.01      0.00
    6    7   11      6.74      0.00
    8    7   11     -9.30      0.00
   10    7   11     11.28      0.00
   12    7   11      1.58      0.00
   14    7   11      6.87      0.00
   16    7   11      2.10      0.00
   18    7   11      0.60      0.00
   20    7   11      0.72      0.00
    1    8   11     -2.80      0.00
    3    8   11    -36.42      0.00
    5    8   11     25.16      0.00
    7    8   11     -4.62      0.00
    9    8   11      8.26      0.00
   11    8   11      0.58      0.00
   13    8   11      3.13      0.00
   15    8   11      1.60      0.00
   17    8   11     -1.47      0.00
   19    8   11     -2.76      0.00
    0    9   11     56.06      0.00
    2    9   11    -24.31      0.00
    4    9   11     12.55      0.00
    6    9   11     -0.45      0.00
    8    9   11     -2.59      0.00
   10    9   11      4.52      0.00
   12    9   11     -1.23      0.00
   14    9   11      0.67      0.00
   16    9   11      1.68      0.00
   18    9   11     -4.28      0.00
   20    9   11     -6.35      0.00
    1   10   11      7.54      0.00
    3   10   11    -24.97      0.00
    5   10   11     40.20      0.00
    7   10   11    -10.63      0.00
    9   10   11      6.94      0.00
   11   10   11      5.84      0.00
   13   10   11     -1.31      0.00
   15   10   11     -3.55      0.00
   17   10   11     -1.49      0.00
   19   10   11      0.58      0.00
    0   11   11     22.20      0.00
    2   11   11    -27.34      0.00
    4   11   11     10.03      0.00
    6   11   11     -4.02      0.00
    8   11   11     -3.68      0.00
   10   11   11      2.04      0.00
   12   11   11     -3.17      0.00
   14   11   11     -0.42      0.00
   16   11   11     -1.50      0.00
   18   11   11     -3.02      0.00
    1   12   11     10.27      0.00
    3   12   11     -6.82      0.00
    5   12   11      8.93      0.00
    7   12   11     -5.25      0.00
    9   12   11     -0.20      0.00
   11   12   11     -1.68      0.00
   13   12   11     -1.38      0.00
   15   12   11     -2.34      0.00
   17   12   11      2.38      0.00
   19   12   11      1.05      0.00
    0   13   11      8.45      0.00
    2   13   11    -20.64      0.00
    4   13   11     10.01      0.00
    6   13   11     -2.72      0.00
    8   13   11     -3.58      0.00
   10   13   11      1.26      0.00
   12   13   11     -2.27      0.00
   14   13   11      1.99      0.00
   16   13   11     -1.39      0.00
   18   13   11      1.04      0.00
    1   14   11     -3.11      0.00
    3   14   11     -4.04      0.00
    5   14   11     -8.62      0.00
    7   14   11      1.58      0.00
    9   14   11     -8.70      0.00
   11   14   11      0.40      0.00
   13   14   11      2.02      0.00
   15   14   11     -5.70      0.00
   17   14   11      1.89      0.00
    0   15   11    -10.54      0.00
    2   15   11      4.25      0.00
    4   15   11      0.56      0.00
    6   15   11     -8.90      0.00
    8   15   11     -3.87      0.00
   10   15   11     -5.45      0.00
   12   15   11     -1.97      0.00
   14   15   11      2.94      0.00
   16   15   11      1.11      0.00
   18   15   11      2.65      0.00
    1   16   11     -2.39      0.00
    3   16   11      5.08      0.00
    5   16   11     -5.63      0.00
    7   16   11      1.98      0.00
    9   16   11     -2.89      0.00
   11   16   11     -0.91      0.00
   13   16   11     -3.67      0.00
   15   16   11     -3.36      0.00
   17   16   11     -1.23      0.00
    0   17   11    -12.32      0.00
    2   17   11     14.15      0.00
    4   17   11      0.10      0.00
    6   17   11      1.29      0.00
    8   17   11      7.41      0.00
   10   17   11     -1.32      0.00
   12   17   11      2.61      0.00
   14   17   11     -0.49      0.00
   16   17   11     -2.19      0.00
    1   18   11      0.70      0.00
    3   18   11     12.52      0.00
    5   18   11     -8.61      0.00
    7   18   11      5.53      0.00
    9   18   11      2.02      0.00
   11   18   11     -2.56      0.00
   13   18   11     -0.94      0.00
   15   18   11     -1.45      0.00
    0   19   11     -7.36      0.00
    2   19   11      6.72      0.00
    4   19   11     -3.15      0.00
    6   19   11     -0.71      0.00
    8   19   11      1.08      0.00
   10   19   11     -4.20      0.00
   12   19   11      5.45      0.00
   14   19   11      3.31      0.00
   16   19   11      3.42      0.00
    1   20   11     -1.73      0.00
    3   20   11     13.82      0.00
    5   20   11     -5.95      0.00
    7   20   11     12.20      0.00
    9   20   11      4.43      0.00
   11   20   11      1.00      0.00
   13   20   11      5.03      0.00
   15   20   11     -2.68      0.00
    0   21   11     -7.13      0.00
    2   21   11      2.59      0.00
    4   21   11     -0.37      0.00
    6   21   11      1.73      0.00
    8   21   11      2.04      0.00
   10   21   11     -2.01      0.00
   12   21   11      0.29      0.00
   14   21   11      0.12      0.00
    1   22   11     -4.92      0.00
    3   22   11      1.63      0.00
    5   22   11    -10.07      0.00
    7   22   11      1.09      0.00
    9   22   11     -2.73      0.00
   11   22   11     -2.69      0.00
   13   22   11      5.55      0.00
    0   23   11     -0.69      0.00
    2   23   11      5.20      0.00
    4   23   11     -0.05      0.00
    6   23   11      0.45      0.00
    8   23   11     -2.57      0.00
   10   23   11     -5.18      0.00
   12   23   11     -1.53      0.00
    1   24   11      0.40      0.00
    3   24   11      2.08      0.00
    5   24   11      2.68      0.00
    7   24   11      1.66      0.00
    9   24   11     -2.17      0.00
   11   24   11     -3.48      0.00
    0   25   11     -4.87      0.00
    2   25   11      2.59      0.00
    4   25   11     -4.90      0.00
    6   25   11     -0.21      0.00
    8   25   11     -2.11      0.00
   10   25   11      0.48      0.00
    1   26   11     -2.18      0.00
    3   26   11     -1.73      0.00
    5   26   11      3.93      0.00
    7   26   11      4.37      0.00
    9   26   11      1.93      0.00
    0   27   11     -4.80      0.00
    2   27   11      3.94      0.00
    4   27   11     -2.13      0.00
    6   27   11      1.57      0.00
    8   27   11     -1.68      0.00
    1   28   11     -2.84      0.00
    3   28   11     -1.21      0.00
    5   28   11      1.87      0.00
    7   28   11      3.52      0.00
    0   29   11     -0.32      0.00
    2   29   11      4.13      0.00
    4   29   11     -3.77      0.00
    0    0   12    -63.06      0.00
    2    0   12     18.86      0.00
    4    0   12      3.05      0.00
    6    0   12     13.26      0.00
    8    0   12     -4.99      0.00
   10    0   12     -7.05      0.00
   12    0   12     -0.14      0.00
   14    0   12     -3.13      0.00
   16    0   12      0.78      0.00
   18    0   12     -1.88      0.00
   20    0   12      6.66      0.00
    1    1   12      8.43      0.00
    3    1   12     -9.63      0.00
    5    1   12     20.12      0.00
    7    1   12    -10.50      0.00
    9    1   12     -3.48      0.00
   11    1   12     -4.66      0.00
   13    1   12     -1.15      0.00
   15    1   12     -0.10      0.00
   17    1   12     -2.32      0.00
   19    1   12      2.56      0.00
    0    2   12     35.93      0.00
    2    2   12      8.89      0.00
    4    2   12    -18.89      0.00
    6    2   12      6.53      0.00
    8    2   12     -8.43      0.00
   10    2   12      2.11      0.00
   12    2   12     -1.45      0.00
   14    2   12      0.47      0.00
   16    2   12      2.04      0.00
   18    2   12      0.09      0.00
   20    2   12      0.34      0.00
    1    3   12     -4.17      0.00
    3    3   12    -12.59      0.00
    5    3   12    -29.12      0.00
    7    3   12     -4.69      0.00
    9    3   12    -10.17      0.00
   11    3   12     -3.28      0.00
   13    3   12      3.94      0.00
   15    3   12     -2.82      0.00
   17    3   12      1.98      0.00
   19    3   12      5.71      0.00
    0    4   12     -8.28      0.00
    2    4   12    -44.09      0.00
    4    4   12    -10.63      0.00
    6    4   12     12.37      0.00
    8    4   12     -9.72      0.00
   10    4   12      1.96      0.00
   12    4   12     -5.39      0.00
   14    4   12      1.51      0.00
   16    4   12      1.82      0.00
   18    4   12      1.47      0.00
   20    4   12     -0.80      0.00
    1    5   12     -1.94      0.00
    3    5   12      2.62      0.00
    5    5   12      3.66      0.00
    7    5   12      5.93      0.00
    9    5   12      7.87      0.00
   11    5   12     -2.26      0.00
   13    5   12     -2.29      0.00
   15    5   12     -9.30      0.00
   17    5   12     -1.13      0.00
   19    5   12      4.95      0.00
    0    6   12      4.01      0.00
    2    6   12     23.20      0.00
    4    6   12      8.46      0.00
    6    6   12    -17.42      0.00
    8    6   12     -9.65      0.00
   10    6   12      0.29      0.00
   12    6   12      4.51      0.00
   14    6   12      1.36      0.00
   16    6   12      1.11      0.00
   18    6   12      0.24      0.00
   20    6   12      0.57      0.00
    1    7   12    -48.05      0.00
    3    7   12     -3.47      0.00
    5    7   12     12.92      0.00
    7    7   12    -10.41      0.00
    9    7   12      0.96      0.00
   11    7   12     -3.73      0.00
   13    7   12     -1.72      0.00
   15    7   12      1.65      0.00
   17    7   12      1.20      0.00
   19    7   12      3.74      0.00
    0    8   12      6.94      0.00
    2    8   12     -4.37      0.00
    4    8   12     -1.56      0.00
    6    8   12    -11.46      0.00
    8    8   12     -3.74      0.00
   10    8   12     -1.07      0.00
   12    8   12      2.38      0.00
   14    8   12      0.21      0.00
   16    8   12      2.83      0.00
   18    8   12      2.30      0.00
   20    8   12      1.87      0.00
    1    9   12     19.22      0.00
    3    9   12     15.55      0.00
    5    9   12     -6.82      0.00
    7    9   12     -6.69      0.00
    9    9   12     -0.12      0.00
   11    9   12     -1.37      0.00
   13    9   12     -0.72      0.00
   15    9   12      0.52      0.00
   17    9   12     -2.49      0.00
   19    9   12      0.84      0.00
    0   10   12      6.27      0.00
    2   10   12    -25.15      0.00
    4   10   12      5.58      0.00
    6   10   12     -1.20      0.00
    8   10   12     -1.88      0.00
   10   10   12      2.94      0.00
   12   10   12      0.39      0.00
   14   10   12      1.42      0.00
   16   10   12      4.72      0.00
   18   10   12      1.81      0.00
    1   11   12     -3.08      0.00
    3   11   12     -5.90      0.00
    5   11   12     -4.49      0.00
    7   11   12      0.05      0.00
    9   11   12      1.34      0.00
   11   11   12      1.86      0.00
   13   11   12      1.45      0.00
   15   11   12      0.57      0.00
   17   11   12      0.15      0.00
   19   11   12      3.31      0.00
    0   12   12      2.73      0.00
    2   12   12      7.40      0.00
    4   12   12      6.85      0.00
    6   12   12     -6.99      0.00
    8   12   12     -0.70      0.00
   10   12   12      2.86      0.00
   12   12   12      0.45      0.00
   14   12   12      0.11      0.00
   16   12   12      2.28      0.00
   18   12   12      2.57      0.00
    1   13   12      3.90      0.00
    3   13   12     -6.59      0.00
    5   13   12      5.38      0.00
    7   13   12      1.45      0.00
    9   13   12      2.74      0.00
   11   13   12      1.63      0.00
   13   13   12     -4.12      0.00
   15   13   12      0.50      0.00
   17   13   12      0.24      0.00
    0   14   12      0.81      0.00
    2   14   12      0.86      0.00
    4   14   12     -0.90      0.00
    6   14   12     -1.53      0.00
    8   14   12      1.98      0.00
   10   14   12      4.32      0.00
   12   14   12     -0.95      0.00
   14   14   12     -0.65      0.00
   16   14   12     -2.84      0.00
   18   14   12     -2.56      0.00
    1   15   12      8.26      0.00
    3   15   12     -3.50      0.00
    5   15   12      4.28      0.00
    7   15   12      3.87      0.00
    9   15   12      3.16      0.00
   11   15   12      5.97      0.00
   13   15   12     -0.78      0.00
   15   15   12     -2.79      0.00
   17   15   12     -4.85      0.00
    0   16   12      6.58      0.00
    2   16   12      0.67      0.00
    4   16   12      7.32      0.00
    6   16   12      6.26      0.00
    8   16   12      6.13      0.00
   10   16   12      7.54      0.00
   12   16   12      0.84      0.00
   14   16   12      1.69      0.00
   16   16   12      1.11      0.00
    1   17   12      5.34      0.00
    3   17   12     -0.71      0.00
    5   17   12     -1.94      0.00
    7   17   12      3.41      0.00
    9   17   12     -5.68      0.00
   11   17   12      0.08      0.00
   13   17   12     -0.91      0.00
   15   17   12      0.02      0.00
   17   17   12     -1.69      0.00
    0   18   12      1.03      0.00
    2   18   12      1.26      0.00
    4   18   12     -1.45      0.00
    6   18   12      1.98      0.00
    8   18   12     -2.09      0.00
   10   18   12     -0.25      0.00
   12   18   12      0.37      0.00
   14   18   12      4.89      0.00
   16   18   12     -0.04      0.00
    1   19   12     -2.11      0.00
    3   19   12     -3.37      0.00
    5   19   12     -1.35      0.00
    7   19   12      0.65      0.00
    9   19   12     -3.15      0.00
   11   19   12      3.42      0.00
   13   19   12      2.57      0.00
   15   19   12      2.79      0.00
    0   20   12      2.35      0.00
    2   20   12      0.44      0.00
    4   20   12     -2.51      0.00
    6   20   12      3.02      0.00
    8   20   12     -3.67      0.00
   10   20   12      0.36      0.00
   12   20   12     -2.64      0.00
   14   20   12     -1.16      0.00
    1   21   12      0.31      0.00
    3   21   12     -1.42      0.00
    5   21   12      1.77      0.00
    7   21   12     -0.39      0.00
    9   21   12      0.10      0.00
   11   21   12      1.62      0.00
   13   21   12     -0.40      0.00
    0   22   12     -2.43      0.00
    2   22   12     -5.17      0.00
    4   22   12     -7.26      0.00
    6   22   12      0.13      0.00
    8   22   12     -2.56      0.00
   10   22   12     -1.25      0.00
   12   22   12     -3.11      0.00
    1   23   12     -1.44      0.00
    3   23   12      1.30      0.00
    5   23   12      2.73      0.00
    7   23   12     -0.32      0.00
    9   23   12     -0.36      0.00
   11   23   12      2.65      0.00
   13   23   12     -1.40      0.00
    0   24   12      0.99      0.00
    2   24   12     -1.22      0.00
    4   24   12      1.52      0.00
    6   24   12      4.79      0.00
    8   24   12      0.27      0.00
   10   24   12     -1.11      0.00
   12   24   12      0.92      0.00
    1   25   12      4.84      0.00
    3   25   12     -0.81      0.00
    5   25   12      3.28      0.00
    7   25   12      0.99      0.00
    9   25   12     -5.32      0.00
   11   25   12     -0.97      0.00
    0   26   12     12.48      0.00
    2   26   12      2.83      0.00
    4   26   12      1.40      0.00
    6   26   12      0.34      0.00
    8   26   12     -1.05      0.00
    1   27   12      0.14      0.00
    3   27   12     -4.67      0.00
    5   27   12     -2.49      0.00
    7   27   12     -2.67      0.00
    0   28   12      3.90      0.00
    2   28   12     -2.65      0.00
    4   28   12     -0.72      0.00
    6   28   12     -0.11      0.00
    1   29   12     -1.32      0.00
    3   29   12     -2.05      0.00
    1    0   13    -22.61      0.00
    3    0   13    -54.24      0.00
    5    0   13    -33.90      0.00
    7    0   13     11.42      0.00
    9    0   13     -5.35      0.00
   11    0   13      2.69      0.00
   13    0   13      1.06      0.00
   15    0   13     -0.76      0.00
   17    0   13     -0.32      0.00
   19    0   13     -0.26      0.00
    0    1   13     61.08      0.00
    2    1   13    -38.44      0.00
    4    1   13      1.20      0.00
    6    1   13     -1.69      0.00
    8    1   13     -2.74      0.00
   10    1   13     -0.05      0.00
   12    1   13      6.47      0.00
   14    1   13     -5.86      0.00
   16    1   13      2.11      0.00
   18    1   13     -2.59      0.00
   20    1   13     -0.38      0.00
    1    2   13     53.34      0.00
    3    2   13     13.20      0.00
    5    2   13      1.22      0.00
    7    2   13      1.35      0.00
    9    2   13     -3.95      0.00
   11    2   13      0.45      0.00
   13    2   13      2.01      0.00
   15    2   13     -0.94      0.00
   17    2   13     -2.07      0.00
   19    2   13     -1.83      0.00
    0    3   13    -66.19      0.00
    2    3   13     -8.63      0.00
    4    3   13     12.10      0.00
    6    3   13     -4.48      0.00
    8    3   13      1.35      0.00
   10    3   13     -3.49      0.00
   12    3   13      7.69      0.00
   14    3   13     -3.63      0.00
   16    3   13      2.12      0.00
   18    3   13     -5.77      0.00
   20    3   13      4.60      0.00
    1    4   13    -30.31      0.00
    3    4   13    -14.15      0.00
    5    4   13    -19.55      0.00
    7    4   13      0.97      0.00
    9    4   13      0.07      0.00
   11    4   13      2.43      0.00
   13    4   13      0.59      0.00
   15    4   13      0.66      0.00
   17    4   13      2.10      0.00
   19    4   13     -4.38      0.00
    0    5   13      5.01      0.00
    2    5   13     30.55      0.00
    4    5   13    -22.31      0.00
    6    5   13      0.40      0.00
    8    5   13      4.40      0.00
   10    5   13     -4.66      0.00
   12    5   13      5.72      0.00
   14    5   13     -1.92      0.00
   16    5   13      2.34      0.00
   18    5   13     -1.09      0.00
   20    5   13     -0.53      0.00
    1    6   13     -2.68      0.00
    3    6   13     18.39      0.00
    5    6   13    -21.16      0.00
    7    6   13     20.36      0.00
    9    6   13     -7.39      0.00
   11    6   13     -1.05      0.00
   13    6   13      0.87      0.00
   15    6   13     -3.56      0.00
   17    6   13     -0.97      0.00
   19    6   13     -5.09      0.00
    0    7   13    -53.15      0.00
    2    7   13     -0.53      0.00
    4    7   13    -32.74      0.00
    6    7   13     12.38      0.00
    8    7   13      5.38      0.00
   10    7   13     -3.70      0.00
   12    7   13     -2.59      0.00
   14    7   13     -6.17      0.00
   16    7   13     -2.28      0.00
   18    7   13     -1.20      0.00
   20    7   13     -4.65      0.00
    1    8   13      1.88      0.00
    3    8   13     27.79      0.00
    5    8   13    -31.83      0.00
    7    8   13      8.43      0.00
    9    8   13     -7.65      0.00
   11    8   13     -5.44      0.00
   13    8   13      0.99      0.00
   15    8   13     -2.31      0.00
   17    8   13     -0.68      0.00
   19    8   13     -0.77      0.00
    0    9   13    -54.43      0.00
    2    9   13     52.89      0.00
    4    9   13     -6.96      0.00
    6    9   13     -1.86      0.00
    8    9   13     -0.07      0.00
   10    9   13     -5.27      0.00
   12    9   13     -1.00      0.00
   14    9   13      1.60      0.00
   16    9   13      2.09      0.00
   18    9   13      6.23      0.00
    1   10   13    -18.92      0.00
    3   10   13     15.33      0.00
    5   10   13    -17.44      0.00
    7   10   13     20.32      0.00
    9   10   13      0.00      0.00
   11   10   13     -3.92      0.00
   13   10   13     -0.88      0.00
   15   10   13     -1.00      0.00
   17   10   13     -3.41      0.00
   19   10   13     -2.04      0.00
    0   11   13    -29.59      0.00
    2   11   13     30.81      0.00
    4   11   13    -10.69      0.00
    6   11   13     -5.01      0.00
    8   11   13      0.56      0.00
   10   11   13     -2.81      0.00
   12   11   13      2.60      0.00
   14   11   13      2.17      0.00
   16   11   13     -4.62      0.00
   18   11   13     -3.03      0.00
    1   12   13     -1.01      0.00
    3   12   13      3.83      0.00
    5   12   13     -6.20      0.00
    7   12   13      6.15      0.00
    9   12   13     -2.10      0.00
   11   12   13     -1.46      0.00
   13   12   13     -0.49      0.00
   15   12   13      1.90      0.00
   17   12   13     -1.00      0.00
    0   13   13     -5.87      0.00
    2   13   13      1.56      0.00
    4   13   13     -1.57      0.00
    6   13   13     -0.47      0.00
    8   13   13      4.08      0.00
   10   13   13     -1.87      0.00
   12   13   13     -3.23      0.00
   14   13   13      1.24      0.00
   16   13   13      0.77      0.00
   18   13   13     -3.17      0.00
    1   14   13      3.32      0.00
    3   14   13      7.08      0.00
    5   14   13      9.04      0.00
    7   14   13      1.50      0.00
    9   14   13      1.34      0.00
   11   14   13     -0.41      0.00
   13   14   13      4.99      0.00
   15   14   13      8.02      0.00
   17   14   13      1.94      0.00
    0   15   13      7.43      0.00
    2   15   13     -3.65      0.00
    4   15   13      7.73      0.00
    6   15   13      2.93      0.00
    8   15   13      2.12      0.00
   10   15   13      5.36      0.00
   12   15   13     -2.40      0.00
   14   15   13      3.83      0.00
   16   15   13      4.46      0.00
    1   16   13      1.42      0.00
    3   16   13     -8.96      0.00
    5   16   13      5.98      0.00
    7   16   13     -2.93      0.00
    9   16   13      2.17      0.00
   11   16   13      0.10      0.00
   13   16   13     -0.96      0.00
   15   16   13     -2.48      0.00
   17   16   13     -1.59      0.00
    0   17   13      8.30      0.00
    2   17   13    -16.22      0.00
    4   17   13      6.26      0.00
    6   17   13      1.71      0.00
    8   17   13     -9.14      0.00
   10   17   13      5.27      0.00
   12   17   13     -6.41      0.00
   14   17   13     -0.34      0.00
   16   17   13      5.05      0.00
    1   18   13      2.53      0.00
    3   18   13    -16.62      0.00
    5   18   13      8.70      0.00
    7   18   13     -7.61      0.00
    9   18   13      1.80      0.00
   11   18   13     -1.29      0.00
   13   18   13     -4.28      0.00
   15   18   13     -1.73      0.00
    0   19   13      5.52      0.00
    2   19   13    -12.63      0.00
    4   19   13      1.02      0.00
    6   19   13     -6.58      0.00
    8   19   13     -8.78      0.00
   10   19   13      3.95      0.00
   12   19   13     -5.10      0.00
   14   19   13     -3.28      0.00
    1   20   13      3.59      0.00
    3   20   13     -6.18      0.00
    5   20   13     10.99      0.00
    7   20   13     -5.08      0.00
    9   20   13      3.78      0.00
   11   20   13      4.02      0.00
   13   20   13     -2.58      0.00
   15   20   13     -0.78      0.00
    0   21   13     14.12      0.00
    2   21   13      0.63      0.00
    4   21   13     -0.62      0.00
    6   21   13     -0.28      0.00
    8   21   13      0.62      0.00
   10   21   13      1.93      0.00
   12   21   13     -3.96      0.00
   14   21   13     -0.61      0.00
    1   22   13      1.44      0.00
    3   22   13      0.05      0.00
    5   22   13      7.37      0.00
    7   22   13     -6.50      0.00
    9   22   13      0.11      0.00
   11   22   13      1.99      0.00
   13   22   13     -0.90      0.00
    0   23   13     -1.32      0.00
    2   23   13     -1.92      0.00
    4   23   13      3.05      0.00
    6   23   13      2.43      0.00
    8   23   13      0.61      0.00
   10   23   13      5.32      0.00
   12   23   13      1.75      0.00
    1   24   13      0.91      0.00
    3   24   13      0.61      0.00
    5   24   13     -6.06      0.00
    7   24   13     -2.69      0.00
    9   24   13     10.71      0.00
   11   24   13      3.93      0.00
    0   25   13     -2.35      0.00
    2   25   13      2.70      0.00
    4   25   13      2.29      0.00
    6   25   13     -3.12      0.00
    8   25   13      0.93      0.00
   10   25   13     -0.05      0.00
    1   26   13     -3.92      0.00
    3   26   13      9.47      0.00
    5   26   13      1.25      0.00
    7   26   13      1.52      0.00
    9   26   13      2.67      0.00
    0   27   13     -5.53      0.00
    2   27   13     -0.63      0.00
    4   27   13      1.30      0.00
    6   27   13     -3.06      0.00
    8   27   13     -0.79      0.00
    1   28   13     -3.37      0.00
    3   28   13     -0.02      0.00
    5   28   13      0.37      0.00
    0   29   13     -2.74      0.00
    2   29   13     -1.57      0.00
    0    0   14    -25.32      0.00
    2    0   14     20.27      0.00
    4    0   14      4.81      0.00
    6    0   14     -3.45      0.00
    8    0   14     -4.60      0.00
   10    0   14     11.59      0.00
   12    0   14     -0.94      0.00
   14    0   14      2.04      0.00
   16    0   14      3.83      0.00
   18    0   14     -4.36      0.00
   20    0   14     -4.83      0.00
    1    1   14     -9.93      0.00
    3    1   14     12.56      0.00
    5    1   14      1.82      0.00
    7    1   14     -0.90      0.00
    9    1   14      4.12      0.00
   11    1   14     -0.12      0.00
   13    1   14      1.20      0.00
   15    1   14     -4.51      0.00
   17    1   14      0.65      0.00
   19    1   14      0.73      0.00
    0    2   14    -14.46      0.00
    2    2   14      4.30      0.00
    4    2   14      1.97      0.00
    6    2   14     19.35      0.00
    8    2   14      6.60      0.00
   10    2   14      0.19      0.00
   12    2   14     -5.41      0.00
   14    2   14     -1.69      0.00
   16    2   14      4.78      0.00
   18    2   14      2.36      0.00
   20    2   14     -3.29      0.00
    1    3   14     27.72      0.00
    3    3   14      5.72      0.00
    5    3   14     16.12      0.00
    7    3   14     10.03      0.00
    9    3   14      1.08      0.00
   11    3   14      1.92      0.00
   13    3   14     -0.89      0.00
   15    3   14     -1.32      0.00
   17    3   14      2.39      0.00
   19    3   14      2.38      0.00
    0    4   14     17.96      0.00
    2    4   14     22.55      0.00
    4    4   14      4.98      0.00
    6    4   14      6.68      0.00
    8    4   14     -1.16      0.00
   10    4   14     -2.42      0.00
   12    4   14      4.14      0.00
   14    4   14      0.64      0.00
   16    4   14      4.89      0.00
   18    4   14      4.19      0.00
   20    4   14     -1.42      0.00
    1    5   14      3.30      0.00
    3    5   14     -1.93      0.00
    5    5   14      5.93      0.00
    7    5   14     -4.30      0.00
    9    5   14     -0.05      0.00
   11    5   14     -2.03      0.00
   13    5   14      1.08      0.00
   15    5   14      0.24      0.00
   17    5   14     -1.25      0.00
   19    5   14      0.85      0.00
    0    6   14    -20.33      0.00
    2    6   14      9.42      0.00
    4    6   14      8.98      0.00
    6    6   14     -1.69      0.00
    8    6   14     -1.53      0.00
   10    6   14      0.14      0.00
   12    6   14      4.03      0.00
   14    6   14     -1.60      0.00
   16    6   14      1.08      0.00
   18    6   14     -1.08      0.00
   20    6   14      1.83      0.00
    1    7   14      4.24      0.00
    3    7   14      4.81      0.00
    5    7   14      0.88      0.00
    7    7   14      7.71      0.00
    9    7   14      5.28      0.00
   11    7   14     -2.18      0.00
   13    7   14     -0.53      0.00
   15    7   14     -1.11      0.00
   17    7   14      1.04      0.00
   19    7   14     -1.90      0.00
    0    8   14     29.07      0.00
    2    8   14     15.01      0.00
    4    8   14      2.92      0.00
    6    8   14      1.89      0.00
    8    8   14      1.36      0.00
   10    8   14     -1.13      0.00
   12    8   14      5.78      0.00
   14    8   14     -1.95      0.00
   16    8   14     -0.20      0.00
   18    8   14     -4.52      0.00
    1    9   14      3.83      0.00
    3    9   14     -6.67      0.00
    5    9   14      9.35      0.00
    7    9   14      8.81      0.00
    9    9   14      1.90      0.00
   11    9   14     -1.03      0.00
   13    9   14     -1.49      0.00
   15    9   14     -1.36      0.00
   17    9   14      2.90      0.00
   19    9   14     -1.51      0.00
    0   10   14     -2.63      0.00
    2   10   14    -12.85      0.00
    4   10   14     -1.84      0.00
    6   10   14      4.41      0.00
    8   10   14      6.12      0.00
   10   10   14      2.84      0.00
   12   10   14      6.22      0.00
   14   10   14     -1.00      0.00
   16   10   14      2.08      0.00
   18   10   14     -1.34      0.00
    1   11   14      2.22      0.00
    3   11   14      5.49      0.00
    5   11   14     -3.22      0.00
    7   11   14     -2.57      0.00
    9   11   14      0.14      0.00
   11   11   14     -5.21      0.00
   13   11   14     -1.73      0.00
   15   11   14      1.00      0.00
   17   11   14      0.84      0.00
   19   11   14     -1.99      0.00
    0   12   14      6.32      0.00
    2   12   14      2.91      0.00
    4   12   14      4.57      0.00
    6   12   14      0.26      0.00
    8   12   14      0.10      0.00
   10   12   14     -1.91      0.00
   12   12   14      0.45      0.00
   14   12   14      0.55      0.00
   16   12   14      1.58      0.00
   18   12   14     -3.02      0.00
    1   13   14     -6.56      0.00
    3   13   14      5.49      0.00
    5   13   14    -14.43      0.00
    7   13   14      4.64      0.00
    9   13   14      1.02      0.00
   11   13   14      0.78      0.00
   13   13   14      2.87      0.00
   15   13   14     -3.64      0.00
   17   13   14     -0.77      0.00
    0   14   14     -1.21      0.00
    2   14   14     -0.26      0.00
    4   14   14     -1.26      0.00
    6   14   14     -3.29      0.00
    8   14   14     -6.31      0.00
   10   14   14     -4.83      0.00
   12   14   14     -0.28      0.00
   14   14   14     -3.60      0.00
   16   14   14      1.84      0.00
   18   14   14     -2.65      0.00
    1   15   14     -3.10      0.00
    3   15   14      0.12      0.00
    5   15   14     -3.30      0.00
    7   15   14     -2.06      0.00
    9   15   14     -7.70      0.00
   11   15   14     -5.28      0.00
   13   15   14      1.76      0.00
   15   15   14      0.07      0.00
   17   15   14      2.37      0.00
    0   16   14    -12.48      0.00
    2   16   14     -0.67      0.00
    4   16   14     -9.08      0.00
    6   16   14    -11.75      0.00
    8   16   14      1.58      0.00
   10   16   14     -2.21      0.00
   12   16   14      2.31      0.00
   14   16   14     -1.55      0.00
   16   16   14      3.21      0.00
    1   17   14     -4.09      0.00
    3   17   14      0.49      0.00
    5   17   14     -1.62      0.00
    7   17   14      1.60      0.00
    9   17   14     -0.86      0.00
   11   17   14     -1.86      0.00
   13   17   14      1.30      0.00
   15   17   14      1.52      0.00
    0   18   14     -2.81      0.00
    2   18   14      5.28      0.00
    4   18   14      2.97      0.00
    6   18   14     -1.34      0.00
    8   18   14      4.60      0.00
   10   18   14     -2.51      0.00
   12   18   14      3.00      0.00
   14   18   14      0.82      0.00
   16   18   14     -0.91      0.00
    1   19   14     -2.34      0.00
    3   19   14      4.18      0.00
    5   19   14     -2.99      0.00
    7   19   14      1.51      0.00
    9   19   14     -2.72      0.00
   11   19   14      0.67      0.00
   13   19   14      1.26      0.00
   15   19   14     -3.76      0.00
    0   20   14      1.30      0.00
    2   20   14     -0.13      0.00
    4   20   14      3.08      0.00
    6   20   14      1.10      0.00
    8   20   14      2.78      0.00
   10   20   14      1.47      0.00
   12   20   14      0.08      0.00
   14   20   14     -2.74      0.00
    1   21   14      1.46      0.00
    3   21   14      6.73      0.00
    5   21   14     -3.30      0.00
    7   21   14      0.07      0.00
    9   21   14     -1.29      0.00
   11   21   14      1.65      0.00
   13   21   14      2.22      0.00
    0   22   14     -0.26      0.00
    2   22   14      0.26      0.00
    4   22   14     -0.22      0.00
    6   22   14     -4.02      0.00
    8   22   14      3.39      0.00
   10   22   14     -1.89      0.00
   12   22   14      1.28      0.00
    1   23   14     -2.92      0.00
    3   23   14      1.13      0.00
    5   23   14     -3.35      0.00
    7   23   14      1.33      0.00
    9   23   14     -3.66      0.00
   11   23   14     -2.15      0.00
    0   24   14     -1.27      0.00
    2   24   14     -0.06      0.00
    4   24   14     -3.42      0.00
    6   24   14     -3.75      0.00
    8   24   14     -0.57      0.00
   10   24   14     -2.52      0.00
    1   25   14     -1.36      0.00
    3   25   14     -2.24      0.00
    5   25   14      0.59      0.00
    7   25   14     -0.47      0.00
    9   25   14     -1.20      0.00
    0   26   14     -3.63      0.00
    2   26   14     -0.48      0.00
    4   26   14     -2.08      0.00
    6   26   14      5.04      0.00
    8   26   14      2.61      0.00
    1   27   14     -2.72      0.00
    3   27   14      1.56      0.00
    5   27   14     -2.66      0.00
    7   27   14     -3.30      0.00
    0   28   14     -2.76      0.00
    2   28   14      0.46      0.00
    4   28   14     -2.12      0.00
    1    0   15      8.03      0.00
    3    0   15     -2.65      0.00
    5    0   15     -6.50      0.00
    7    0   15     -6.86      0.00
    9    0   15      3.58      0.00
   11    0   15     -3.17      0.00
   13    0   15     -5.22      0.00
   15    0   15     -2.32      0.00
   17    0   15     -1.53      0.00
   19    0   15      0.08      0.00
    0    1   15    -63.90      0.00
    2    1   15     19.86      0.00
    4    1   15     -1.63      0.00
    6    1   15      3.24      0.00
    8    1   15     -0.66      0.00
   10    1   15     -4.08      0.00
   12    1   15      4.30      0.00
   14    1   15      5.43      0.00
   16    1   15      1.17      0.00
   18    1   15      1.27      0.00
   20    1   15      4.42      0.00
    1    2   15     -9.07      0.00
    3    2   15     11.93      0.00
    5    2   15     -1.76      0.00
    7    2   15      0.96      0.00
    9    2   15      7.04      0.00
   11    2   15     -1.27      0.00
   13    2   15      2.32      0.00
   15    2   15      3.06      0.00
   17    2   15     -0.22      0.00
   19    2   15     -0.40      0.00
    0    3   15     20.06      0.00
    2    3   15      7.52      0.00
    4    3   15     -3.02      0.00
    6    3   15     -3.56      0.00
    8    3   15     -9.07      0.00
   10    3   15      6.60      0.00
   12    3   15     -4.21      0.00
   14    3   15      1.56      0.00
   16    3   15     -4.12      0.00
   18    3   15     -3.93      0.00
   20    3   15      2.75      0.00
    1    4   15      6.97      0.00
    3    4   15      4.57      0.00
    5    4   15     -9.91      0.00
    7    4   15     -5.12      0.00
    9    4   15      3.22      0.00
   11    4   15     -3.06      0.00
   13    4   15     -2.75      0.00
   15    4   15      0.08      0.00
   17    4   15     -2.70      0.00
   19    4   15     -5.69      0.00
    0    5   15     20.94      0.00
    2    5   15    -21.17      0.00
    4    5   15      0.13      0.00
    6    5   15      7.99      0.00
    8    5   15      1.63      0.00
   10    5   15     10.37      0.00
   12    5   15      0.65      0.00
   14    5   15      5.25      0.00
   16    5   15      1.65      0.00
   18    5   15     -2.99      0.00
   20    5   15      5.49      0.00
    1    6   15     -7.03      0.00
    3    6   15    -30.95      0.00
    5    6   15     20.94      0.00
    7    6   15     -8.81      0.00
    9    6   15      3.64      0.00
   11    6   15      5.44      0.00
   13    6   15      0.21      0.00
   15    6   15      4.95      0.00
   17    6   15      2.12      0.00
   19    6   15      1.38      0.00
    0    7   15     28.51      0.00
    2    7   15    -19.19      0.00
    4    7   15      6.60      0.00
    6    7   15      0.92      0.00
    8    7   15     -5.64      0.00
   10    7   15      1.79      0.00
   12    7   15     -3.09      0.00
   14    7   15     -1.74      0.00
   16    7   15      1.06      0.00
   18    7   15     -2.74      0.00
    1    8   15     27.54      0.00
    3    8   15    -10.47      0.00
    5    8   15     21.30      0.00
    7    8   15    -17.96      0.00
    9    8   15      2.84      0.00
   11    8   15      0.07      0.00
   13    8   15     -2.61      0.00
   15    8   15      3.79      0.00
   17    8   15      2.03      0.00
   19    8   15      6.81      0.00
    0    9   15     19.90      0.00
    2    9   15    -33.15      0.00
    4    9   15     14.09      0.00
    6    9   15      5.55      0.00
    8    9   15    -10.34      0.00
   10    9   15      6.63      0.00
   12    9   15      3.35      0.00
   14    9   15      0.98      0.00
   16    9   15      1.43      0.00
   18    9   15      0.28      0.00
    1   10   15     -2.78      0.00
    3   10   15    -20.58      0.00
    5   10   15      0.60      0.00
    7   10   15     -4.62      0.00
    9   10   15      1.91      0.00
   11   10   15     -0.59      0.00
   13   10   15      0.42      0.00
   15   10   15     -0.39      0.00
   17   10   15      1.62      0.00
   19   10   15     -3.36      0.00
    0   11   15     20.47      0.00
    2   11   15     -9.66      0.00
    4   11   15      8.98      0.00
    6   11   15      4.94      0.00
    8   11   15    -10.21      0.00
   10   11   15      4.60      0.00
   12   11   15      2.69      0.00
   14   11   15     -5.54      0.00
   16   11   15     -0.31      0.00
   18   11   15      2.32      0.00
    1   12   15     -0.66      0.00
    3   12   15    -14.46      0.00
    5   12   15     11.31      0.00
    7   12   15     -0.50      0.00
    9   12   15     -1.69      0.00
   11   12   15      0.83      0.00
   13   12   15      0.42      0.00
   15   12   15     -6.09      0.00
   17   12   15      1.79      0.00
    0   13   15     -6.85      0.00
    2   13   15      1.74      0.00
    4   13   15     -7.55      0.00
    6   13   15      0.70      0.00
    8   13   15     -3.37      0.00
   10   13   15     -0.57      0.00
   12   13   15      0.58      0.00
   14   13   15     -2.38      0.00
   16   13   15      1.81      0.00
   18   13   15      3.27      0.00
    1   14   15      1.03      0.00
    3   14   15      5.58      0.00
    5   14   15      1.81      0.00
    7   14   15      0.56      0.00
    9   14   15     -1.39      0.00
   11   14   15     -3.45      0.00
   13   14   15      0.63      0.00
   15   14   15     -0.37      0.00
   17   14   15      2.22      0.00
    0   15   15     -5.49      0.00
    2   15   15      6.03      0.00
    4   15   15     -6.77      0.00
    6   15   15      4.58      0.00
    8   15   15      0.59      0.00
   10   15   15     -0.93      0.00
   12   15   15      2.95      0.00
   14   15   15     -4.70      0.00
   16   15   15     -5.78      0.00
    1   16   15     -7.04      0.00
    3   16   15      9.99      0.00
    5   16   15    -13.92      0.00
    7   16   15      8.69      0.00
    9   16   15      1.04      0.00
   11   16   15      1.30      0.00
   13   16   15      3.53      0.00
   15   16   15     -5.47      0.00
    0   17   15     -7.79      0.00
    2   17   15     11.56      0.00
    4   17   15     -6.62      0.00
    6   17   15     -2.80      0.00
    8   17   15     -3.09      0.00
   10   17   15     -6.88      0.00
   12   17   15     -0.27      0.00
   14   17   15     -2.58      0.00
   16   17   15     -0.01      0.00
    1   18   15      4.45      0.00
    3   18   15     15.43      0.00
    5   18   15     -4.18      0.00
    7   18   15      7.41      0.00
    9   18   15     -0.70      0.00
   11   18   15      3.47      0.00
   13   18   15      7.79      0.00
   15   18   15     -0.84      0.00
    0   19   15    -12.72      0.00
    2   19   15     16.48      0.00
    4   19   15     -2.32      0.00
    6   19   15      1.52      0.00
    8   19   15     13.11      0.00
   10   19   15     -3.86      0.00
   12   19   15      1.65      0.00
   14   19   15      3.57      0.00
    1   20   15     -3.66      0.00
    3   20   15      1.31      0.00
    5   20   15     -3.04      0.00
    7   20   15      3.62      0.00
    9   20   15     -4.33      0.00
   11   20   15     -3.76      0.00
   13   20   15     -0.14      0.00
    0   21   15    -11.67      0.00
    2   21   15      5.54      0.00
    4   21   15     -4.93      0.00
    6   21   15     -3.05      0.00
    8   21   15      3.56      0.00
   10   21   15     -3.32      0.00
   12   21   15      4.21      0.00
    1   22   15     -0.57      0.00
    3   22   15     -0.51      0.00
    5   22   15      5.61      0.00
    7   22   15      2.94      0.00
    9   22   15      0.11      0.00
   11   22   15      1.24      0.00
   13   22   15      1.61      0.00
    0   23   15     -2.53      0.00
    2   23   15     -1.17      0.00
    4   23   15     -4.48      0.00
    6   23   15     -0.03      0.00
    8   23   15      0.13      0.00
   10   23   15     -1.62      0.00
   12   23   15     -2.47      0.00
    1   24   15      0.76      0.00
    3   24   15     -3.49      0.00
    5   24   15     -1.25      0.00
    7   24   15     -5.80      0.00
    9   24   15     -2.63      0.00
   11   24   15      0.49      0.00
    0   25   15      5.16      0.00
    2   25   15     -2.60      0.00
    4   25   15      0.33      0.00
    6   25   15     -0.23      0.00
    8   25   15      0.81      0.00
   10   25   15     -7.45      0.00
    1   26   15      4.03      0.00
    3   26   15     -3.09      0.00
    5   26   15     -0.15      0.00
    7   26   15     -2.11      0.00
    0   27   15      4.18      0.00
    2   27   15     -4.12      0.00
    4   27   15      2.44      0.00
    6   27   15      0.31      0.00
    1   28   15     10.59      0.00
    3   28   15     -0.28      0.00
    0    0   16     99.18      0.00
    2    0   16    -12.22      0.00
    4    0   16     -3.16      0.00
    6    0   16      1.14      0.00
    8    0   16      0.16      0.00
   10    0   16      3.06      0.00
   12    0   16     -3.56      0.00
   14    0   16      3.94      0.00
   16    0   16     -2.21      0.00
   18    0   16      3.51      0.00
   20    0   16     -6.29      0.00
    1    1   16      5.44      0.00
    3    1   16      0.97      0.00
    5    1   16     -7.34      0.00
    7    1   16      0.87      0.00
    9    1   16     -3.15      0.00
   11    1   16     -3.71      0.00
   13    1   16      0.56      0.00
   15    1   16     -2.55      0.00
   17    1   16     -0.80      0.00
   19    1   16     -6.02      0.00
    0    2   16     -1.31      0.00
    2    2   16    -17.99      0.00
    4    2   16     -1.72      0.00
    6    2   16     -8.01      0.00
    8    2   16     -5.56      0.00
   10    2   16     -7.00      0.00
   12    2   16     -1.91      0.00
   14    2   16     -0.85      0.00
   16    2   16     -0.19      0.00
   18    2   16      4.42      0.00
   20    2   16     -0.92      0.00
    1    3   16    -22.90      0.00
    3    3   16    -15.05      0.00
    5    3   16      2.98      0.00
    7    3   16     -4.85      0.00
    9    3   16      0.91      0.00
   11    3   16     -6.69      0.00
   13    3   16     -2.04      0.00
   15    3   16     -2.74      0.00
   17    3   16     -3.22      0.00
   19    3   16     -1.04      0.00
    0    4   16    -17.87      0.00
    2    4   16      9.18      0.00
    4    4   16      4.79      0.00
    6    4   16     -5.25      0.00
    8    4   16     -0.65      0.00
   10    4   16     -1.91      0.00
   12    4   16      2.00      0.00
   14    4   16     -5.57      0.00
   16    4   16     -3.22      0.00
   18    4   16      3.40      0.00
    1    5   16     -8.74      0.00
    3    5   16     -1.46      0.00
    5    5   16     -6.37      0.00
    7    5   16     -2.93      0.00
    9    5   16      0.86      0.00
   11    5   16     -5.01      0.00
   13    5   16      0.97      0.00
   15    5   16      1.64      0.00
   17    5   16     -0.45      0.00
   19    5   16      2.65      0.00
    0    6   16     -7.77      0.00
    2    6   16    -12.03      0.00
    4    6   16     -0.36      0.00
    6    6   16      4.67      0.00
    8    6   16     -8.06      0.00
   10    6   16      1.04      0.00
   12    6   16     -3.16      0.00
   14    6   16     -1.87      0.00
   16    6   16     -3.03      0.00
   18    6   16      6.98      0.00
    1    7   16      6.46      0.00
    3    7   16      8.78      0.00
    5    7   16    -15.66      0.00
    7    7   16      5.29      0.00
    9    7   16      0.09      0.00
   11    7   16     -6.29      0.00
   13    7   16     -2.94      0.00
   15    7   16      0.08      0.00
   17    7   16      0.84      0.00
   19    7   16     -4.70      0.00
    0    8   16     -5.39      0.00
    2    8   16     12.32      0.00
    4    8   16     -3.55      0.00
    6    8   16      1.35      0.00
    8    8   16     -8.39      0.00
   10    8   16      3.07      0.00
   12    8   16      1.10      0.00
   14    8   16      2.31      0.00
   16    8   16     -5.69      0.00
   18    8   16     -4.27      0.00
    1    9   16    -27.97      0.00
    3    9   16     -7.84      0.00
    5    9   16     -2.44      0.00
    7    9   16     -0.08      0.00
    9    9   16      1.06      0.00
   11    9   16      1.10      0.00
   13    9   16     -0.79      0.00
   15    9   16      2.39      0.00
   17    9   16      4.13      0.00
   19    9   16     -0.85      0.00
    0   10   16     -3.96      0.00
    2   10   16     18.97      0.00
    4   10   16    -14.79      0.00
    6   10   16      1.06      0.00
    8   10   16     -0.45      0.00
   10   10   16      3.16      0.00
   12   10   16     -2.32      0.00
   14   10   16      0.38      0.00
   16   10   16     -3.81      0.00
   18   10   16     -1.68      0.00
    1   11   16     12.21      0.00
    3   11   16      7.66      0.00
    5   11   16      3.63      0.00
    7   11   16     -5.83      0.00
    9   11   16     -1.17      0.00
   11   11   16     -0.98      0.00
   13   11   16     -1.40      0.00
   15   11   16      3.86      0.00
   17   11   16     -2.54      0.00
    0   12   16     -5.31      0.00
    2   12   16     -9.70      0.00
    4   12   16     -5.95      0.00
    6   12   16      5.63      0.00
    8   12   16     -4.81      0.00
   10   12   16      4.51      0.00
   12   12   16     -1.23      0.00
   14   12   16      0.14      0.00
   16   12   16      1.26      0.00
   18   12   16      0.32      0.00
    1   13   16      2.09      0.00
    3   13   16     -5.85      0.00
    5   13   16     -2.73      0.00
    7   13   16     -0.23      0.00
    9   13   16      0.57      0.00
   11   13   16      1.30      0.00
   13   13   16      0.69      0.00
   15   13   16     -1.68      0.00
   17   13   16     -6.31      0.00
    0   14   16      6.30      0.00
    2   14   16      0.97      0.00
    4   14   16      7.98      0.00
    6   14   16      1.37      0.00
    8   14   16     -5.73      0.00
   10   14   16      8.01      0.00
   12   14   16     -1.89      0.00
   14   14   16     -2.75      0.00
   16   14   16      3.73      0.00
    1   15   16      7.75      0.00
    3   15   16     -4.89      0.00
    5   15   16     12.08      0.00
    7   15   16      3.89      0.00
    9   15   16      5.41      0.00
   11   15   16      2.25      0.00
   13   15   16      0.84      0.00
   15   15   16     -0.82      0.00
   17   15   16     -2.03      0.00
    0   16   16      6.88      0.00
    2   16   16      1.12      0.00
    4   16   16      2.02      0.00
    6   16   16      3.72      0.00
    8   16   16      3.02      0.00
   10   16   16      6.90      0.00
   12   16   16     -4.55      0.00
   14   16   16      3.40      0.00
   16   16   16     -0.78      0.00
    1   17   16     -4.57      0.00
    3   17   16     -7.39      0.00
    5   17   16     12.43      0.00
    7   17   16     -2.37      0.00
    9   17   16      2.52      0.00
   11   17   16      3.33      0.00
   13   17   16      5.16      0.00
   15   17   16      3.77      0.00
    0   18   16     12.41      0.00
    2   18   16     -4.40      0.00
    4   18   16     -0.91      0.00
    6   18   16      1.55      0.00
    8   18   16      2.00      0.00
   10   18   16      8.66      0.00
   12   18   16     -4.79      0.00
   14   18   16      1.04      0.00
    1   19   16      2.60      0.00
    3   19   16     -2.07      0.00
    5   19   16      2.79      0.00
    7   19   16     -6.10      0.00
    9   19   16     -3.90      0.00
   11   19   16     -6.97      0.00
   13   19   16     -6.94      0.00
    0   20   16      1.66      0.00
    2   20   16    -10.06      0.00
    4   20   16     -3.41      0.00
    6   20   16      0.28      0.00
    8   20   16     -2.72      0.00
   10   20   16      2.12      0.00
   12   20   16     -4.65      0.00
   14   20   16      4.42      0.00
    1   21   16     -1.95      0.00
    3   21   16     -2.64      0.00
    5   21   16      1.39      0.00
    7   21   16     -0.28      0.00
    9   21   16      1.66      0.00
   11   21   16     -1.10      0.00
   13   21   16     -2.01      0.00
    0   22   16      4.83      0.00
    2   22   16      0.33      0.00
    4   22   16      5.02      0.00
    6   22   16      5.63      0.00
    8   22   16      4.74      0.00
   10   22   16      1.30      0.00
   12   22   16     -4.10      0.00
    1   23   16      2.79      0.00
    3   23   16      0.91      0.00
    5   23   16      6.71      0.00
    7   23   16      2.55      0.00
    9   23   16     -3.49      0.00
   11   23   16     -1.10      0.00
    0   24   16      7.46      0.00
    2   24   16      2.41      0.00
    4   24   16      0.84      0.00
    6   24   16     -0.31      0.00
    8   24   16      1.42      0.00
   10   24   16      2.92      0.00
    1   25   16     -2.10      0.00
    3   25   16     -0.40      0.00
    5   25   16      5.59      0.00
    7   25   16     -2.33      0.00
    9   25   16     -1.56      0.00
    0   26   16     -5.70      0.00
    2   26   16     -3.69      0.00
    4   26   16     -5.67      0.00
    6   26   16      1.33      0.00
    8   26   16     -1.33      0.00
    1   27   16      5.82      0.00
    3   27   16      1.29      0.00
    5   27   16      2.02      0.00
    0   28   16      5.67      0.00
    2   28   16      6.06      0.00
    1    0   17      0.15      0.00
    3    0   17      7.25      0.00
    5    0   17     18.16      0.00
    7    0   17     -3.21      0.00
    9    0   17      2.47      0.00
   11    0   17      3.75      0.00
   13    0   17      2.25      0.00
   15    0   17     -0.64      0.00
   17    0   17     -1.70      0.00
   19    0   17      3.39      0.00
    0    1   17    -18.38      0.00
    2    1   17     -2.98      0.00
    4    1   17      1.67      0.00
    6    1   17     -4.57      0.00
    8    1   17     -0.50      0.00
   10    1   17      0.92      0.00
   12    1   17      5.29      0.00
   14    1   17     -2.63      0.00
   16    1   17      5.32      0.00
   18    1   17      2.04      0.00
    1    2   17    -16.93      0.00
    3    2   17    -17.32      0.00
    5    2   17     -0.34      0.00
    7    2   17      0.97      0.00
    9    2   17     -0.26      0.00
   11    2   17      2.00      0.00
   13    2   17     -3.48      0.00
   15    2   17     -4.00      0.00
   17    2   17     -1.74      0.00
   19    2   17     -1.97      0.00
    0    3   17     50.60      0.00
    2    3   17      5.57      0.00
    4    3   17     -4.69      0.00
    6    3   17      9.25      0.00
    8    3   17      2.26      0.00
   10    3   17      1.16      0.00
   12    3   17      4.26      0.00
   14    3   17      0.42      0.00
   16    3   17      1.44      0.00
   18    3   17      1.61      0.00
    1    4   17      8.88      0.00
    3    4   17      7.57      0.00
    5    4   17     -2.14      0.00
    7    4   17      2.76      0.00
    9    4   17     -3.83      0.00
   11    4   17     -0.79      0.00
   13    4   17      1.23      0.00
   15    4   17      0.14      0.00
   17    4   17      4.29      0.00
   19    4   17      0.15      0.00
    0    5   17    -32.91      0.00
    2    5   17      0.30      0.00
    4    5   17     -6.04      0.00
    6    5   17     -0.50      0.00
    8    5   17      0.46      0.00
   10    5   17     -4.65      0.00
   12    5   17      2.86      0.00
   14    5   17     -1.83      0.00
   16    5   17     -1.98      0.00
   18    5   17     -3.18      0.00
    1    6   17     -6.68      0.00
    3    6   17     16.00      0.00
    5    6   17     -7.55      0.00
    7    6   17      1.83      0.00
    9    6   17      1.22      0.00
   11    6   17     -0.43      0.00
   13    6   17      4.99      0.00
   15    6   17     -1.81      0.00
   17    6   17      1.65      0.00
   19    6   17      1.23      0.00
    0    7   17    -13.90      0.00
    2    7   17     34.95      0.00
    4    7   17     -0.12      0.00
    6    7   17     -5.22      0.00
    8    7   17      4.15      0.00
   10    7   17     -1.72      0.00
   12    7   17      6.37      0.00
   14    7   17      1.34      0.00
   16    7   17      0.73      0.00
   18    7   17      1.16      0.00
    1    8   17    -13.81      0.00
    3    8   17      4.12      0.00
    5    8   17     -5.48      0.00
    7    8   17      8.24      0.00
    9    8   17     -4.47      0.00
   11    8   17     -5.24      0.00
   13    8   17      5.59      0.00
   15    8   17     -0.93      0.00
   17    8   17     -1.38      0.00
   19    8   17      2.12      0.00
    0    9   17    -14.69      0.00
    2    9   17      2.71      0.00
    4    9   17     -4.72      0.00
    6    9   17      0.53      0.00
    8    9   17      3.55      0.00
   10    9   17     -2.06      0.00
   12    9   17     -1.42      0.00
   14    9   17     -3.48      0.00
   16    9   17     -1.49      0.00
   18    9   17     -2.15      0.00
    1   10   17      6.65      0.00
    3   10   17     10.95      0.00
    5   10   17     -7.21      0.00
    7   10   17      2.60      0.00
    9   10   17     -1.69      0.00
   11   10   17     -5.79      0.00
   13   10   17      3.71      0.00
   15   10   17     -2.98      0.00
   17   10   17     -0.30      0.00
    0   11   17    -12.95      0.00
    2   11   17      8.75      0.00
    4   11   17      5.80      0.00
    6   11   17     -1.78      0.00
    8   11   17      2.45      0.00
   10   11   17     -1.74      0.00
   12   11   17     -2.03      0.00
   14   11   17     -0.60      0.00
   16   11   17      4.58      0.00
   18   11   17      2.03      0.00
    1   12   17     -4.26      0.00
    3   12   17      7.01      0.00
    5   12   17     -1.86      0.00
    7   12   17      3.69      0.00
    9   12   17      4.82      0.00
   11   12   17     -3.10      0.00
   13   12   17      8.38      0.00
   15   12   17      4.72      0.00
   17   12   17      5.18      0.00
    0   13   17     -0.10      0.00
    2   13   17      5.33      0.00
    4   13   17     -2.16      0.00
    6   13   17     -8.86      0.00
    8   13   17     -0.59      0.00
   10   13   17      1.27      0.00
   12   13   17      1.76      0.00
   14   13   17      4.16      0.00
   16   13   17     -0.67      0.00
    1   14   17      3.15      0.00
    3   14   17     -5.15      0.00
    5   14   17      0.05      0.00
    7   14   17     -0.70      0.00
    9   14   17      4.02      0.00
   11   14   17     -3.41      0.00
   13   14   17     -1.70      0.00
   15   14   17      1.41      0.00
   17   14   17      0.19      0.00
    0   15   17     10.79      0.00
    2   15   17     -2.93      0.00
    4   15   17      6.96      0.00
    6   15   17     -0.96      0.00
    8   15   17     -3.45      0.00
   10   15   17     -2.79      0.00
   12   15   17     -0.45      0.00
   14   15   17     -0.74      0.00
   16   15   17      0.32      0.00
    1   16   17      2.02      0.00
    3   16   17     -4.75      0.00
    5   16   17      4.60      0.00
    7   16   17     -5.97      0.00
    9   16   17     -1.10      0.00
   11   16   17      0.56      0.00
   13   16   17     -3.08      0.00
   15   16   17      4.48      0.00
    0   17   17      5.45      0.00
    2   17   17     -9.70      0.00
    4   17   17      4.05      0.00
    6   17   17     -3.42      0.00
    8   17   17     -3.77      0.00
   10   17   17     -1.78      0.00
   12   17   17      0.18      0.00
   14   17   17     -2.66      0.00
    1   18   17      1.42      0.00
    3   18   17     -7.59      0.00
    5   18   17      3.89      0.00
    7   18   17     -6.09      0.00
    9   18   17     -1.14      0.00
   11   18   17      4.40      0.00
   13   18   17     -1.62      0.00
   15   18   17      1.36      0.00
    0   19   17     10.44      0.00
    2   19   17     -6.91      0.00
    4   19   17      2.85      0.00
    6   19   17     -2.17      0.00
    8   19   17     -1.96      0.00
   10   19   17      0.65      0.00
   12   19   17     -0.29      0.00
   14   19   17      0.81      0.00
    1   20   17     -0.68      0.00
    3   20   17     -8.12      0.00
    5   20   17      3.92      0.00
    7   20   17     -5.00      0.00
    9   20   17     -6.86      0.00
   11   20   17      3.47      0.00
   13   20   17      3.04      0.00
    0   21   17      3.58      0.00
    2   21   17     -5.79      0.00
    4   21   17      2.33      0.00
    6   21   17     -8.03      0.00
    8   21   17     -3.13      0.00
   10   21   17      5.36      0.00
   12   21   17      2.37      0.00
    1   22   17      3.15      0.00
    3   22   17      0.44      0.00
    5   22   17     -2.82      0.00
    7   22   17     -2.21      0.00
    9   22   17      1.53      0.00
   11   22   17      8.15      0.00
    0   23   17     -0.08      0.00
    2   23   17     -2.52      0.00
    4   23   17     -4.82      0.00
    6   23   17     -2.55      0.00
    8   23   17      2.59      0.00
   10   23   17      1.11      0.00
    1   24   17     -0.44      0.00
    3   24   17      9.92      0.00
    5   24   17      3.81      0.00
    7   24   17      1.66      0.00
    9   24   17     -2.55      0.00
    0   25   17     -5.93      0.00
    2   25   17      2.23      0.00
    4   25   17     -1.96      0.00
    6   25   17      6.08      0.00
    8   25   17      1.62      0.00
    1   26   17     -0.55      0.00
    3   26   17      1.92      0.00
    5   26   17     -0.91      0.00
    7   26   17      4.44      0.00
    0   27   17    -10.70      0.00
    2   27   17     -1.62      0.00
    4   27   17      1.74      0.00
    1   28   17     -6.82      0.00
    0    0   18     30.31      0.00
    2    0   18     15.08      0.00
    4    0   18     -5.10      0.00
    6    0   18     16.23      0.00
    8    0   18     -0.13      0.00
   10    0   18     -4.74      0.00
   12    0   18     -0.94      0.00
   14    0   18     -0.34      0.00
   16    0   18      1.74      0.00
   18    0   18      6.51      0.00
    1    1   18     -4.90      0.00
    3    1   18     -5.15      0.00
    5    1   18      7.15      0.00
    7    1   18      4.62      0.00
    9    1   18      3.02      0.00
   11    1   18      2.54      0.00
   13    1   18     -3.78      0.00
   15    1   18      7.27      0.00
   17    1   18     -4.72      0.00
   19    1   18     -3.96      0.00
    0    2   18      4.89      0.00
    2    2   18     12.17      0.00
    4    2   18     -0.75      0.00
    6    2   18      3.21      0.00
    8    2   18      2.35      0.00
   10    2   18      6.74      0.00
   12    2   18      6.86      0.00
   14    2   18      3.66      0.00
   16    2   18      0.71      0.00
   18    2   18      1.26      0.00
    1    3   18     -1.09      0.00
    3    3   18     16.61      0.00
    5    3   18     -1.23      0.00
    7    3   18     -3.60      0.00
    9    3   18      2.26      0.00
   11    3   18      2.09      0.00
   13    3   18      0.57      0.00
   15    3   18      6.62      0.00
   17    3   18      0.58      0.00
   19    3   18      2.58      0.00
    0    4   18      4.48      0.00
    2    4   18      6.73      0.00
    4    4   18      9.27      0.00
    6    4   18      6.07      0.00
    8    4   18      1.30      0.00
   10    4   18     -1.29      0.00
   12    4   18     -0.37      0.00
   14    4   18      0.05      0.00
   16    4   18     -2.11      0.00
   18    4   18     -0.62      0.00
    1    5   18      5.98      0.00
    3    5   18     -7.02      0.00
    5    5   18      3.56      0.00
    7    5   18      5.19      0.00
    9    5   18      4.04      0.00
   11    5   18      3.67      0.00
   13    5   18     -3.06      0.00
   15    5   18      2.36      0.00
   17    5   18     -0.66      0.00
   19    5   18     -4.99      0.00
    0    6   18     24.82      0.00
    2    6   18     -4.44      0.00
    4    6   18     -5.26      0.00
    6    6   18      0.91      0.00
    8    6   18      3.83      0.00
   10    6   18     -2.97      0.00
   12    6   18      0.55      0.00
   14    6   18      0.63      0.00
   16    6   18      0.53      0.00
   18    6   18     -1.37      0.00
    1    7   18      6.00      0.00
    3    7   18     -6.44      0.00
    5    7   18      8.13      0.00
    7    7   18     -7.39      0.00
    9    7   18      1.36      0.00
   11    7   18     -1.77      0.00
   13    7   18     -6.73      0.00
   15    7   18     -1.80      0.00
   17    7   18     -0.81      0.00
    0    8   18      3.19      0.00
    2    8   18     -6.30      0.00
    4    8   18      4.44      0.00
    6    8   18     -0.30      0.00
    8    8   18     11.50      0.00
   10    8   18     -1.83      0.00
   12    8   18     -0.14      0.00
   14    8   18     -3.12      0.00
   16    8   18     -0.59      0.00
   18    8   18      1.42      0.00
    1    9   18     -6.71      0.00
    3    9   18      7.61      0.00
    5    9   18     -1.69      0.00
    7    9   18     -1.93      0.00
    9    9   18      8.33      0.00
   11    9   18      1.73      0.00
   13    9   18      2.61      0.00
   15    9   18      1.64      0.00
   17    9   18      1.16      0.00
    0   10   18     19.69      0.00
    2   10   18      1.48      0.00
    4   10   18      3.98      0.00
    6   10   18     -6.99      0.00
    8   10   18      4.03      0.00
   10   10   18     -4.85      0.00
   12   10   18      0.01      0.00
   14   10   18     -0.78      0.00
   16   10   18     -1.95      0.00
   18   10   18     -1.90      0.00
    1   11   18     -0.04      0.00
    3   11   18      3.05      0.00
    5   11   18      3.59      0.00
    7   11   18      6.27      0.00
    9   11   18      2.90      0.00
   11   11   18      2.30      0.00
   13   11   18      2.05      0.00
   15   11   18      0.45      0.00
   17   11   18     -2.83      0.00
    0   12   18      2.26      0.00
    2   12   18     -4.04      0.00
    4   12   18     -1.06      0.00
    6   12   18     -1.89      0.00
    8   12   18      4.98      0.00
   10   12   18     -5.05      0.00
   12   12   18     -0.61      0.00
   14   12   18     -3.78      0.00
   16   12   18     -1.26      0.00
    1   13   18     -4.11      0.00
    3   13   18      4.45      0.00
    5   13   18      6.65      0.00
    7   13   18      3.26      0.00
    9   13   18      0.60      0.00
   11   13   18      1.56      0.00
   13   13   18     -2.16      0.00
   15   13   18      1.39      0.00
   17   13   18     -2.87      0.00
    0   14   18    -16.58      0.00
    2   14   18      1.90      0.00
    4   14   18     -2.77      0.00
    6   14   18     -0.65      0.00
    8   14   18      6.59      0.00
   10   14   18     -3.97      0.00
   12   14   18      2.39      0.00
   14   14   18      0.99      0.00
   16   14   18      4.77      0.00
    1   15   18    -13.31      0.00
    3   15   18     -0.32      0.00
    5   15   18    -11.40      0.00
    7   15   18     -0.30      0.00
    9   15   18     -3.47      0.00
   11   15   18     -0.32      0.00
   13   15   18     -0.22      0.00
   15   15   18     -3.19      0.00
    0   16   18     -9.02      0.00
    2   16   18      5.24      0.00
    4   16   18     -3.34      0.00
    6   16   18      3.03      0.00
    8   16   18      1.19      0.00
   10   16   18     -4.36      0.00
   12   16   18     -3.16      0.00
   14   16   18     -2.12      0.00
   16   16   18      5.94      0.00
    1   17   18     -2.56      0.00
    3   17   18      2.78      0.00
    5   17   18     -8.67      0.00
    7   17   18      3.20      0.00
    9   17   18     -5.89      0.00
   11   17   18     -3.19      0.00
   13   17   18     -1.62      0.00
   15   17   18     -3.63      0.00
    0   18   18     -6.09      0.00
    2   18   18      6.54      0.00
    4   18   18     -5.04      0.00
    6   18   18     -0.92      0.00
    8   18   18     -1.57      0.00
   10   18   18      1.38      0.00
   12   18   18      3.97      0.00
   14   18   18     -5.34      0.00
    1   19   18     -5.26      0.00
    3   19   18      6.13      0.00
    5   19   18     -2.97      0.00
    7   19   18      6.57      0.00
    9   19   18      0.45      0.00
   11   19   18      2.78      0.00
   13   19   18     -7.73      0.00
    0   20   18     -6.08      0.00
    2   20   18      7.10      0.00
    4   20   18     -1.85      0.00
    6   20   18      3.13      0.00
    8   20   18      0.41      0.00
   10   20   18     -3.73      0.00
   12   20   18      0.56      0.00
    1   21   18     -0.43      0.00
    3   21   18      3.08      0.00
    5   21   18     -3.43      0.00
    7   21   18      0.16      0.00
    9   21   18     -2.60      0.00
   11   21   18     -0.72      0.00
    0   22   18     -2.38      0.00
    2   22   18      3.90      0.00
    4   22   18     -2.69      0.00
    6   22   18      3.42      0.00
    8   22   18     -1.89      0.00
   10   22   18     -1.18      0.00
    1   23   18      0.79      0.00
    3   23   18      0.80      0.00
    5   23   18     -2.01      0.00
    7   23   18     -0.71      0.00
    9   23   18     -0.14      0.00
    0   24   18     -2.87      0.00
    2   24   18     -2.28      0.00
    4   24   18      0.62      0.00
    6   24   18     -5.03      0.00
    8   24   18      3.69      0.00
    1   25   18     -0.79      0.00
    3   25   18      3.16      0.00
    5   25   18     -4.09      0.00
    7   25   18      1.94      0.00
    2   26   18     -2.25      0.00
    4   26   18     -2.10      0.00
    6   26   18    -22.66      0.00
    1   27   18     -0.35      0.00
    3   27   18      2.25      0.00
    1    0   19    -11.16      0.00
    3    0   19     17.88      0.00
    5    0   19     -8.95      0.00
    7    0   19      5.54      0.00
    9    0   19      9.15      0.00
   11    0   19      1.87      0.00
   13    0   19      3.78      0.00
   15    0   19     -1.78      0.00
   17    0   19      1.73      0.00
   19    0   19     -3.00      0.00
    0    1   19      8.79      0.00
    2    1   19     -1.45      0.00
    4    1   19      7.43      0.00
    6    1   19     -8.90      0.00
    8    1   19     -4.21      0.00
   10    1   19     -0.86      0.00
   12    1   19     -3.29      0.00
   14    1   19      0.10      0.00
   16    1   19     -7.56      0.00
   18    1   19      3.18      0.00
    1    2   19     -0.14      0.00
    3    2   19     -5.24      0.00
    5    2   19     -6.12      0.00
    7    2   19     -6.94      0.00
    9    2   19     -4.95      0.00
   11    2   19     -6.97      0.00
   13    2   19     -7.41      0.00
   15    2   19     -4.51      0.00
   17    2   19     -2.45      0.00
   19    2   19     -9.81      0.00
    0    3   19     -8.42      0.00
    2    3   19     -3.92      0.00
    4    3   19      1.47      0.00
    6    3   19      1.49      0.00
    8    3   19      5.62      0.00
   10    3   19     -2.46      0.00
   12    3   19     -0.68      0.00
   14    3   19      2.90      0.00
   16    3   19     -0.94      0.00
   18    3   19      1.03      0.00
    1    4   19     -3.36      0.00
    3    4   19     -9.60      0.00
    5    4   19     14.32      0.00
    7    4   19     -4.22      0.00
    9    4   19      1.42      0.00
   11    4   19      0.89      0.00
   13    4   19     -2.05      0.00
   15    4   19      1.72      0.00
   17    4   19     -2.43      0.00
   19    4   19     -2.39      0.00
    0    5   19     11.01      0.00
    2    5   19     -4.01      0.00
    4    5   19      1.12      0.00
    6    5   19    -11.57      0.00
    8    5   19     -1.52      0.00
   10    5   19      3.08      0.00
   12    5   19     -0.63      0.00
   14    5   19      1.01      0.00
   16    5   19     -1.78      0.00
   18    5   19      0.09      0.00
    1    6   19     -0.80      0.00
    3    6   19      2.05      0.00
    5    6   19      1.94      0.00
    7    6   19     -3.98      0.00
    9    6   19     -3.88      0.00
   11    6   19     -1.61      0.00
   13    6   19      0.37      0.00
   15    6   19      3.12      0.00
   17    6   19      0.84      0.00
    0    7   19      9.40      0.00
    2    7   19    -18.15      0.00
    4    7   19      5.66      0.00
    6    7   19      0.45      0.00
    8    7   19     -2.16      0.00
   10    7   19      5.36      0.00
   12    7   19     -0.42      0.00
   14    7   19      4.18      0.00
   16    7   19      2.75      0.00
   18    7   19      2.65      0.00
    1    8   19      1.91      0.00
    3    8   19    -15.12      0.00
    5    8   19      3.60      0.00
    7    8   19      1.58      0.00
    9    8   19     -5.54      0.00
   11    8   19      5.59      0.00
   13    8   19      1.38      0.00
   15    8   19      2.25      0.00
   17    8   19     -3.45      0.00
    0    9   19      6.74      0.00
    2    9   19     -0.97      0.00
    4    9   19     -3.88      0.00
    6    9   19     -4.75      0.00
    8    9   19     -6.06      0.00
   10    9   19      2.11      0.00
   12    9   19     -3.73      0.00
   14    9   19     -1.99      0.00
   16    9   19      2.68      0.00
   18    9   19      2.05      0.00
    1   10   19      8.20      0.00
    3   10   19     -6.64      0.00
    5   10   19     12.82      0.00
    7   10   19     -3.70      0.00
    9   10   19     -4.83      0.00
   11   10   19      5.04      0.00
   13   10   19     -3.64      0.00
   15   10   19      0.51      0.00
   17   10   19     -0.62      0.00
    0   11   19    -12.18      0.00
    2   11   19     -3.34      0.00
    4   11   19     -8.81      0.00
    6   11   19     -3.31      0.00
    8   11   19     -1.24      0.00
   10   11   19      1.83      0.00
   12   11   19     -0.68      0.00
   14   11   19      1.81      0.00
   16   11   19      0.98      0.00
    1   12   19     -4.77      0.00
    3   12   19      1.72      0.00
    5   12   19     -4.59      0.00
    7   12   19     -0.42      0.00
    9   12   19     -4.04      0.00
   11   12   19      0.87      0.00
   13   12   19     -2.63      0.00
   15   12   19     -0.37      0.00
   17   12   19      1.69      0.00
    0   13   19     11.66      0.00
    2   13   19      5.34      0.00
    4   13   19      1.25      0.00
    6   13   19      2.61      0.00
    8   13   19     -5.53      0.00
   10   13   19     -2.55      0.00
   12   13   19     -5.98      0.00
   14   13   19     -3.59      0.00
   16   13   19     -4.64      0.00
    1   14   19     -3.17      0.00
    3   14   19     -5.86      0.00
    5   14   19     -6.38      0.00
    7   14   19      5.18      0.00
    9   14   19     -1.41      0.00
   11   14   19      4.21      0.00
   13   14   19      3.25      0.00
   15   14   19     -1.15      0.00
    0   15   19      1.13      0.00
    2   15   19      7.09      0.00
    4   15   19     -4.06      0.00
    6   15   19     -3.47      0.00
    8   15   19     -1.52      0.00
   10   15   19      2.71      0.00
   12   15   19      1.48      0.00
   14   15   19      4.00      0.00
   16   15   19     -1.00      0.00
    1   16   19      9.68      0.00
    3   16   19      5.62      0.00
    5   16   19      1.57      0.00
    7   16   19      1.46      0.00
    9   16   19     -0.87      0.00
   11   16   19      1.69      0.00
   13   16   19      2.45      0.00
   15   16   19     -0.77      0.00
    0   17   19     -5.81      0.00
    2   17   19     11.79      0.00
    4   17   19      2.15      0.00
    6   17   19      2.36      0.00
    8   17   19      4.91      0.00
   10   17   19     -0.64      0.00
   12   17   19      0.17      0.00
   14   17   19      4.32      0.00
    1   18   19     -1.31      0.00
    3   18   19      0.69      0.00
    5   18   19     -2.20      0.00
    7   18   19      6.60      0.00
    9   18   19      4.75      0.00
   11   18   19     -5.16      0.00
   13   18   19      6.01      0.00
    0   19   19     -3.30      0.00
    2   19   19      6.46      0.00
    4   19   19      0.10      0.00
    6   19   19      2.97      0.00
    8   19   19      3.35      0.00
   10   19   19      1.08      0.00
   12   19   19      0.49      0.00
    1   20   19     -0.12      0.00
    3   20   19      2.00      0.00
    5   20   19      0.51      0.00
    7   20   19      2.95      0.00
    9   20   19      5.83      0.00
   11   20   19      2.84      0.00
   13   20   19     25.84      0.00
    0   21   19     -1.98      0.00
    2   21   19      3.28      0.00
    4   21   19     -0.08      0.00
    6   21   19      0.35      0.00
    8   21   19      6.42      0.00
   10   21   19     -3.07      0.00
   12   21   19     -2.83      0.00
    1   22   19      0.84      0.00
    3   22   19      2.72      0.00
    5   22   19      1.84      0.00
    7   22   19     -0.26      0.00
    9   22   19     -5.47      0.00
   11   22   19    -11.80      0.00
    0   23   19     -1.72      0.00
    2   23   19     -1.90      0.00
    4   23   19      2.69      0.00
    6   23   19     -5.15      0.00
    8   23   19     -1.03      0.00
   10   23   19     -6.64      0.00
    1   24   19      5.38      0.00
    3   24   19     -1.63      0.00
    5   24   19      3.06      0.00
    7   24   19      1.28      0.00
    9   24   19      3.71      0.00
    2   25   19     -5.76      0.00
    4   25   19     -0.44      0.00
    6   25   19      3.32      0.00
    1   26   19      1.01      0.00
    3   26   19     -2.26      0.00
    5   26   19      7.35      0.00
    0   27   19      5.15      0.00
    2   27   19     -1.93      0.00
    0    0   20    -25.72      0.00
    2    0   20      7.95      0.00
    4    0   20      2.50      0.00
    6    0   20    -14.66      0.00
    8    0   20      0.75      0.00
   10    0   20    -12.74      0.00
   12    0   20      0.45      0.00
   14    0   20     -0.80      0.00
   16    0   20      0.14      0.00
   18    0   20     -2.94      0.00
    1    1   20     -6.46      0.00
    3    1   20    -15.26      0.00
    5    1   20     -1.66      0.00
    7    1   20     -6.07      0.00
    9    1   20     -2.73      0.00
   11    1   20     -3.17      0.00
   13    1   20     -3.28      0.00
   15    1   20      4.90      0.00
   17    1   20     -2.21      0.00
   19    1   20      3.86      0.00
    0    2   20     -4.15      0.00
    2    2   20     -3.08      0.00
    4    2   20      5.57      0.00
    6    2   20     -8.20      0.00
    8    2   20      5.91      0.00
   10    2   20     -2.11      0.00
   12    2   20     -0.03      0.00
   14    2   20     -0.98      0.00
   16    2   20     -0.73      0.00
   18    2   20      5.37      0.00
    1    3   20     -2.86      0.00
    3    3   20     -3.77      0.00
    5    3   20    -10.33      0.00
    7    3   20      2.26      0.00
    9    3   20     -0.75      0.00
   11    3   20      0.96      0.00
   13    3   20     -0.65      0.00
   15    3   20      0.62      0.00
   17    3   20     -1.38      0.00
    0    4   20     -1.91      0.00
    2    4   20    -11.82      0.00
    4    4   20     -1.12      0.00
    6    4   20     -7.83      0.00
    8    4   20     -1.41      0.00
   10    4   20     -0.40      0.00
   12    4   20     -1.05      0.00
   14    4   20      1.25      0.00
   16    4   20      0.39      0.00
   18    4   20      7.03      0.00
    1    5   20     -0.63      0.00
    3    5   20      0.37      0.00
    5    5   20     -4.48      0.00
    7    5   20      2.48      0.00
    9    5   20     -4.12      0.00
   11    5   20      0.55      0.00
   13    5   20     -3.63      0.00
   15    5   20     -0.34      0.00
   17    5   20     -1.67      0.00
    0    6   20     -5.79      0.00
    2    6   20     15.17      0.00
    4    6   20      1.69      0.00
    6    6   20      1.47      0.00
    8    6   20      3.11      0.00
   10    6   20      2.73      0.00
   12    6   20     -0.20      0.00
   14    6   20     -0.27      0.00
   16    6   20      0.09      0.00
   18    6   20      0.11      0.00
    1    7   20     -8.34      0.00
    3    7   20     -1.66      0.00
    5    7   20      3.27      0.00
    7    7   20     -1.55      0.00
    9    7   20      0.53      0.00
   11    7   20      4.71      0.00
   13    7   20     -2.78      0.00
   15    7   20      2.27      0.00
   17    7   20     -0.53      0.00
    0    8   20     -9.95      0.00
    2    8   20     -2.64      0.00
    4    8   20     -6.97      0.00
    6    8   20      2.01      0.00
    8    8   20      0.28      0.00
   10    8   20      0.22      0.00
   12    8   20     -5.73      0.00
   14    8   20     -0.78      0.00
   16    8   20      1.44      0.00
   18    8   20      2.99      0.00
    1    9   20     12.44      0.00
    3    9   20      9.47      0.00
    5    9   20      4.26      0.00
    7    9   20      3.91      0.00
    9    9   20     -1.32      0.00
   11    9   20      0.43      0.00
   13    9   20     -2.04      0.00
   15    9   20      1.54      0.00
   17    9   20     -3.54      0.00
    0   10   20      6.07      0.00
    2   10   20     -9.76      0.00
    4   10   20      1.91      0.00
    6   10   20      6.53      0.00
    8   10   20     -7.98      0.00
   10   10   20     -0.70      0.00
   12   10   20     -1.43      0.00
   14   10   20     -0.09      0.00
   16   10   20     -1.95      0.00
    1   11   20     -8.37      0.00
    3   11   20    -14.86      0.00
    5   11   20      1.81      0.00
    7   11   20     -0.34      0.00
    9   11   20     -0.62      0.00
   11   11   20      2.15      0.00
   13   11   20     -1.10      0.00
   15   11   20      0.79      0.00
   17   11   20      1.54      0.00
    0   12   20     14.72      0.00
    2   12   20      1.57      0.00
    4   12   20     -1.65      0.00
    6   12   20     -0.73      0.00
    8   12   20     -4.83      0.00
   10   12   20      1.97      0.00
   12   12   20      0.39      0.00
   14   12   20      0.49      0.00
   16   12   20     -0.37      0.00
    1   13   20      4.32      0.00
    3   13   20     -1.72      0.00
    5   13   20     13.15      0.00
    7   13   20     -6.90      0.00
    9   13   20      3.63      0.00
   11   13   20      5.17      0.00
   13   13   20      0.42      0.00
   15   13   20     -2.02      0.00
    0   14   20      7.60      0.00
    2   14   20     -6.45      0.00
    4   14   20      2.26      0.00
    6   14   20      4.68      0.00
    8   14   20      3.45      0.00
   10   14   20     -1.39      0.00
   12   14   20     -1.73      0.00
   14   14   20      3.10      0.00
   16   14   20     -1.67      0.00
    1   15   20     -6.58      0.00
    3   15   20      0.76      0.00
    5   15   20      7.74      0.00
    7   15   20     -7.01      0.00
    9   15   20     -1.92      0.00
   11   15   20     -2.54      0.00
   13   15   20     -1.27      0.00
   15   15   20     -5.45      0.00
    0   16   20     17.70      0.00
    2   16   20     -6.73      0.00
    4   16   20      6.08      0.00
    6   16   20     -4.76      0.00
    8   16   20     -2.74      0.00
   10   16   20     -0.02      0.00
   12   16   20     -1.38      0.00
   14   16   20     -0.24      0.00
    1   17   20      0.57      0.00
    3   17   20     -3.99      0.00
    5   17   20      5.21      0.00
    7   17   20     -0.86      0.00
    9   17   20      3.98      0.00
   11   17   20      2.47      0.00
   13   17   20      2.07      0.00
    0   18   20      2.33      0.00
    2   18   20    -10.93      0.00
    4   18   20      4.13      0.00
    6   18   20     -5.30      0.00
    8   18   20     -0.60      0.00
   10   18   20     -0.21      0.00
   12   18   20      0.79      0.00
   14   18   20      5.86      0.00
    1   19   20     -2.65      0.00
    3   19   20     -4.23      0.00
    5   19   20      2.93      0.00
    7   19   20     -2.98      0.00
    9   19   20      0.96      0.00
   11   19   20      2.25      0.00
   13   19   20     -3.95      0.00
    0   20   20     10.19      0.00
    2   20   20     -1.08      0.00
    4   20   20      6.97      0.00
    6   20   20     -3.21      0.00
    8   20   20     -0.75      0.00
   10   20   20      0.69      0.00
   12   20   20     -6.26      0.00
    1   21   20      4.13      0.00
    3   21   20     -0.47      0.00
    5   21   20     -0.16      0.00
    7   21   20     -0.05      0.00
    9   21   20      2.43      0.00
   11   21   20     -0.29      0.00
    0   22   20      2.58      0.00
    2   22   20     -4.52      0.00
    4   22   20      1.29      0.00
    6   22   20     -1.09      0.00
    8   22   20     -3.06      0.00
   10   22   20      9.78      0.00
    1   23   20     -2.80      0.00
    3   23   20     -3.34      0.00
    5   23   20      0.02      0.00
    7   23   20      1.77      0.00
    9   23   20      4.33      0.00
    2   24   20     -1.31      0.00
    4   24   20     -1.78      0.00
    6   24   20      1.81      0.00
    8   24   20     -4.08      0.00
    1   25   20     -1.47      0.00
    3   25   20     -1.78      0.00
    5   25   20      0.39      0.00
    2   26   20      5.39      0.00
    4   26   20     -0.35      0.00
    1    0   21     15.63      0.00
    3    0   21     -5.61      0.00
    5    0   21     -2.78      0.00
    7    0   21      4.37      0.00
    9    0   21     -4.77      0.00
   11    0   21      0.68      0.00
   13    0   21     -0.15      0.00
   15    0   21     -3.61      0.00
   17    0   21      1.42      0.00
    0    1   21      6.10      0.00
    2    1   21     -2.82      0.00
    4    1   21     -0.32      0.00
    6    1   21     10.44      0.00
    8    1   21      0.71      0.00
   10    1   21     -0.47      0.00
   12    1   21      3.22      0.00
   14    1   21     -0.81      0.00
   16    1   21      3.64      0.00
   18    1   21     -1.94      0.00
    1    2   21      5.78      0.00
    3    2   21      2.25      0.00
    5    2   21      3.85      0.00
    7    2   21     11.06      0.00
    9    2   21      0.60      0.00
   11    2   21      4.38      0.00
   13    2   21      8.51      0.00
   15    2   21      2.55      0.00
   17    2   21      0.34      0.00
    0    3   21    -17.23      0.00
    2    3   21     11.14      0.00
    4    3   21      2.89      0.00
    6    3   21     -1.61      0.00
    8    3   21      1.08      0.00
   10    3   21      3.24      0.00
   12    3   21      4.28      0.00
   14    3   21      0.33      0.00
   16    3   21      5.89      0.00
   18    3   21     -4.49      0.00
    1    4   21      2.19      0.00
    3    4   21      2.42      0.00
    5    4   21      1.50      0.00
    7    4   21      7.51      0.00
    9    4   21     -2.94      0.00
   11    4   21     -2.51      0.00
   13    4   21     -2.02      0.00
   15    4   21     -7.12      0.00
   17    4   21     -6.41      0.00
    0    5   21      5.87      0.00
    2    5   21      9.04      0.00
    4    5   21      3.55      0.00
    6    5   21     -1.82      0.00
    8    5   21      4.09      0.00
   10    5   21     -1.03      0.00
   12    5   21     -1.92      0.00
   14    5   21     -2.44      0.00
   16    5   21      2.60      0.00
   18    5   21      1.00      0.00
    1    6   21      3.65      0.00
    3    6   21     -1.39      0.00
    5    6   21      1.74      0.00
    7    6   21      2.58      0.00
    9    6   21    -10.96      0.00
   11    6   21     -2.42      0.00
   13    6   21      5.28      0.00
   15    6   21     -1.46      0.00
   17    6   21     -2.34      0.00
    0    7   21     -5.16      0.00
    2    7   21     -7.69      0.00
    4    7   21      2.17      0.00
    6    7   21     -3.07      0.00
    8    7   21      5.13      0.00
   10    7   21      0.13      0.00
   12    7   21      5.41      0.00
   14    7   21      0.07      0.00
   16    7   21     -1.09      0.00
   18    7   21     -3.34      0.00
    1    8   21      4.14      0.00
    3    8   21      8.07      0.00
    5    8   21      0.93      0.00
    7    8   21      2.33      0.00
    9    8   21      2.22      0.00
   11    8   21      4.51      0.00
   13    8   21      6.44      0.00
   15    8   21     -2.12      0.00
   17    8   21      1.70      0.00
    0    9   21     -2.60      0.00
    2    9   21      5.31      0.00
    4    9   21      4.33      0.00
    6    9   21    -11.95      0.00
    8    9   21      3.21      0.00
   10    9   21     -4.50      0.00
   12    9   21      1.68      0.00
   14    9   21     -0.74      0.00
   16    9   21     -0.09      0.00
    1   10   21     -6.64      0.00
    3   10   21      6.33      0.00
    5   10   21     -0.14      0.00
    7   10   21     -4.83      0.00
    9   10   21     -2.49      0.00
   11   10   21     -2.84      0.00
   13   10   21      0.58      0.00
   15   10   21     -4.44      0.00
   17   10   21     -0.01      0.00
    0   11   21     -1.67      0.00
    2   11   21     -5.85      0.00
    4   11   21      1.21      0.00
    6   11   21     -7.39      0.00
    8   11   21     11.18      0.00
   10   11   21     -0.71      0.00
   12   11   21      2.97      0.00
   14   11   21      6.04      0.00
   16   11   21      2.60      0.00
    1   12   21      2.55      0.00
    3   12   21      4.12      0.00
    5   12   21     -0.22      0.00
    7   12   21      0.29      0.00
    9   12   21      2.70      0.00
   11   12   21      2.02      0.00
   13   12   21      0.05      0.00
   15   12   21     -1.55      0.00
    0   13   21      6.63      0.00
    2   13   21     -1.67      0.00
    4   13   21      9.85      0.00
    6   13   21     -0.47      0.00
    8   13   21      5.62      0.00
   10   13   21     -3.86      0.00
   12   13   21     -1.05      0.00
   14   13   21     -1.84      0.00
   16   13   21      4.42      0.00
    1   14   21     -1.20      0.00
    3   14   21     -2.76      0.00
    5   14   21     -2.31      0.00
    7   14   21     -2.88      0.00
    9   14   21      2.07      0.00
   11   14   21      2.25      0.00
   13   14   21     -0.82      0.00
   15   14   21      5.00      0.00
    0   15   21      2.90      0.00
    2   15   21     -4.03      0.00
    4   15   21     -3.62      0.00
    6   15   21     -5.14      0.00
    8   15   21      0.18      0.00
   10   15   21     -0.58      0.00
   12   15   21      1.64      0.00
   14   15   21     -0.93      0.00
    1   16   21     -1.86      0.00
    3   16   21     -4.60      0.00
    5   16   21      0.42      0.00
    7   16   21      1.40      0.00
    9   16   21      9.14      0.00
   11   16   21      4.91      0.00
   13   16   21     -3.44      0.00
    0   17   21     -1.25      0.00
    2   17   21     -4.68      0.00
    4   17   21     -0.65      0.00
    6   17   21      1.62      0.00
    8   17   21     -3.98      0.00
   10   17   21     -5.45      0.00
   12   17   21     -5.97      0.00
   14   17   21     -3.22      0.00
    1   18   21     -1.20      0.00
    3   18   21     -0.89      0.00
    5   18   21     -1.11      0.00
    7   18   21     -4.59      0.00
    9   18   21     -2.72      0.00
   11   18   21     -1.73      0.00
   13   18   21     -3.23      0.00
    0   19   21      1.54      0.00
    2   19   21     -2.61      0.00
    4   19   21     -0.31      0.00
    6   19   21      0.36      0.00
    8   19   21     -5.01      0.00
   10   19   21     -2.28      0.00
   12   19   21     -2.94      0.00
    1   20   21      2.00      0.00
    3   20   21     -1.71      0.00
    5   20   21     -3.17      0.00
    7   20   21     -3.38      0.00
    9   20   21      1.57      0.00
   11   20   21     -0.95      0.00
    0   21   21     -0.53      0.00
    2   21   21     -2.81      0.00
    4   21   21     -5.16      0.00
    6   21   21      3.64      0.00
    8   21   21     -4.76      0.00
   10   21   21     -4.20      0.00
    1   22   21     -8.57      0.00
    3   22   21     -3.66      0.00
    5   22   21      0.88      0.00
    7   22   21      4.49      0.00
    9   22   21     -0.38      0.00
    0   23   21     -2.37      0.00
    2   23   21      0.83      0.00
    4   23   21     -0.14      0.00
    6   23   21      3.54      0.00
    8   23   21     -5.31      0.00
    1   24   21      3.73      0.00
    3   24   21      0.49      0.00
    5   24   21     -4.70      0.00
    7   24   21      1.63      0.00
    2   25   21      1.02      0.00
    4   25   21      4.33      0.00
    1   26   21     -1.02      0.00
    3   26   21      2.01      0.00
    0    0   22     -1.27      0.00
    2    0   22      3.83      0.00
    4    0   22     14.81      0.00
    6    0   22      2.33      0.00
    8    0   22      6.38      0.00
   10    0   22     16.59      0.00
   12    0   22      1.02      0.00
   14    0   22      3.00      0.00
   16    0   22     -1.00      0.00
   18    0   22     -1.43      0.00
    1    1   22     12.53      0.00
    3    1   22      6.29      0.00
    5    1   22      2.37      0.00
    7    1   22      1.89      0.00
    9    1   22      1.02      0.00
   11    1   22      5.81      0.00
   13    1   22     -1.66      0.00
   15    1   22     -4.70      0.00
   17    1   22      2.13      0.00
    0    2   22     11.02      0.00
    2    2   22      2.05      0.00
    4    2   22      6.98      0.00
    6    2   22     -0.13      0.00
    8    2   22     -3.72      0.00
   10    2   22      1.52      0.00
   12    2   22     -1.58      0.00
   14    2   22      0.66      0.00
   16    2   22      0.55      0.00
   18    2   22      4.39      0.00
    1    3   22      1.78      0.00
    3    3   22    -18.34      0.00
    5    3   22      8.00      0.00
    7    3   22      0.94      0.00
    9    3   22      1.37      0.00
   11    3   22      6.59      0.00
   13    3   22     -1.58      0.00
   15    3   22     -4.01      0.00
   17    3   22      1.49      0.00
    0    4   22      1.22      0.00
    2    4   22     -5.33      0.00
    4    4   22      0.72      0.00
    6    4   22     -0.90      0.00
    8    4   22     -1.79      0.00
   10    4   22     -2.03      0.00
   12    4   22      3.44      0.00
   14    4   22      2.97      0.00
   16    4   22      2.92      0.00
   18    4   22      1.63      0.00
    1    5   22      6.77      0.00
    3    5   22      3.22      0.00
    5    5   22      0.91      0.00
    7    5   22     -5.10      0.00
    9    5   22      0.47      0.00
   11    5   22     -1.54      0.00
   13    5   22      0.67      0.00
   15    5   22      0.59      0.00
   17    5   22      2.37      0.00
    0    6   22     -2.02      0.00
    2    6   22     -1.22      0.00
    4    6   22      7.08      0.00
    6    6   22     -4.35      0.00
    8    6   22      0.76      0.00
   10    6   22     -2.14      0.00
   12    6   22     -3.41      0.00
   14    6   22     -2.15      0.00
   16    6   22     -0.53      0.00
    1    7   22     -7.74      0.00
    3    7   22     -2.24      0.00
    5    7   22     -9.15      0.00
    7    7   22      3.30      0.00
    9    7   22      5.31      0.00
   11    7   22     -2.63      0.00
   13    7   22     -1.54      0.00
   15    7   22     -3.15      0.00
   17    7   22     -0.34      0.00
    0    8   22      5.57      0.00
    2    8   22     -3.34      0.00
    4    8   22     -1.32      0.00
    6    8   22     -5.01      0.00
    8    8   22      3.66      0.00
   10    8   22     -1.54      0.00
   12    8   22     -2.36      0.00
   14    8   22      2.56      0.00
   16    8   22     -1.11      0.00
    1    9   22      5.77      0.00
    3    9   22     -0.26      0.00
    5    9   22      2.22      0.00
    7    9   22      2.99      0.00
    9    9   22     -2.05      0.00
   11    9   22     -2.34      0.00
   13    9   22     -0.51      0.00
   15    9   22      1.87      0.00
   17    9   22      1.08      0.00
    0   10   22     -5.21      0.00
    2   10   22      3.91      0.00
    4   10   22     -0.98      0.00
    6   10   22      1.35      0.00
    8   10   22      7.24      0.00
   10   10   22     -2.77      0.00
   12   10   22      0.45      0.00
   14   10   22      1.92      0.00
   16   10   22     -0.10      0.00
    1   11   22     -3.50      0.00
    3   11   22      6.18      0.00
    5   11   22     -4.02      0.00
    7   11   22     -0.82      0.00
    9   11   22      0.14      0.00
   11   11   22      0.42      0.00
   13   11   22     -3.01      0.00
   15   11   22     -0.57      0.00
    0   12   22     -2.24      0.00
    2   12   22     11.05      0.00
    4   12   22     -3.43      0.00
    6   12   22     -1.59      0.00
    8   12   22      4.03      0.00
   10   12   22     -1.24      0.00
   12   12   22      0.00      0.00
   14   12   22      1.94      0.00
   16   12   22     -3.32      0.00
    1   13   22     -5.53      0.00
    3   13   22      7.49      0.00
    5   13   22     -8.02      0.00
    7   13   22      2.59      0.00
    9   13   22     -1.93      0.00
   11   13   22     -0.73      0.00
   13   13   22      2.61      0.00
   15   13   22     -3.42      0.00
    0   14   22     -5.64      0.00
    2   14   22      3.28      0.00
    4   14   22     -7.40      0.00
    6   14   22      1.45      0.00
    8   14   22      1.33      0.00
   10   14   22     -1.04      0.00
   12   14   22     -2.56      0.00
   14   14   22      4.66      0.00
    1   15   22     -0.55      0.00
    3   15   22      9.64      0.00
    5   15   22     -1.81      0.00
    7   15   22      5.68      0.00
    9   15   22     -2.07      0.00
   11   15   22     -0.46      0.00
   13   15   22      2.35      0.00
    0   16   22     -2.52      0.00
    2   16   22      6.30      0.00
    4   16   22     -7.13      0.00
    6   16   22      2.10      0.00
    8   16   22     -0.85      0.00
   10   16   22     -1.59      0.00
   12   16   22      0.10      0.00
   14   16   22     -0.21      0.00
    1   17   22     -4.26      0.00
    3   17   22      4.65      0.00
    5   17   22      0.28      0.00
    7   17   22      5.74      0.00
    9   17   22      2.62      0.00
   11   17   22      4.40      0.00
   13   17   22      2.10      0.00
    0   18   22      5.83      0.00
    2   18   22      8.51      0.00
    4   18   22     -6.38      0.00
    6   18   22      5.16      0.00
    8   18   22     -0.42      0.00
   10   18   22      0.91      0.00
   12   18   22      1.24      0.00
    1   19   22      3.63      0.00
    3   19   22      1.84      0.00
    5   19   22     -0.04      0.00
    7   19   22      3.28      0.00
    9   19   22     -1.04      0.00
   11   19   22     -0.50      0.00
    0   20   22     -3.51      0.00
    2   20   22      2.06      0.00
    4   20   22     -3.69      0.00
    6   20   22      1.23      0.00
    8   20   22     -4.98      0.00
   10   20   22      3.96      0.00
    1   21   22     -0.10      0.00
    3   21   22      1.27      0.00
    5   21   22      0.43      0.00
    7   21   22      2.32      0.00
    9   21   22     -1.49      0.00
    0   22   22      0.37      0.00
    2   22   22      3.64      0.00
    4   22   22      2.95      0.00
    6   22   22     -4.15      0.00
    8   22   22     -0.25      0.00
    1   23   22      1.68      0.00
    3   23   22      0.22      0.00
    5   23   22      0.98      0.00
    7   23   22      0.21      0.00
    2   24   22      7.63      0.00
    4   24   22     -0.44      0.00
    6   24   22     -3.01      0.00
    3   25   22     -2.66      0.00
    1    0   23     -4.25      0.00
    3    0   23    -20.66      0.00
    5    0   23      2.98      0.00
    7    0   23     -9.24      0.00
    9    0   23     -9.59      0.00
   11    0   23     -5.98      0.00
   13    0   23     -1.13      0.00
   15    0   23      2.95      0.00
   17    0   23      2.76      0.00
    0    1   23    -11.73      0.00
    2    1   23     -8.34      0.00
    4    1   23      0.58      0.00
    6    1   23     -4.77      0.00
    8    1   23      0.04      0.00
   10    1   23     -1.94      0.00
   12    1   23     -2.66      0.00
   14    1   23      3.31      0.00
   16    1   23      2.52      0.00
    1    2   23     -2.55      0.00
    3    2   23      0.83      0.00
    5    2   23      1.09      0.00
    7    2   23     -0.08      0.00
    9    2   23     -0.97      0.00
   11    2   23     -6.36      0.00
   13    2   23     -0.65      0.00
   15    2   23     -2.51      0.00
   17    2   23     -5.07      0.00
    0    3   23      4.08      0.00
    2    3   23     -7.95      0.00
    4    3   23     -0.03      0.00
    6    3   23    -11.51      0.00
    8    3   23     -5.01      0.00
   10    3   23      1.12      0.00
   12    3   23     -7.45      0.00
   14    3   23     -0.31      0.00
   16    3   23     -4.74      0.00
    1    4   23     -1.71      0.00
    3    4   23     -0.59      0.00
    5    4   23     -8.70      0.00
    7    4   23      0.59      0.00
    9    4   23     -0.55      0.00
   11    4   23     -3.23      0.00
   13    4   23      4.38      0.00
   15    4   23      0.87      0.00
   17    4   23      1.97      0.00
    0    5   23     -4.36      0.00
    2    5   23     -3.67      0.00
    4    5   23     -0.62      0.00
    6    5   23      3.49      0.00
    8    5   23     -0.37      0.00
   10    5   23      1.17      0.00
   12    5   23     -0.23      0.00
   14    5   23      3.32      0.00
   16    5   23      2.45      0.00
    1    6   23      4.53      0.00
    3    6   23    -11.73      0.00
    5    6   23      5.56      0.00
    7    6   23      2.31      0.00
    9    6   23      0.05      0.00
   11    6   23      0.57      0.00
   13    6   23     -0.01      0.00
   15    6   23     -1.39      0.00
   17    6   23     -0.43      0.00
    0    7   23     -8.02      0.00
    2    7   23      8.51      0.00
    4    7   23     -8.05      0.00
    6    7   23     -0.17      0.00
    8    7   23     -2.34      0.00
   10    7   23     -2.63      0.00
   12    7   23      2.44      0.00
   14    7   23     -2.42      0.00
   16    7   23     -2.87      0.00
    1    8   23     -3.87      0.00
    3    8   23      1.33      0.00
    5    8   23      1.12      0.00
    7    8   23     -3.91      0.00
    9    8   23     -4.63      0.00
   11    8   23     -2.30      0.00
   13    8   23     -3.62      0.00
   15    8   23     -1.82      0.00
   17    8   23      1.47      0.00
    0    9   23     -1.71      0.00
    2    9   23      1.15      0.00
    4    9   23     -3.97      0.00
    6    9   23      3.89      0.00
    8    9   23      0.88      0.00
   10    9   23      3.68      0.00
   12    9   23      2.16      0.00
   14    9   23     -1.16      0.00
   16    9   23     -0.53      0.00
    1   10   23      1.29      0.00
    3   10   23      3.28      0.00
    5   10   23     -7.84      0.00
    7   10   23      4.33      0.00
    9   10   23     -0.10      0.00
   11   10   23      1.73      0.00
   13   10   23      2.30      0.00
   15   10   23     -1.18      0.00
    0   11   23      3.85      0.00
    2   11   23     -2.70      0.00
    4   11   23     -0.91      0.00
    6   11   23      6.71      0.00
    8   11   23     -3.61      0.00
   10   11   23      2.50      0.00
   12   11   23     -1.45      0.00
   14   11   23      0.60      0.00
   16   11   23      5.03      0.00
    1   12   23      1.06      0.00
    3   12   23     -4.27      0.00
    5   12   23      3.60      0.00
    7   12   23      2.35      0.00
    9   12   23     -3.94      0.00
   11   12   23      0.45      0.00
   13   12   23     -0.35      0.00
   15   12   23     -0.40      0.00
    0   13   23     -7.60      0.00
    2   13   23     -1.64      0.00
    4   13   23     -4.16      0.00
    6   13   23      3.00      0.00
    8   13   23     -3.09      0.00
   10   13   23     -0.77      0.00
   12   13   23     -1.06      0.00
   14   13   23     -1.36      0.00
    1   14   23      3.57      0.00
    3   14   23      3.17      0.00
    5   14   23      4.53      0.00
    7   14   23     -2.57      0.00
    9   14   23     -2.08      0.00
   11   14   23      0.21      0.00
   13   14   23     -5.38      0.00
   15   14   23     -1.78      0.00
    0   15   23      0.46      0.00
    2   15   23      0.14      0.00
    4   15   23      3.35      0.00
    6   15   23      5.60      0.00
    8   15   23     -2.06      0.00
   10   15   23     -2.43      0.00
   12   15   23     -3.63      0.00
   14   15   23     -1.67      0.00
    1   16   23      0.41      0.00
    3   16   23      0.51      0.00
    5   16   23     -2.59      0.00
    7   16   23     -2.52      0.00
    9   16   23      0.08      0.00
   11   16   23      0.91      0.00
   13   16   23      3.85      0.00
    0   17   23     -0.88      0.00
    2   17   23     -2.21      0.00
    4   17   23      4.75      0.00
    6   17   23      1.16      0.00
    8   17   23     -2.89      0.00
   10   17   23     -1.47      0.00
   12   17   23     -3.00      0.00
    1   18   23     -0.64      0.00
    3   18   23      3.80      0.00
    5   18   23     -1.47      0.00
    7   18   23     -2.26      0.00
    9   18   23      0.24      0.00
   11   18   23      2.85      0.00
    0   19   23     -4.55      0.00
    2   19   23     -3.01      0.00
    4   19   23      2.30      0.00
    6   19   23     -2.15      0.00
    8   19   23      2.98      0.00
   10   19   23     -2.40      0.00
    1   20   23     -2.63      0.00
    3   20   23      3.44      0.00
    5   20   23      1.62      0.00
    7   20   23      2.38      0.00
    9   20   23      3.77      0.00
   11   20   23     -0.48      0.00
    0   21   23      4.42      0.00
    2   21   23      3.45      0.00
    4   21   23      0.47      0.00
    6   21   23      0.23      0.00
    8   21   23      1.75      0.00
   10   21   23     -3.39      0.00
    1   22   23     -3.52      0.00
    3   22   23      0.54      0.00
    5   22   23     -1.65      0.00
    7   22   23     -2.43      0.00
    0   23   23      0.60      0.00
    2   23   23      1.45      0.00
    4   23   23     -4.36      0.00
    6   23   23      2.37      0.00
    1   24   23     -5.62      0.00
    3   24   23      1.76      0.00
    5   24   23      0.63      0.00
    2   25   23     -2.52      0.00
    0    0   24     -9.89      0.00
    2    0   24      1.43      0.00
    4    0   24     -4.96      0.00
    6    0   24     -6.06      0.00
    8    0   24     -1.46      0.00
   10    0   24      1.56      0.00
   12    0   24     -3.24      0.00
   14    0   24     -1.36      0.00
   16    0   24      0.78      0.00
    1    1   24     -8.39      0.00
    3    1   24      2.35      0.00
    5    1   24    -14.76      0.00
    7    1   24      6.91      0.00
    9    1   24     -1.98      0.00
   11    1   24     -5.29      0.00
   13    1   24      0.75      0.00
   15    1   24     -8.39      0.00
   17    1   24     -5.88      0.00
    0    2   24    -14.47      0.00
    2    2   24      7.71      0.00
    4    2   24     -6.56      0.00
    6    2   24     -1.33      0.00
    8    2   24     -0.59      0.00
   10    2   24     -0.87      0.00
   12    2   24     -1.04      0.00
   14    2   24     -1.08      0.00
   16    2   24      6.11      0.00
    1    3   24      1.34      0.00
    3    3   24      4.57      0.00
    5    3   24     -1.96      0.00
    7    3   24     -0.54      0.00
    9    3   24     -3.90      0.00
   11    3   24      0.10      0.00
   13    3   24     -0.73      0.00
   15    3   24     -1.67      0.00
   17    3   24      4.40      0.00
    0    4   24     -9.91      0.00
    2    4   24     10.96      0.00
    4    4   24      1.33      0.00
    6    4   24      3.38      0.00
    8    4   24     -0.53      0.00
   10    4   24      0.58      0.00
   12    4   24      0.42      0.00
   14    4   24     -2.39      0.00
   16    4   24      1.57      0.00
    1    5   24     -7.22      0.00
    3    5   24      5.23      0.00
    5    5   24      3.67      0.00
    7    5   24      6.73      0.00
    9    5   24      5.05      0.00
   11    5   24      6.89      0.00
   13    5   24      0.72      0.00
   15    5   24      0.26      0.00
   17    5   24      0.17      0.00
    0    6   24      8.06      0.00
    2    6   24     -3.58      0.00
    4    6   24      2.89      0.00
    6    6   24     -2.23      0.00
    8    6   24     -4.72      0.00
   10    6   24      7.99      0.00
   12    6   24     -1.87      0.00
   14    6   24      0.89      0.00
   16    6   24      1.69      0.00
    1    7   24      6.00      0.00
    3    7   24      3.46      0.00
    5    7   24     -0.22      0.00
    7    7   24      3.51      0.00
    9    7   24     -1.61      0.00
   11    7   24      1.07      0.00
   13    7   24     -2.95      0.00
   15    7   24     -0.76      0.00
    0    8   24     11.15      0.00
    2    8   24     -1.09      0.00
    4    8   24     10.25      0.00
    6    8   24      5.85      0.00
    8    8   24     -7.92      0.00
   10    8   24      5.97      0.00
   12    8   24     -0.81      0.00
   14    8   24      3.33      0.00
   16    8   24      3.78      0.00
    1    9   24     -2.16      0.00
    3    9   24    -13.87      0.00
    5    9   24      3.10      0.00
    7    9   24     -5.70      0.00
    9    9   24     -2.28      0.00
   11    9   24      1.61      0.00
   13    9   24     -1.81      0.00
   15    9   24      1.83      0.00
    0   10   24      0.86      0.00
    2   10   24     -1.15      0.00
    4   10   24      0.36      0.00
    6   10   24      0.24      0.00
    8   10   24     -3.03      0.00
   10   10   24      2.89      0.00
   12   10   24     -2.31      0.00
   14   10   24     -1.17      0.00
   16   10   24     -0.12      0.00
    1   11   24      1.82      0.00
    3   11   24     -1.53      0.00
    5   11   24      7.61      0.00
    7   11   24     -4.09      0.00
    9   11   24      1.69      0.00
   11   11   24      1.26      0.00
   13   11   24     -1.02      0.00
   15   11   24     -2.26      0.00
    0   12   24      3.55      0.00
    2   12   24    -10.39      0.00
    4   12   24      4.19      0.00
    6   12   24      0.34      0.00
    8   12   24     -0.67      0.00
   10   12   24      0.87      0.00
   12   12   24     -1.69      0.00
   14   12   24      0.18      0.00
    1   13   24     -4.67      0.00
    3   13   24     -6.47      0.00
    5   13   24     -3.01      0.00
    7   13   24     -3.68      0.00
    9   13   24      0.09      0.00
   11   13   24     -0.88      0.00
   13   13   24      2.98      0.00
    0   14   24     10.95      0.00
    2   14   24     -6.57      0.00
    4   14   24      3.42      0.00
    6   14   24     -8.97      0.00
    8   14   24     -2.88      0.00
   10   14   24      2.51      0.00
   12   14   24      2.02      0.00
   14   14   24      3.06      0.00
    1   15   24      5.85      0.00
    3   15   24     -1.13      0.00
    5   15   24      3.20      0.00
    7   15   24     -2.88      0.00
    9   15   24      0.59      0.00
   11   15   24      3.31      0.00
   13   15   24      1.06      0.00
    0   16   24     -3.18      0.00
    2   16   24     -7.77      0.00
    4   16   24      0.05      0.00
    6   16   24     -1.31      0.00
    8   16   24      5.65      0.00
   10   16   24     -0.15      0.00
   12   16   24      1.56      0.00
    1   17   24     -3.05      0.00
    3   17   24     -3.40      0.00
    5   17   24     -2.28      0.00
    7   17   24     -5.32      0.00
    9   17   24      0.51      0.00
   11   17   24      1.45      0.00
    0   18   24     11.09      0.00
    2   18   24      0.46      0.00
    4   18   24     -4.15      0.00
    6   18   24     -4.59      0.00
    8   18   24     -0.20      0.00
   10   18   24      1.07      0.00
   12   18   24      0.68      0.00
    1   19   24     -2.92      0.00
    3   19   24     -1.96      0.00
    5   19   24     -0.46      0.00
    7   19   24     -2.38      0.00
    9   19   24      2.46      0.00
   11   19   24     -3.13      0.00
    0   20   24     -5.55      0.00
    2   20   24     -5.57      0.00
    4   20   24     -1.62      0.00
    6   20   24      0.64      0.00
    8   20   24     -0.84      0.00
   10   20   24     -0.30      0.00
    1   21   24      3.44      0.00
    3   21   24      0.67      0.00
    5   21   24      4.20      0.00
    7   21   24     -0.91      0.00
    9   21   24      0.65      0.00
    0   22   24      4.95      0.00
    2   22   24      1.26      0.00
    4   22   24      4.19      0.00
    6   22   24      1.28      0.00
    8   22   24      2.49      0.00
    1   23   24      1.58      0.00
    3   23   24     -4.16      0.00
    5   23   24      2.14      0.00
    2   24   24     -3.61      0.00
    4   24   24      1.13      0.00
    1    0   25     -5.43      0.00
    3    0   25      9.81      0.00
    5    0   25      4.85      0.00
    7    0   25      5.02      0.00
    9    0   25      3.91      0.00
   11    0   25      5.01      0.00
   13    0   25      4.87      0.00
   15    0   25      1.44      0.00
   17    0   25      3.83      0.00
    0    1   25      4.24      0.00
    2    1   25     12.55      0.00
    4    1   25      2.49      0.00
    6    1   25      6.23      0.00
    8    1   25     -0.12      0.00
   10    1   25      4.87      0.00
   12    1   25      5.99      0.00
   14    1   25      1.47      0.00
   16    1   25      2.20      0.00
    1    2   25      8.07      0.00
    3    2   25      8.13      0.00
    5    2   25     -0.29      0.00
    7    2   25      1.40      0.00
    9    2   25     -0.59      0.00
   11    2   25     -0.12      0.00
   13    2   25      1.97      0.00
   15    2   25      3.22      0.00
   17    2   25      2.11      0.00
    0    3   25      6.89      0.00
    2    3   25      1.79      0.00
    4    3   25      1.03      0.00
    6    3   25      6.69      0.00
    8    3   25      2.32      0.00
   10    3   25      2.26      0.00
   12    3   25     -0.56      0.00
   14    3   25      1.17      0.00
   16    3   25     -0.46      0.00
    1    4   25     -1.52      0.00
    3    4   25      1.25      0.00
    5    4   25      0.32      0.00
    7    4   25      4.66      0.00
    9    4   25     -0.30      0.00
   11    4   25     -0.72      0.00
   13    4   25      3.07      0.00
   15    4   25      3.53      0.00
    0    5   25      2.14      0.00
    2    5   25      1.16      0.00
    4    5   25     -4.44      0.00
    6    5   25      0.82      0.00
    8    5   25      0.79      0.00
   10    5   25      2.70      0.00
   12    5   25      0.65      0.00
   14    5   25      0.02      0.00
   16    5   25     -0.42      0.00
    1    6   25      0.85      0.00
    3    6   25      4.90      0.00
    5    6   25     -1.20      0.00
    7    6   25      0.45      0.00
    9    6   25      4.65      0.00
   11    6   25     -0.25      0.00
   13    6   25      0.91      0.00
   15    6   25      0.10      0.00
    0    7   25      3.31      0.00
    2    7   25      4.38      0.00
    4    7   25      0.16      0.00
    6    7   25      0.58      0.00
    8    7   25      0.32      0.00
   10    7   25     -2.24      0.00
   12    7   25      0.26      0.00
   14    7   25      4.18      0.00
   16    7   25      3.38      0.00
    1    8   25     -2.88      0.00
    3    8   25      3.11      0.00
    5    8   25     -0.65      0.00
    7    8   25     -2.33      0.00
    9    8   25     -0.02      0.00
   11    8   25     -5.49      0.00
   13    8   25      4.26      0.00
   15    8   25      0.62      0.00
    0    9   25      3.71      0.00
    2    9   25     -6.87      0.00
    4    9   25      2.82      0.00
    6    9   25      2.36      0.00
    8    9   25      1.74      0.00
   10    9   25      1.74      0.00
   12    9   25      0.25      0.00
   14    9   25      4.64      0.00
    1   10   25     -0.62      0.00
    3   10   25     -0.21      0.00
    5   10   25     -2.02      0.00
    7   10   25      2.27      0.00
    9   10   25      4.53      0.00
   11   10   25     -1.37      0.00
   13   10   25      4.57      0.00
   15   10   25     -1.66      0.00
    0   11   25      3.79      0.00
    2   11   25     -1.41      0.00
    4   11   25      3.45      0.00
    6   11   25     -1.17      0.00
    8   11   25     -6.95      0.00
   10   11   25     -0.08      0.00
   12   11   25     -3.52      0.00
   14   11   25     -3.40      0.00
    1   12   25      7.44      0.00
    3   12   25      0.84      0.00
    5   12   25     -2.66      0.00
    7   12   25     -4.28      0.00
    9   12   25     -1.86      0.00
   11   12   25     -2.46      0.00
   13   12   25      0.34      0.00
    0   13   25     -1.72      0.00
    2   13   25      3.47      0.00
    4   13   25     -3.99      0.00
    6   13   25      2.85      0.00
    8   13   25      1.71      0.00
   10   13   25      3.47      0.00
   12   13   25     -0.26      0.00
   14   13   25      0.02      0.00
    1   14   25      4.17      0.00
    3   14   25      2.22      0.00
    5   14   25      1.63      0.00
    7   14   25      5.41      0.00
    9   14   25      4.99      0.00
   11   14   25      2.01      0.00
   13   14   25     -0.29      0.00
    0   15   25     -2.50      0.00
    2   15   25      3.11      0.00
    4   15   25     -1.62      0.00
    6   15   25      6.34      0.00
    8   15   25      3.94      0.00
   10   15   25      1.19      0.00
   12   15   25     -1.55      0.00
    1   16   25     -4.58      0.00
    3   16   25      0.15      0.00
    5   16   25     -1.73      0.00
    7   16   25     -0.24      0.00
    9   16   25     -3.24      0.00
   11   16   25     -3.69      0.00
    0   17   25     -1.74      0.00
    2   17   25      2.85      0.00
    4   17   25      2.79      0.00
    6   17   25      4.93      0.00
    8   17   25      3.53      0.00
   10   17   25     -0.19      0.00
   12   17   25      0.58      0.00
    1   18   25      2.28      0.00
    3   18   25      3.94      0.00
    5   18   25      1.15      0.00
    7   18   25      0.61      0.00
    9   18   25     -4.32      0.00
   11   18   25     -1.34      0.00
    0   19   25      1.93      0.00
    2   19   25      0.69      0.00
    4   19   25      1.26      0.00
    6   19   25      4.16      0.00
    8   19   25      1.48      0.00
   10   19   25     -2.79      0.00
    1   20   25     -0.75      0.00
    3   20   25      3.56      0.00
    5   20   25     -0.40      0.00
    7   20   25      6.19      0.00
    9   20   25     -0.81      0.00
    0   21   25      3.69      0.00
    2   21   25     -0.39      0.00
    4   21   25     -0.82      0.00
    6   21   25     -1.10      0.00
    8   21   25      0.39      0.00
    1   22   25     -0.98      0.00
    3   22   25      1.66      0.00
    5   22   25     -6.95      0.00
    7   22   25     -2.00      0.00
    2   23   25     -0.55      0.00
    4   23   25     -1.86      0.00
    0    0   26     18.02      0.00
    2    0   26    -12.19      0.00
    4    0   26     -4.37      0.00
    6    0   26      5.16      0.00
    8    0   26     -4.11      0.00
   10    0   26     -1.16      0.00
   12    0   26     -6.70      0.00
   14    0   26      0.62      0.00
   16    0   26     -0.39      0.00
    1    1   26      6.53      0.00
    3    1   26     -7.26      0.00
    5    1   26     14.33      0.00
    7    1   26     -0.33      0.00
    9    1   26      4.55      0.00
   11    1   26      2.37      0.00
   13    1   26     -1.14      0.00
   15    1   26      0.47      0.00
    0    2   26     13.64      0.00
    2    2   26     -7.35      0.00
    4    2   26      1.76      0.00
    6    2   26      2.80      0.00
    8    2   26     -4.58      0.00
   10    2   26      6.33      0.00
   12    2   26      0.61      0.00
   14    2   26      0.80      0.00
   16    2   26     -1.53      0.00
    1    3   26     -0.98      0.00
    3    3   26     -2.93      0.00
    5    3   26     -4.82      0.00
    7    3   26     -7.42      0.00
    9    3   26      0.92      0.00
   11    3   26     -3.65      0.00
   13    3   26     -0.50      0.00
   15    3   26     -0.62      0.00
    0    4   26      4.32      0.00
    2    4   26     -4.20      0.00
    4    4   26     -0.07      0.00
    6    4   26      0.76      0.00
    8    4   26     -5.14      0.00
   10    4   26     -0.17      0.00
   12    4   26     -2.19      0.00
   14    4   26     -1.33      0.00
   16    4   26     -4.32      0.00
    1    5   26     -6.74      0.00
    3    5   26     -5.55      0.00
    5    5   26     -4.12      0.00
    7    5   26     -3.03      0.00
    9    5   26     -0.95      0.00
   11    5   26     -6.38      0.00
   13    5   26     -2.53      0.00
   15    5   26     -6.25      0.00
    0    6   26     -7.88      0.00
    2    6   26     -1.10      0.00
    4    6   26     -8.71      0.00
    6    6   26     -0.74      0.00
    8    6   26     -2.08      0.00
   10    6   26     -3.03      0.00
   12    6   26     -1.31      0.00
   14    6   26     -1.29      0.00
   16    6   26     -5.03      0.00
    1    7   26     -1.34      0.00
    3    7   26     -0.31      0.00
    5    7   26     -1.14      0.00
    7    7   26     -1.76      0.00
    9    7   26     -4.14      0.00
   11    7   26     -3.65      0.00
   13    7   26     -0.43      0.00
   15    7   26     -1.49      0.00
    0    8   26    -16.93      0.00
    2    8   26      8.94      0.00
    4    8   26     -6.75      0.00
    6    8   26     -2.86      0.00
    8    8   26     -0.86      0.00
   10    8   26     -0.28      0.00
   12    8   26     -0.76      0.00
   14    8   26     -4.32      0.00
    1    9   26    -10.48      0.00
    3    9   26     -4.12      0.00
    5    9   26    -10.65      0.00
    7    9   26      4.17      0.00
    9    9   26      2.92      0.00
   11    9   26      3.14      0.00
   13    9   26     -2.70      0.00
   15    9   26     -5.21      0.00
    0   10   26    -11.84      0.00
    2   10   26     15.89      0.00
    4   10   26     -2.11      0.00
    6   10   26      0.17      0.00
    8   10   26      4.35      0.00
   10   10   26      0.94      0.00
   12   10   26      0.95      0.00
   14   10   26     -0.10      0.00
    1   11   26      6.09      0.00
    3   11   26      4.29      0.00
    5   11   26     -4.96      0.00
    7   11   26      5.99      0.00
    9   11   26     -2.05      0.00
   11   11   26     -0.28      0.00
   13   11   26      2.18      0.00
    0   12   26    -15.43      0.00
    2   12   26      7.74      0.00
    4   12   26      1.03      0.00
    6   12   26      2.73      0.00
    8   12   26      3.68      0.00
   10   12   26     -4.92      0.00
   12   12   26     -1.06      0.00
   14   12   26      0.61      0.00
    1   13   26     -1.28      0.00
    3   13   26      0.35      0.00
    5   13   26     -5.12      0.00
    7   13   26      1.66      0.00
    9   13   26     -1.19      0.00
   11   13   26      0.88      0.00
   13   13   26      1.61      0.00
    0   14   26     -7.97      0.00
    2   14   26      4.96      0.00
    4   14   26      1.31      0.00
    6   14   26     -3.08      0.00
    8   14   26      0.56      0.00
   10   14   26     -2.64      0.00
   12   14   26      2.08      0.00
    1   15   26     -3.06      0.00
    3   15   26     -0.80      0.00
    5   15   26     -1.68      0.00
    7   15   26     -0.48      0.00
    9   15   26     -4.43      0.00
   11   15   26      0.18      0.00
    0   16   26     -0.89      0.00
    2   16   26      1.38      0.00
    4   16   26     -3.68      0.00
    6   16   26     -2.40      0.00
    8   16   26      1.43      0.00
   10   16   26     -0.80      0.00
   12   16   26     -0.15      0.00
    1   17   26      2.97      0.00
    3   17   26     -0.51      0.00
    5   17   26     -1.72      0.00
    7   17   26     -0.16      0.00
    9   17   26     -2.55      0.00
   11   17   26      2.00      0.00
    0   18   26     -0.14      0.00
    2   18   26      1.18      0.00
    4   18   26     -0.59      0.00
    6   18   26      1.26      0.00
    8   18   26      5.61      0.00
   10   18   26      1.55      0.00
    1   19   26      0.45      0.00
    3   19   26      2.27      0.00
    5   19   26      0.57      0.00
    7   19   26     -3.44      0.00
    9   19   26     -2.60      0.00
    0   20   26      1.55      0.00
    2   20   26      0.26      0.00
    4   20   26     -0.20      0.00
    6   20   26     -2.42      0.00
    8   20   26      1.62      0.00
    1   21   26     -1.60      0.00
    3   21   26     -2.04      0.00
    5   21   26     -1.03      0.00
    7   21   26     -3.02      0.00
    0   22   26     -1.23      0.00
    2   22   26     -2.38      0.00
    4   22   26      0.58      0.00
    1   23   26      3.67      0.00
    3   23   26      4.24      0.00
    1    0   27     -8.90      0.00
    3    0   27      4.14      0.00
    5    0   27    -16.38      0.00
    7    0   27     -8.62      0.00
    9    0   27     -0.63      0.00
   11    0   27     -6.02      0.00
   13    0   27     -2.40      0.00
   15    0   27     -2.16      0.00
    0    1   27     -2.10      0.00
    2    1   27     -5.68      0.00
    4    1   27     -5.96      0.00
    6    1   27     -4.42      0.00
    8    1   27     -4.46      0.00
   10    1   27     -0.81      0.00
   12    1   27     -2.13      0.00
   14    1   27     -3.23      0.00
   16    1   27     -4.85      0.00
    1    2   27     -6.39      0.00
    3    2   27     -2.23      0.00
    5    2   27     -0.31      0.00
    7    2   27     -2.86      0.00
    9    2   27     -0.82      0.00
   11    2   27     -1.56      0.00
   13    2   27      3.02      0.00
   15    2   27      2.84      0.00
    0    3   27     -6.45      0.00
    2    3   27      2.83      0.00
    4    3   27     -3.25      0.00
    6    3   27      5.80      0.00
    8    3   27     -0.33      0.00
   10    3   27     -1.68      0.00
   12    3   27      0.68      0.00
   14    3   27     -0.53      0.00
   16    3   27     -1.48      0.00
    1    4   27      2.05      0.00
    3    4   27     -6.68      0.00
    5    4   27      7.37      0.00
    7    4   27     -3.07      0.00
    9    4   27      1.24      0.00
   11    4   27      0.20      0.00
   13    4   27     -0.06      0.00
   15    4   27      0.93      0.00
    0    5   27     -0.41      0.00
    2    5   27      3.08      0.00
    4    5   27      1.92      0.00
    6    5   27      3.98      0.00
    8    5   27     -2.41      0.00
   10    5   27      3.71      0.00
   12    5   27      1.23      0.00
   14    5   27      1.53      0.00
    1    6   27     -1.36      0.00
    3    6   27      0.35      0.00
    5    6   27      1.19      0.00
    7    6   27     -2.16      0.00
    9    6   27     -1.96      0.00
   11    6   27     -3.44      0.00
   13    6   27      1.52      0.00
   15    6   27     -1.50      0.00
    0    7   27      5.69      0.00
    2    7   27     -1.83      0.00
    4    7   27      4.52      0.00
    6    7   27      6.86      0.00
    8    7   27     -1.40      0.00
   10    7   27      0.56      0.00
   12    7   27     -3.68      0.00
   14    7   27     -1.30      0.00
    1    8   27     11.15      0.00
    3    8   27      1.88      0.00
    5    8   27     -2.02      0.00
    7    8   27      3.62      0.00
    9    8   27      2.59      0.00
   11    8   27     -0.73      0.00
   13    8   27      5.82      0.00
   15    8   27     -2.79      0.00
    0    9   27      0.53      0.00
    2    9   27      0.76      0.00
    4    9   27      2.33      0.00
    6    9   27      4.03      0.00
    8    9   27     -0.31      0.00
   10    9   27     -1.12      0.00
   12    9   27      1.53      0.00
   14    9   27      0.62      0.00
    1   10   27     -0.06      0.00
    3   10   27      1.72      0.00
    5   10   27      5.03      0.00
    7   10   27      0.69      0.00
    9   10   27     -2.50      0.00
   11   10   27     -1.46      0.00
   13   10   27      0.78      0.00
    0   11   27     -2.54      0.00
    2   11   27      1.90      0.00
    4   11   27      1.68      0.00
    6   11   27     -0.85      0.00
    8   11   27      0.51      0.00
   10   11   27      0.50      0.00
   12   11   27      0.68      0.00
   14   11   27     -0.02      0.00
    1   12   27     -0.34      0.00
    3   12   27      1.72      0.00
    5   12   27      0.21      0.00
    7   12   27      0.83      0.00
    9   12   27     -1.88      0.00
   11   12   27      2.72      0.00
   13   12   27     -0.06      0.00
    0   13   27     -0.98      0.00
    2   13   27     -4.41      0.00
    4   13   27      0.06      0.00
    6   13   27      1.43      0.00
    8   13   27     -1.18      0.00
   10   13   27      2.84      0.00
   12   13   27     -1.52      0.00
    1   14   27     -0.06      0.00
    3   14   27     -3.79      0.00
    5   14   27     -0.20      0.00
    7   14   27     -0.47      0.00
    9   14   27     -2.73      0.00
   11   14   27     -0.51      0.00
    0   15   27      4.35      0.00
    2   15   27     -0.98      0.00
    4   15   27      3.40      0.00
    6   15   27      3.90      0.00
    8   15   27      0.33      0.00
   10   15   27      4.30      0.00
   12   15   27     -0.11      0.00
    1   16   27      2.26      0.00
    3   16   27     -0.18      0.00
    5   16   27      3.65      0.00
    7   16   27     -2.62      0.00
    9   16   27     -1.02      0.00
   11   16   27     -2.37      0.00
    0   17   27      7.92      0.00
    2   17   27     -1.84      0.00
    4   17   27      0.38      0.00
    6   17   27     -2.69      0.00
    8   17   27     -0.52      0.00
   10   17   27      2.29      0.00
    1   18   27     -1.39      0.00
    3   18   27     -4.34      0.00
    5   18   27      4.15      0.00
    7   18   27     -2.57      0.00
    9   18   27     -0.85      0.00
    0   19   27      1.76      0.00
    2   19   27     -1.62      0.00
    4   19   27     -1.63      0.00
    6   19   27     -2.12      0.00
    8   19   27      0.81      0.00
    1   20   27     -2.02      0.00
    3   20   27     -5.11      0.00
    5   20   27      1.61      0.00
    7   20   27     -4.37      0.00
    0   21   27     -2.65      0.00
    2   21   27      0.07      0.00
    4   21   27     -1.90      0.00
    6   21   27     -3.20      0.00
    1   22   27     -0.75      0.00
    3   22   27     -1.30      0.00
    0    0   28    -18.01      0.00
    2    0   28      8.28      0.00
    4    0   28     -8.89      0.00
    6    0   28      2.73      0.00
    8    0   28     -0.79      0.00
   10    0   28     -7.36      0.00
   12    0   28      0.43      0.00
   14    0   28     -3.24      0.00
    1    1   28      0.92      0.00
    3    1   28      5.77      0.00
    5    1   28      3.28      0.00
    7    1   28      4.03      0.00
    9    1   28      1.21      0.00
   11    1   28     -2.57      0.00
   13    1   28      2.78      0.00
   15    1   28      2.89      0.00
    0    2   28     -7.70      0.00
    2    2   28      3.58      0.00
    4    2   28     -1.80      0.00
    6    2   28     -0.12      0.00
    8    2   28     -0.21      0.00
   10    2   28     -0.47      0.00
   12    2   28      1.06      0.00
   14    2   28     -1.58      0.00
    1    3   28     -0.62      0.00
    3    3   28     11.35      0.00
    5    3   28     -3.85      0.00
    7    3   28      7.87      0.00
    9    3   28      3.41      0.00
   11    3   28     -0.77      0.00
   13    3   28      1.61      0.00
   15    3   28     -0.46      0.00
    0    4   28      3.80      0.00
    2    4   28     -0.11      0.00
    4    4   28      4.06      0.00
    6    4   28      1.25      0.00
    8    4   28      4.55      0.00
   10    4   28      5.55      0.00
   12    4   28      3.57      0.00
   14    4   28     -0.69      0.00
    1    5   28      7.02      0.00
    3    5   28      0.18      0.00
    5    5   28    -17.07      0.00
    7    5   28     -1.35      0.00
    9    5   28     -4.11      0.00
   11    5   28      0.92      0.00
   13    5   28      2.19      0.00
   15    5   28      2.35      0.00
    0    6   28     -0.70      0.00
    2    6   28      2.37      0.00
    4    6   28      8.10      0.00
    6    6   28      3.81      0.00
    8    6   28      1.66      0.00
   10    6   28      2.84      0.00
   12    6   28      6.38      0.00
   14    6   28     -0.89      0.00
    1    7   28      3.26      0.00
    3    7   28     -1.67      0.00
    5    7   28      3.48      0.00
    7    7   28      1.78      0.00
    9    7   28      1.49      0.00
   11    7   28      8.02      0.00
   13    7   28     -0.06      0.00
    0    8   28      4.45      0.00
    2    8   28     -2.79      0.00
    4    8   28      4.14      0.00
    6    8   28     -2.18      0.00
    8    8   28     -1.21      0.00
   10    8   28      5.46      0.00
   12    8   28     -0.63      0.00
   14    8   28     -2.99      0.00
    1    9   28      1.95      0.00
    3    9   28     -5.84      0.00
    5    9   28      3.22      0.00
    7    9   28     -2.59      0.00
    9    9   28     -3.82      0.00
   11    9   28      1.43      0.00
   13    9   28     -3.26      0.00
    0   10   28      8.81      0.00
    2   10   28    -10.04      0.00
    4   10   28      3.97      0.00
    6   10   28      0.73      0.00
    8   10   28     -4.51      0.00
   10   10   28      4.50      0.00
   12   10   28     -1.46      0.00
   14   10   28      3.09      0.00
    1   11   28      0.41      0.00
    3   11   28    -14.12      0.00
    5   11   28     -0.51      0.00
    7   11   28     -6.10      0.00
    9   11   28     -0.27      0.00
   11   11   28     -0.40      0.00
   13   11   28      1.39      0.00
    0   12   28      2.80      0.00
    2   12   28     -6.49      0.00
    4   12   28     -0.02      0.00
    6   12   28     -0.56      0.00
    8   12   28      0.38      0.00
   10   12   28      3.45      0.00
   12   12   28     -2.15      0.00
    1   13   28      0.25      0.00
    3   13   28     -4.40      0.00
    5   13   28      5.34      0.00
    7   13   28     -4.74      0.00
    9   13   28      2.93      0.00
   11   13   28     -1.47      0.00
    0   14   28     -4.83      0.00
    2   14   28     -1.91      0.00
    4   14   28      2.53      0.00
    6   14   28      1.20      0.00
    8   14   28      0.63      0.00
   10   14   28     -1.79      0.00
   12   14   28     -6.72      0.00
    1   15   28      2.38      0.00
    3   15   28      1.21      0.00
    5   15   28     -2.20      0.00
    7   15   28     -3.47      0.00
    9   15   28      1.68      0.00
   11   15   28     -0.03      0.00
    0   16   28     -3.97      0.00
    2   16   28      3.84      0.00
    4   16   28      0.69      0.00
    6   16   28     -3.26      0.00
    8   16   28     -3.35      0.00
   10   16   28      2.91      0.00
    1   17   28     -0.04      0.00
    3   17   28      0.33      0.00
    5   17   28     -0.90      0.00
    7   17   28     -1.06      0.00
    9   17   28      1.59      0.00
    0   18   28    -14.28      0.00
    2   18   28     -1.21      0.00
    4   18   28      1.40      0.00
    6   18   28      0.32      0.00
    8   18   28     -0.17      0.00
    1   19   28      0.94      0.00
    3   19   28     -3.98      0.00
    5   19   28     -2.35      0.00
    7   19   28     -0.83      0.00
    0   20   28      7.96      0.00
    2   20   28     -0.69      0.00
    4   20   28     -0.63      0.00
    6   20   28      0.28      0.00
    1   21   28     -4.13      0.00
    3   21   28     -3.66      0.00
    5   21   28     -2.39      0.00
    0   22   28      1.69      0.00
    1    0   29      8.92      0.00
    3    0   29      0.26      0.00
    5    0   29     -3.17      0.00
    7    0   29      1.31      0.00
    9    0   29      0.43      0.00
   11    0   29      3.61      0.00
   13    0   29      2.12      0.00
   15    0   29      5.29      0.00
    0    1   29      8.15      0.00
    2    1   29      2.02      0.00
    4    1   29      9.29      0.00
    6    1   29     -0.70      0.00
    8    1   29      4.80      0.00
   10    1   29      2.83      0.00
   12    1   29      5.06      0.00
   14    1   29     -2.07      0.00
    1    2   29     -2.72      0.00
    3    2   29     -4.20      0.00
    5    2   29     -0.88      0.00
    7    2   29      3.74      0.00
    9    2   29     -1.33      0.00
   11    2   29      0.84      0.00
   13    2   29     -1.59      0.00
   15    2   29     -1.18      0.00
    0    3   29     -3.04      0.00
    2    3   29     -0.84      0.00
    4    3   29     -2.06      0.00
    6    3   29     -2.56      0.00
    8    3   29      1.77      0.00
   10    3   29     -5.73      0.00
   12    3   29     -1.36      0.00
   14    3   29     -5.57      0.00
    1    4   29      2.32      0.00
    3    4   29      1.40      0.00
    5    4   29      2.75      0.00
    7    4   29     -1.05      0.00
    9    4   29     -0.95      0.00
   11    4   29     -0.70      0.00
   13    4   29     -3.43      0.00
    0    5   29     -7.63      0.00
    2    5   29     -0.36      0.00
    4    5   29      3.61      0.00
    6    5   29     -1.34      0.00
    8    5   29      0.31      0.00
   10    5   29     -2.49      0.00
   12    5   29     -1.68      0.00
   14    5   29     -0.14      0.00
    1    6   29     -5.66      0.00
    3    6   29     -5.64      0.00
    5    6   29     -1.89      0.00
    7    6   29     -0.44      0.00
    9    6   29     -0.62      0.00
   11    6   29     -3.87      0.00
   13    6   29      0.47      0.00
    0    7   29     -6.99      0.00
    2    7   29     -4.67      0.00
    4    7   29      1.30      0.00
    6    7   29      0.82      0.00
    8    7   29      4.48      0.00
   10    7   29     -0.97      0.00
   12    7   29     -1.09      0.00
   14    7   29      2.29      0.00
    1    8   29      3.85      0.00
    3    8   29     -2.64      0.00
    5    8   29     -6.42      0.00
    7    8   29     -3.59      0.00
    9    8   29     -0.21      0.00
   11    8   29     -2.37      0.00
   13    8   29      2.55      0.00
    0    9   29    -10.01      0.00
    2    9   29     -2.65      0.00
    4    9   29     -0.53      0.00
    6    9   29     -0.63      0.00
    8    9   29      2.44      0.00
   10    9   29     -6.24      0.00
   12    9   29     -3.37      0.00
    1   10   29      1.53      0.00
    3   10   29      3.05      0.00
    5   10   29      0.15      0.00
    7   10   29     -3.83      0.00
    9   10   29     -3.72      0.00
   11   10   29     -4.68      0.00
   13   10   29     -4.54      0.00
    0   11   29      2.91      0.00
    2   11   29      3.62      0.00
    4   11   29     -4.20      0.00
    6   11   29     -3.72      0.00
    8   11   29      1.55      0.00
   10   11   29     -1.52      0.00
   12   11   29      1.62      0.00
    1   12   29      1.87      0.00
    3   12   29      5.24      0.00
    5   12   29      0.24      0.00
    7   12   29      2.93      0.00
    9   12   29     -2.64      0.00
   11   12   29      2.42      0.00
    0   13   29      6.32      0.00
    2   13   29      3.29      0.00
    4   13   29     -1.70      0.00
    6   13   29     -0.53      0.00
    8   13   29      1.80      0.00
   10   13   29      2.58      0.00
   12   13   29      6.16      0.00
    1   14   29      0.17      0.00
    3   14   29      0.58      0.00
    5   14   29     -1.96      0.00
    7   14   29      1.80      0.00
    9   14   29     -5.43      0.00
   11   14   29      2.05      0.00
    0   15   29     -0.87      0.00
    2   15   29      0.96      0.00
    4   15   29     -1.27      0.00
    6   15   29      0.91      0.00
    8   15   29      5.99      0.00
   10   15   29     -0.09      0.00
    1   16   29      4.11      0.00
    3   16   29      1.70      0.00
    5   16   29     -0.96      0.00
    7   16   29      3.88      0.00
    9   16   29     -5.88      0.00
    0   17   29      1.27      0.00
    2   17   29      0.21      0.00
    4   17   29     -2.97      0.00
    6   17   29      2.10      0.00
    8   17   29      1.52      0.00
    1   18   29     -8.08      0.00
    3   18   29      5.70      0.00
    5   18   29      2.58      0.00
    7   18   29      9.88      0.00
    0   19   29     -0.69      0.00
    2   19   29      9.37      0.00
    4   19   29      2.01      0.00
    6   19   29      6.09      0.00
    1   20   29      2.97      0.00
    3   20   29     18.40      0.00
    5   20   29      4.64      0.00
    0   21   29      0.11      0.00
    2   21   29     14.60      0.00
    0    0   30     10.85      0.00
    2    0   30     -7.68      0.00
    4    0   30      4.44      0.00
    6    0   30      0.36      0.00
    8    0   30     -5.15      0.00
   10    0   30     -0.40      0.00
   12    0   30      2.12      0.00
   14    0   30     -0.09      0.00
    1    1   30     -6.79      0.00
    3    1   30      9.28      0.00
    5    1   30     -2.88      0.00
    7    1   30     -1.87      0.00
    9    1   30      4.09      0.00
   11    1   30      1.21      0.00
   13    1   30     -1.52      0.00
    0    2   30      6.70      0.00
    2    2   30     -6.26      0.00
    4    2   30      4.12      0.00
    6    2   30     -0.03      0.00
    8    2   30     -4.28      0.00
   10    2   30      0.38      0.00
   12    2   30      0.11      0.00
   14    2   30      2.72      0.00
    1    3   30      3.57      0.00
    3    3   30     10.48      0.00
    5    3   30      1.47      0.00
    7    3   30     -5.64      0.00
    9    3   30     -0.72      0.00
   11    3   30     -0.98      0.00
   13    3   30     -1.53      0.00
    0    4   30      5.93      0.00
    2    4   30     -4.82      0.00
    4    4   30      0.47      0.00
    6    4   30     -0.62      0.00
    8    4   30      0.17      0.00
   10    4   30      2.32      0.00
   12    4   30      1.55      0.00
   14    4   30     -0.01      0.00
    1    5   30      2.25      0.00
    3    5   30      0.63      0.00
    5    5   30     -3.35      0.00
    7    5   30     -2.09      0.00
    9    5   30     -1.10      0.00
   11    5   30     -0.21      0.00
   13    5   30      0.87      0.00
    0    6   30      1.26      0.00
    2    6   30     -2.11      0.00
    4    6   30      3.21      0.00
    6    6   30      0.68      0.00
    8    6   30      1.92      0.00
   10    6   30     -0.93      0.00
   12    6   30     -2.28      0.00
    1    7   30     -0.25      0.00
    3    7   30     -0.05      0.00
    5    7   30     -6.83      0.00
    7    7   30     -0.34      0.00
    9    7   30      1.79      0.00
   11    7   30      1.09      0.00
   13    7   30     -3.58      0.00
    0    8   30     -4.06      0.00
    2    8   30      2.24      0.00
    4    8   30      2.48      0.00
    6    8   30     -0.17      0.00
    8    8   30      2.40      0.00
   10    8   30      1.83      0.00
   12    8   30      3.19      0.00
    1    9   30      1.47      0.00
    3    9   30      7.51      0.00
    5    9   30     -3.08      0.00
    7    9   30      0.85      0.00
    9    9   30     -2.20      0.00
   11    9   30     -0.35      0.00
   13    9   30      2.90      0.00
    0   10   30     -4.28      0.00
    2   10   30      3.64      0.00
    4   10   30      2.06      0.00
    6   10   30      2.16      0.00
    8   10   30      5.01      0.00
   10   10   30      0.20      0.00
   12   10   30      3.51      0.00
    1   11   30     -5.63      0.00
    3   11   30      4.11      0.00
    5   11   30     -3.65      0.00
    7   11   30      3.82      0.00
    9   11   30      3.82      0.00
   11   11   30      0.93      0.00
    0   12   30     -3.75      0.00
    2   12   30      2.38      0.00
    4   12   30      2.90      0.00
    6   12   30      2.41      0.00
    8   12   30      7.76      0.00
   10   12   30      1.35      0.00
    1   13   30      2.00      0.00
    3   13   30      5.27      0.00
    5   13   30      0.63      0.00
    7   13   30      0.17      0.00
    9   13   30     -1.04      0.00
   11   13   30     -4.91      0.00
    0   14   30     -0.98      0.00
    2   14   30     -2.69      0.00
    4   14   30     -3.86      0.00
    6   14   30     -1.34      0.00
    8   14   30     -1.93      0.00
   10   14   30     -3.48      0.00
    1   15   30     -2.63      0.00
    3   15   30     -2.65      0.00
    5   15   30      1.32      0.00
    7   15   30     -0.70      0.00
    9   15   30      5.27      0.00
    0   16   30     -6.40      0.00
    2   16   30     -2.88      0.00
    4   16   30      0.82      0.00
    6   16   30      2.76      0.00
    8   16   30      0.11      0.00
    1   17   30      3.31      0.00
    3   17   30     -2.42      0.00
    5   17   30      1.83      0.00
    7   17   30     -6.91      0.00
    0   18   30     -0.79      0.00
    2   18   30      0.66      0.00
    4   18   30     -2.84      0.00
    6   18   30     -5.37      0.00
    1   19   30      2.94      0.00
    3   19   30    -13.00      0.00
    5   19   30     -4.51      0.00
    0   20   30      0.65      0.00
    2   20   30     -6.51      0.00
    1    0   31      8.96      0.00
    3    0   31    -17.98      0.00
    5    0   31      8.69      0.00
    7    0   31      0.80      0.00
    9    0   31     -4.04      0.00
   11    0   31     -3.83      0.00
   13    0   31      0.75      0.00
    0    1   31     -4.24      0.00
    2    1   31      2.76      0.00
    4    1   31     -2.14      0.00
    6    1   31     -3.41      0.00
    8    1   31     -0.26      0.00
   10    1   31     -0.03      0.00
   12    1   31     -2.20      0.00
    1    2   31     -2.28      0.00
    3    2   31    -33.87      0.00
    5    2   31     -7.20      0.00
    7    2   31      0.18      0.00
    9    2   31     -0.55      0.00
   11    2   31     -5.11      0.00
   13    2   31     -2.33      0.00
    0    3   31      0.34      0.00
    2    3   31     -3.19      0.00
    4    3   31      1.88      0.00
    6    3   31     -3.28      0.00
    8    3   31     -0.20      0.00
   10    3   31      1.47      0.00
   12    3   31      1.69      0.00
    1    4   31      3.39      0.00
    3    4   31     -7.69      0.00
    5    4   31      6.37      0.00
    7    4   31      3.34      0.00
    9    4   31      0.54      0.00
   11    4   31     -2.41      0.00
   13    4   31      2.20      0.00
    0    5   31     -2.94      0.00
    2    5   31     -1.34      0.00
    4    5   31     -0.14      0.00
    6    5   31     -1.90      0.00
    8    5   31     -1.32      0.00
   10    5   31     -1.99      0.00
   12    5   31      0.72      0.00
    1    6   31      4.18      0.00
    3    6   31      1.48      0.00
    5    6   31      6.12      0.00
    7    6   31     -2.76      0.00
    9    6   31      1.41      0.00
   11    6   31     -0.14      0.00
   13    6   31      3.84      0.00
    0    7   31     -2.45      0.00
    2    7   31     -2.62      0.00
    4    7   31     -3.49      0.00
    6    7   31      0.68      0.00
    8    7   31      2.42      0.00
   10    7   31      0.90      0.00
   12    7   31      3.88      0.00
    1    8   31     -0.06      0.00
    3    8   31      0.70      0.00
    5    8   31      6.15      0.00
    7    8   31     -2.17      0.00
    9    8   31     -1.83      0.00
   11    8   31     -3.28      0.00
    0    9   31      9.08      0.00
    2    9   31      0.14      0.00
    4    9   31      4.18      0.00
    6    9   31      3.49      0.00
    8    9   31      1.36      0.00
   10    9   31      1.95      0.00
   12    9   31     -3.72      0.00
    1   10   31      5.06      0.00
    3   10   31      0.02      0.00
    5   10   31     -1.07      0.00
    7   10   31     -0.77      0.00
    9   10   31      3.80      0.00
   11   10   31      2.00      0.00
    0   11   31     -3.04      0.00
    2   11   31     -8.99      0.00
    4   11   31     -0.38      0.00
    6   11   31      1.46      0.00
    8   11   31     -5.62      0.00
   10   11   31      3.42      0.00
    1   12   31     -1.50      0.00
    3   12   31     -2.39      0.00
    5   12   31      0.38      0.00
    7   12   31     -3.11      0.00
    9   12   31     -1.99      0.00
   11   12   31     -4.87      0.00
    0   13   31     -0.79      0.00
    2   13   31      0.88      0.00
    4   13   31      4.65      0.00
    6   13   31      0.15      0.00
    8   13   31     -4.01      0.00
   10   13   31      1.79      0.00
    1   14   31      0.25      0.00
    3   14   31      1.24      0.00
    5   14   31      2.29      0.00
    7   14   31     -2.23      0.00
    9   14   31     -2.58      0.00
    0   15   31      0.36      0.00
    2   15   31      0.48      0.00
    4   15   31     -1.24      0.00
    6   15   31     -5.61      0.00
    8   15   31     -0.01      0.00
    1   16   31      0.42      0.00
    3   16   31     -1.85      0.00
    5   16   31      1.92      0.00
    7   16   31      1.51      0.00
    0   17   31      7.49      0.00
    2   17   31     -1.54      0.00
    4   17   31     -2.95      0.00
    6   17   31      0.92      0.00
    1   18   31      0.97      0.00
    3   18   31      1.35      0.00
    5   18   31      0.49      0.00
    0   19   31      4.27      0.00
    2   19   31     -5.18      0.00
    0    0   32      6.30      0.00
    2    0   32      1.19      0.00
    4    0   32      3.71      0.00
    6    0   32      2.36      0.00
    8    0   32      4.74      0.00
   10    0   32     -0.51      0.00
   12    0   32      1.88      0.00
    1    1   32     -1.79      0.00
    3    1   32     10.43      0.00
    5    1   32     -0.62      0.00
    7    1   32      3.86      0.00
    9    1   32     -0.93      0.00
   11    1   32      0.24      0.00
   13    1   32     -0.74      0.00
    0    2   32      1.03      0.00
    2    2   32     10.72      0.00
    4    2   32      6.40      0.00
    6    2   32      2.92      0.00
    8    2   32      2.54      0.00
   10    2   32      0.99      0.00
   12    2   32      5.27      0.00
    1    3   32     -1.31      0.00
    3    3   32     10.81      0.00
    5    3   32     -1.36      0.00
    7    3   32      1.23      0.00
    9    3   32      2.01      0.00
   11    3   32      3.42      0.00
   13    3   32      2.99      0.00
    0    4   32     -3.59      0.00
    2    4   32      3.27      0.00
    4    4   32     -2.22      0.00
    6    4   32      0.20      0.00
    8    4   32     -0.22      0.00
   10    4   32     -0.68      0.00
   12    4   32      0.99      0.00
    1    5   32     -0.10      0.00
    3    5   32      3.69      0.00
    5    5   32      3.65      0.00
    7    5   32      3.53      0.00
    9    5   32      0.53      0.00
   11    5   32     -0.97      0.00
    0    6   32      9.89      0.00
    2    6   32     -1.56      0.00
    4    6   32     -0.20      0.00
    6    6   32     -1.04      0.00
    8    6   32     -1.13      0.00
   10    6   32      1.48      0.00
   12    6   32     -4.64      0.00
    1    7   32     -1.56      0.00
    3    7   32     -1.18      0.00
    5    7   32     -1.78      0.00
    7    7   32     -1.41      0.00
    9    7   32     -2.87      0.00
   11    7   32     -0.25      0.00
    0    8   32      3.07      0.00
    2    8   32     -5.01      0.00
    4    8   32      0.59      0.00
    6    8   32      1.18      0.00
    8    8   32     -2.10      0.00
   10    8   32      2.55      0.00
    1    9   32      1.65      0.00
    3    9   32     -0.57      0.00
    5    9   32      0.41      0.00
    7    9   32     -4.24      0.00
    9    9   32     -1.80      0.00
   11    9   32     -0.46      0.00
    0   10   32      2.24      0.00
    2   10   32     -2.53      0.00
    4   10   32     -2.83      0.00
    6   10   32     -0.74      0.00
    8   10   32     -1.64      0.00
   10   10   32     -3.38      0.00
    1   11   32     -1.53      0.00
    3   11   32     -4.85      0.00
    5   11   32     -0.89      0.00
    7   11   32     -3.46      0.00
    9   11   32     -1.19      0.00
    0   12   32      1.84      0.00
    2   12   32     -2.21      0.00
    4   12   32     -1.24      0.00
    6   12   32      3.56      0.00
    8   12   32      1.59      0.00
   10   12   32     -1.76      0.00
    1   13   32      4.09      0.00
    3   13   32     -0.12      0.00
    5   13   32      0.60      0.00
    7   13   32      1.10      0.00
    9   13   32      3.68      0.00
    0   14   32      7.24      0.00
    2   14   32     -0.42      0.00
    4   14   32     -6.52      0.00
    6   14   32     -0.22      0.00
    8   14   32     -2.18      0.00
    1   15   32     -4.68      0.00
    3   15   32      1.23      0.00
    5   15   32     -0.56      0.00
    7   15   32     -3.50      0.00
    0   16   32      2.94      0.00
    2   16   32     -0.71      0.00
    4   16   32      1.53      0.00
    6   16   32      1.86      0.00
    1   17   32      1.39      0.00
    3   17   32     11.84      0.00
    5   17   32      1.25      0.00
    0   18   32      4.12      0.00
    2   18   32      0.39      0.00
    1    0   33     -9.96      0.00
    3    0   33     -1.26      0.00
    5    0   33     -0.76      0.00
    7    0   33     -3.60      0.00
    9    0   33      1.41      0.00
   11    0   33     -2.25      0.00
    0    1   33     -1.97      0.00
    2    1   33      2.40      0.00
    4    1   33      2.41      0.00
    6    1   33     -1.44      0.00
    8    1   33     -2.94      0.00
   10    1   33      0.14      0.00
   12    1   33      1.18      0.00
    1    2   33     -1.22      0.00
    3    2   33     -2.28      0.00
    5    2   33      2.79      0.00
    7    2   33     -0.15      0.00
    9    2   33      1.66      0.00
   11    2   33     -2.55      0.00
    0    3   33      2.18      0.00
    2    3   33     -2.95      0.00
    4    3   33      3.47      0.00
    6    3   33      3.57      0.00
    8    3   33      0.26      0.00
   10    3   33     -0.13      0.00
   12    3   33     -1.29      0.00
    1    4   33     -3.80      0.00
    3    4   33     -4.79      0.00
    5    4   33     -3.00      0.00
    7    4   33      0.34      0.00
    9    4   33      0.10      0.00
   11    4   33      0.51      0.00
    0    5   33      1.52      0.00
    2    5   33      2.92      0.00
    4    5   33     -0.96      0.00
    6    5   33      0.13      0.00
    8    5   33      1.57      0.00
   10    5   33     -0.46      0.00
    1    6   33     -0.96      0.00
    3    6   33      5.36      0.00
    5    6   33     -1.09      0.00
    7    6   33     -0.48      0.00
    9    6   33     -0.36      0.00
   11    6   33      1.32      0.00
    0    7   33     -2.52      0.00
    2    7   33      0.12      0.00
    4    7   33     -9.10      0.00
    6    7   33     -1.82      0.00
    8    7   33      0.25      0.00
   10    7   33     -4.44      0.00
    1    8   33     -4.81      0.00
    3    8   33      0.52      0.00
    5    8   33      0.49      0.00
    7    8   33      2.07      0.00
    9    8   33     -0.08      0.00
   11    8   33     -3.50      0.00
    0    9   33     -1.24      0.00
    2    9   33     -0.59      0.00
    4    9   33     -5.86      0.00
    6    9   33      0.47      0.00
    8    9   33      2.49      0.00
   10    9   33     -0.95      0.00
    1   10   33      2.98      0.00
    3   10   33      0.48      0.00
    5   10   33     -1.58      0.00
    7   10   33      0.44      0.00
    9   10   33      0.98      0.00
    0   11   33     -2.21      0.00
    2   11   33      0.87      0.00
    4   11   33      1.93      0.00
    6   11   33     -0.80      0.00
    8   11   33      0.70      0.00
    1   12   33      0.29      0.00
    3   12   33     -1.17      0.00
    5   12   33     -2.40      0.00
    7   12   33     -2.23      0.00
    9   12   33      1.37      0.00
    0   13   33      2.44      0.00
    2   13   33     -0.46      0.00
    4   13   33      3.56      0.00
    6   13   33     -3.43      0.00
    8   13   33      3.22      0.00
    1   14   33      1.36      0.00
    3   14   33      2.15      0.00
    5   14   33     -3.55      0.00
    7   14   33      4.55      0.00
    0   15   33      2.39      0.00
    2   15   33     -4.08      0.00
    4   15   33      4.55      0.00
    6   15   33      2.50      0.00
    1   16   33     -6.38      0.00
    3   16   33      1.63      0.00
    5   16   33     -0.91      0.00
    0   17   33     -3.33      0.00
    2   17   33     -5.80      0.00
    0    0   34     -5.02      0.00
    2    0   34     -4.55      0.00
    4    0   34      0.49      0.00
    6    0   34     -1.03      0.00
    8    0   34      3.06      0.00
   10    0   34      4.26      0.00
    1    1   34      5.23      0.00
    3    1   34     -4.65      0.00
    5    1   34     -1.82      0.00
    7    1   34     -2.59      0.00
    9    1   34     -3.41      0.00
   11    1   34     -2.30      0.00
    0    2   34      5.40      0.00
    2    2   34      3.95      0.00
    4    2   34     -0.33      0.00
    6    2   34     -7.88      0.00
    8    2   34     -2.56      0.00
   10    2   34     -0.56      0.00
    1    3   34     -6.60      0.00
    3    3   34      0.14      0.00
    5    3   34     -1.95      0.00
    7    3   34     -0.35      0.00
    9    3   34      1.19      0.00
   11    3   34      1.77      0.00
    0    4   34     -3.15      0.00
    2    4   34     -3.06      0.00
    4    4   34     -2.41      0.00
    6    4   34     -5.08      0.00
    8    4   34     -4.49      0.00
   10    4   34     -1.78      0.00
    1    5   34     -1.68      0.00
    3    5   34     -1.08      0.00
    5    5   34      0.28      0.00
    7    5   34      1.04      0.00
    9    5   34      1.50      0.00
   11    5   34     -1.81      0.00
    0    6   34      2.89      0.00
    2    6   34      4.59      0.00
    4    6   34      4.32      0.00
    6    6   34      2.05      0.00
    8    6   34     -0.92      0.00
   10    6   34      2.77      0.00
    1    7   34      1.69      0.00
    3    7   34      1.29      0.00
    5    7   34      0.69      0.00
    7    7   34     -0.42      0.00
    9    7   34      1.21      0.00
    0    8   34     -2.64      0.00
    2    8   34      3.20      0.00
    4    8   34      5.57      0.00
    6    8   34      0.39      0.00
    8    8   34      0.70      0.00
   10    8   34      1.39      0.00
    1    9   34     -0.90      0.00
    3    9   34      4.63      0.00
    5    9   34      0.38      0.00
    7    9   34      2.55      0.00
    9    9   34      3.38      0.00
    0   10   34      1.03      0.00
    2   10   34      1.33      0.00
    4   10   34      3.43      0.00
    6   10   34      0.41      0.00
    8   10   34      0.93      0.00
    1   11   34     -0.48      0.00
    3   11   34      9.02      0.00
    5   11   34      0.66      0.00
    7   11   34      4.20      0.00
    0   12   34      0.47      0.00
    2   12   34     -1.72      0.00
    4   12   34     -1.07      0.00
    6   12   34      4.54      0.00
    1   13   34     -6.73      0.00
    3   13   34      3.67      0.00
    5   13   34      1.42      0.00
    7   13   34      2.44      0.00
    0   14   34     -3.76      0.00
    2   14   34      0.22      0.00
    4   14   34      0.16      0.00
    6   14   34      4.46      0.00
    1   15   34      1.72      0.00
    3   15   34      1.45      0.00
    0   16   34      5.39      0.00
    2   16   34      5.43      0.00
    1    0   35     -0.92      0.00
    3    0   35      2.05      0.00
    5    0   35     -1.69      0.00
    7    0   35     10.24      0.00
    9    0   35      2.21      0.00
    0    1   35      0.51      0.00
    2    1   35      2.25      0.00
    4    1   35     -0.34      0.00
    6    1   35      2.67      0.00
    8    1   35      1.85      0.00
   10    1   35      0.58      0.00
    1    2   35      3.51      0.00
    3    2   35      2.92      0.00
    5    2   35      2.94      0.00
    7    2   35      4.52      0.00
    9    2   35     -4.25      0.00
    0    3   35      0.20      0.00
    2    3   35      1.50      0.00
    4    3   35     -3.42      0.00
    6    3   35      0.35      0.00
    8    3   35      2.06      0.00
   10    3   35     -1.62      0.00
    1    4   35      2.41      0.00
    3    4   35     -4.87      0.00
    5    4   35     -2.49      0.00
    7    4   35     -2.41      0.00
    9    4   35     -5.11      0.00
    0    5   35      0.39      0.00
    2    5   35     -0.47      0.00
    4    5   35      5.51      0.00
    6    5   35     -0.68      0.00
    8    5   35      5.94      0.00
   10    5   35      1.89      0.00
    1    6   35     -1.68      0.00
    3    6   35     -3.30      0.00
    5    6   35     -0.01      0.00
    7    6   35      3.15      0.00
    9    6   35      1.76      0.00
    0    7   35      5.54      0.00
    2    7   35     -2.70      0.00
    4    7   35      6.67      0.00
    6    7   35      0.00      0.00
    8    7   35     -0.37      0.00
    1    8   35      2.42      0.00
    3    8   35     -1.10      0.00
    5    8   35     -3.66      0.00
    7    8   35     -1.66      0.00
    9    8   35      0.78      0.00
    0    9   35     -2.21      0.00
    2    9   35     -7.78      0.00
    4    9   35     -4.93      0.00
    6    9   35     -0.09      0.00
    8    9   35     -1.93      0.00
    1   10   35     -1.97      0.00
    3   10   35      0.11      0.00
    5   10   35      3.08      0.00
    7   10   35     -2.91      0.00
    0   11   35      6.35      0.00
    2   11   35      2.84      0.00
    4   11   35     -2.00      0.00
    6   11   35     -1.94      0.00
    1   12   35      3.57      0.00
    3   12   35      0.21      0.00
    5   12   35     -1.32      0.00
    0   13   35      1.68      0.00
    2   13   35     -2.89      0.00
    4   13   35     -4.86      0.00
    1   14   35      0.56      0.00
    3   14   35     -2.01      0.00
    0   15   35      2.44      0.00
    2    0   36     -2.32      0.00
    4    0   36     -7.05      0.00
    6    0   36      2.68      0.00
    8    0   36     -2.53      0.00
    1    1   36     -5.64      0.00
    3    1   36     -1.17      0.00
    5    1   36     -0.58      0.00
    7    1   36     -4.10      0.00
    9    1   36      2.44      0.00
    0    2   36      0.53      0.00
    2    2   36      0.83      0.00
    4    2   36     -2.41      0.00
    6    2   36      1.73      0.00
    8    2   36      0.72      0.00
    1    3   36     -2.37      0.00
    3    3   36      0.78      0.00
    5    3   36      1.71      0.00
    7    3   36      0.49      0.00
    9    3   36      4.20      0.00
    0    4   36      4.64      0.00
    2    4   36      4.67      0.00
    4    4   36      0.70      0.00
    6    4   36      4.82      0.00
    8    4   36     -1.61      0.00
    1    5   36      0.97      0.00
    3    5   36      3.09      0.00
    5    5   36      0.11      0.00
    7    5   36     -1.43      0.00
    0    6   36     -4.70      0.00
    2    6   36     -0.13      0.00
    4    6   36    -10.32      0.00
    6    6   36      1.10      0.00
    8    6   36     -5.56      0.00
    1    7   36      0.56      0.00
    3    7   36     -1.48      0.00
    5    7   36     -3.22      0.00
    7    7   36     -2.45      0.00
    0    8   36     -1.42      0.00
    2    8   36      3.71      0.00
    4    8   36     -1.38      0.00
    6    8   36     -0.74      0.00
    1    9   36     -1.74      0.00
    3    9   36     -4.29      0.00
    5    9   36     -2.75      0.00
    7    9   36      1.55      0.00
    0   10   36     -6.01      0.00
    2   10   36     -3.06      0.00
    4   10   36     -0.48      0.00
    6   10   36      0.46      0.00
    1   11   36      2.65      0.00
    3   11   36      1.85      0.00
    5   11   36      1.12      0.00
    0   12   36     -3.18      0.00
    2   12   36     -0.49      0.00
    4   12   36     -2.58      0.00
    1   13   36     -0.83      0.00
    3    0   37      5.08      0.00
    5    0   37      3.36      0.00
    7    0   37     -4.91      0.00
    2    1   37     -2.59      0.00
    4    1   37     -0.12      0.00
    6    1   37      1.34      0.00
    8    1   37     -4.89      0.00
    1    2   37     -1.36      0.00
    3    2   37      1.98      0.00
    5    2   37      1.55      0.00
    7    2   37     -0.66      0.00
    0    3   37      0.74      0.00
    2    3   37      0.37      0.00
    4    3   37     -0.26      0.00
    6    3   37      6.15      0.00
    8    3   37     -1.06      0.00
    1    4   37     -1.85      0.00
    3    4   37      2.82      0.00
    5    4   37     -2.24      0.00
    7    4   37     -0.01      0.00
    0    5   37     -5.13      0.00
    2    5   37     -0.56      0.00
    4    5   37      1.72      0.00
    6    5   37      4.16      0.00
    1    6   37     -0.45      0.00
    3    6   37      3.94      0.00
    5    6   37     -0.72      0.00
    7    6   37      0.23      0.00
    0    7   37     -6.47      0.00
    2    7   37      2.13      0.00
    4    7   37      4.26      0.00
    6    7   37      6.78      0.00
    1    8   37      2.48      0.00
    3    8   37      5.59      0.00
    5    8   37      1.95      0.00
    0    9   37     -4.56      0.00
    2    9   37      1.88      0.00
    4    9   37     -4.81      0.00
    1   10   37      1.39      0.00
    3   10   37      3.37      0.00
    0   11   37      0.98      0.00
    2   11   37      2.47      0.00
    4    0   38      0.18      0.00
    6    0   38     -1.48      0.00
    3    1   38     -3.20      0.00
    5    1   38     -1.68      0.00
    2    2   38     -1.22      0.00
    4    2   38     -2.57      0.00
    6    2   38     -1.12      0.00
    3    3   38     -3.61      0.00
    5    3   38     -1.60      0.00
    0    4   38      1.36      0.00
    2    4   38      3.97      0.00
    4    4   38     -0.95      0.00
    6    4   38     -0.20      0.00
    1    5   38      0.91      0.00
    3    5   38     -5.12      0.00
    5    5   38      1.42      0.00
    0    6   38      2.25      0.00
    2    6   38     -3.10      0.00
    4    6   38    -11.12      0.00
    1    7   38      4.40      0.00
    3    7   38      0.20      0.00
    0    8   38      8.72      0.00
    2    8   38     -0.16      0.00
    4    8   38     -2.67      0.00
    1    9   38      6.05      0.00
    3    0   39     -1.47      0.00
    5    0   39     -3.11      0.00
    4    1   39     -2.05      0.00
    3    2   39     13.26      0.00
    4    3   39     -0.46      0.00
    3    4   39      2.34      0.00
    0    5   39      0.11      0.00
    2    5   39     -6.44      0.00
    1    6   39      0.43      0.00
    0    7   39     -8.68      0.00
    1    1   40     -4.89      0.00
   22    0    0      2.90      0.00
    1    1    0    -12.10      0.00
   22    2    0      3.80      0.00
    1    7    0    -86.10      0.00
   18   18    0      2.79      0.00
   14   24    0     -3.28      0.00
   13   25    0     -2.12      0.00
   12   26    0      0.52      0.00
   11   27    0     -0.10      0.00
    6   30    0      0.31      0.00
    1   31    0     -2.81      0.00
    1    0    1   -153.65      0.00
    0    1    1   -382.57      0.00
   22    1    1      0.60      0.00
   22    3    1     -1.85      0.00
   20   13    1     -3.53      0.00
   19   16    1      7.45      0.00
   17   20    1      1.13      0.00
    8   29    1      1.99      0.00
    0   31    1      5.96      0.00
    2   31    1      6.44      0.00
    0    0    2    -39.17      0.00
   22    0    2     -4.98      0.00
   22    2    2     -1.72      0.00
   21    9    2      1.48      0.00
   18   18    2      0.57      0.00
   14   24    2     -0.27      0.00
   13   25    2      4.10      0.00
   12   26    2     -1.22      0.00
   11   27    2     -1.29      0.00
    6   30    2     -3.33      0.00
    1   31    2      3.20      0.00
   22    1    3      3.57      0.00
   20   13    3      0.19      0.00
    8   29    3      2.09      0.00
    0   31    3      0.22      0.00
    2   31    3      0.21      0.00
   22    0    4     -4.00      0.00
    1    3    4    -91.11      0.00
   21    9    4      0.92      0.00
   13   25    4      2.80      0.00
   12   26    4     -1.78      0.00
    1   31    4      4.06      0.00
   16   21    5     -4.51      0.00
    9   28    5     -3.45      0.00
    5   30    5      1.31      0.00
   20   12    6      1.92      0.00
   19   15    6      2.01      0.00
    7   29    6     -1.41      0.00
   21    8    7     -3.13      0.00
   18   17    7      0.28      0.00
   15   22    7     -0.62      0.00
    9   28    7      3.70      0.00
    2    6    8    -62.04      0.00
   21    7    8      6.08      0.00
   17   19    8     -1.18      0.00
    4   30    8     -1.04      0.00
   21    6    9     -6.21      0.00
   20   11    9     -3.21      0.00
   19   14    9      0.56      0.00
   14   23    9      2.58      0.00
   13   24    9      4.33      0.00
   12   25    9      2.17      0.00
   11   26    9     -4.51      0.00
    6   29    9     -3.59      0.00
    3   30    9      2.34      0.00
   21    5   10      7.68      0.00
   18   16   10      2.58      0.00
   16   20   10      1.94      0.00
    8   28   10      0.79      0.00
    0   30   10     -5.46      0.00
    2   30   10     -2.63      0.00
   21    4   11     -5.77      0.00
   17   18   11     -1.28      0.00
    1   30   11      7.72      0.00
   21    1   12      1.63      0.00
   21    3   12      3.88      0.00
   19   13   12      1.84      0.00
   15   21   12      0.89      0.00
   14   22   12     -4.90      0.00
   10   26   12      0.71      0.00
   19   12   13     -0.64      0.00
   18   15   13      1.51      0.00
   16   19   13      2.60      0.00
    4   29   13      1.58      0.00
    6   28   14      0.42      0.00
    1   29   14     -2.12      0.00
   17   16   15     -1.40      0.00
   14   21   15      5.70      0.00
    9   26   15     -0.98      0.00
    5   28   15      4.56      0.00
   20    4   16     -3.37      0.00
   15   19   16     -4.07      0.00
    4   28   16     -3.61      0.00
   20    1   17      9.48      0.00
   16   17   17      0.96      0.00
    6   27   17      4.60      0.00
    3   28   17      2.55      0.00
   19    7   18     -4.23      0.00
   13   21   18    -10.89      0.00
   12   22   18      3.27      0.00
   11   23   18      2.35      0.00
   10   24   18      2.63      0.00
    0   26   18      5.67      0.00
    5   27   18     -4.76      0.00
   19    6   19      7.83      0.00
   14   19   19      2.31      0.00
    0   25   19     -1.26      0.00
    8   25   19     -1.92      0.00
   19    3   20      4.85      0.00
   15   17   20     -1.51      0.00
    0   24   20     -1.47      0.00
    7   25   20      4.54      0.00
    0   26   20      5.76      0.00
    1   27   20     -1.61      0.00
   15   16   21      3.55      0.00
    0   25   21     -1.97      0.00
    6   25   21      2.07      0.00
   18    6   22     -0.15      0.00
   15   15   22     -1.69      0.00
   11   21   22      4.13      0.00
   10   22   22      3.67      0.00
    0   24   22      5.41      0.00
    1   25   22      0.09      0.00
    5   25   22     -2.92      0.00
    0   26   22     -3.09      0.00
    2   26   22      6.49      0.00
   18    1   23      2.11      0.00
   18    3   23     -4.96      0.00
   12   19   23      1.70      0.00
    9   22   23      4.46      0.00
    8   23   23      1.28      0.00
    0   25   23      0.07      0.00
    4   25   23      1.97      0.00
   17    7   24      0.87      0.00
   15   13   24     -2.09      0.00
   13   17   24     -2.79      0.00
    7   23   24      0.48      0.00
    0   24   24      0.16      0.00
    1   25   24     -1.38      0.00
   17    4   25     -0.36      0.00
   16    9   25      3.08      0.00
   15   12   25      0.65      0.00
   13   16   25     -0.14      0.00
    0   23   25     -0.64      0.00
    6   23   25     -3.34      0.00
    1   24   25     -6.20      0.00
    3   24   25      0.15      0.00
   15   11   26     -1.74      0.00
   13   15   26     -1.58      0.00
    6   22   26      4.46      0.00
   16    5   27      4.08      0.00
   13   14   27      4.30      0.00
    5   22   27      5.85      0.00
    0   23   27      3.15      0.00
    2   23   27      1.93      0.00
   15    7   28      7.03      0.00
   13   13   28     -3.88      0.00
    2   22   28     -4.81      0.00
   15    4   29      0.69      0.00
   14    9   29     -3.34      0.00
   14    6   30     -6.05      0.00
   12   12   30      0.72      0.00
    4   20   30     -5.81      0.00
   14    1   31     -1.08      0.00
   14    3   31     -1.30      0.00
   13    8   31     -0.31      0.00
    4   19   31     -0.68      0.00
   13    5   32     -1.03      0.00
   12    8   32      3.01      0.00
   11   11   32      0.62      0.00
    4   18   32      4.81      0.00
    1   19   32     -1.49      0.00
   12    5   33      3.62      0.00
   10   11   33     -1.83      0.00
    4   17   33     -5.71      0.00
    9   11   34     -2.26      0.00
    8   12   34     -1.95      0.00
    5   15   34      2.40      0.00
   11    0   35      4.43      0.00
    7   12   35     -6.58      0.00
    6   13   35     -4.23      0.00
    2   15   35     -1.08      0.00
    0    0   36     -7.14      0.00
   10    0   36     -3.45      0.00
    9    5   36      0.12      0.00
    8    8   36     -1.05      0.00
    3   13   36      1.76      0.00
    0   14   36     -3.88      0.00
    1    0   37      7.05      0.00
    0    1   37     10.91      0.00
    8    5   37     -0.31      0.00
    6    9   37      4.47      0.00
    5   10   37      1.57      0.00
    4   11   37     -2.00      0.00
    1   12   37      1.04      0.00
    0    0   38      6.74      0.00
    2    0   38     17.51      0.00
    1    1   38     -9.80      0.00
    7    1   38      1.55      0.00
    0    2   38    -13.24      0.00
    1    3   38      2.43      0.00
    7    3   38     -4.56      0.00
    6    6   38     -3.42      0.00
    5    7   38      4.40      0.00
    3    9   38      0.61      0.00
    0   10   38     -5.15      0.00
    2   10   38     -4.82      0.00
    1    0   39     -9.52      0.00
    0    1   39      5.26      0.00
    2    1   39     -2.31      0.00
    1    2   39      4.52      0.00
    5    2   39      2.93      0.00
    0    3   39     17.37      0.00
    2    3   39      4.27      0.00
    1    4   39     -8.85      0.00
    5    4   39     -3.72      0.00
    4    5   39      1.29      0.00
    3    6   39      4.95      0.00
    2    7   39     -6.39      0.00
    1    8   39     -3.10      0.00
    0    0   40     16.37      0.00
    2    0   40      5.30      0.00
    3    1   40     -5.48      0.00
    0    2   40      0.18      0.00
    2    2   40     -6.65      0.00
    1    3   40     -3.79      0.00
    0    4   40      2.98      0.00
    0    0    0      0.00      0.00
# SQUEEZE RESULTS (Version = 260918)
# Note: Data are Listed for all Voids in the P1 Unit Cell
# i.e. Centre of Gravity, Solvent Accessible Volume,
# Recovered number of Electrons in the Void and
# Details about the Squeezed Material
loop_
  _platon_squeeze_void_nr
  _platon_squeeze_void_average_x
  _platon_squeeze_void_average_y
  _platon_squeeze_void_average_z
  _platon_squeeze_void_volume
  _platon_squeeze_void_count_electrons
  _platon_squeeze_void_content
   1 -0.041  0.342 -0.003      8448      1886 ' '
# Missing Reflections Below sin(th)/lambda = 0.25
loop_
  _platon_missing_refln_index_h
  _platon_missing_refln_index_k
  _platon_missing_refln_index_l
  _platon_missing_refln_theta
    1    1    0     2.956
    1    7    0    12.302
    1    0    1     2.749
    0    1    1     2.161
    0    0    2     2.642
    1    3    4     7.771
    2    6    8    15.690
_platon_squeeze_void_probe_radius                  1.20
_platon_squeeze_details
)
TITL ./TSTMOF-32_a    I m m m      R = 0.12
CELL   18.3318   25.8343   33.4448     90.00     90.00     90.00
SPGR Immm
# Solvent Accessible Volume =      8449
# Electrons Found in S.A.V. =      1869
# Note: Atoms in Void are Labelled as Cxxx and Qxxx for all Others
C101 0.191 0.054 0.232 !       2.62 eA-3
C102 0.712 0.527 0.226 !       2.16 eA-3
C103 0.287 0.500 0.242 !       2.12 eA-3
C104 0.280 0.557 0.195 !       2.06 eA-3
Q105 0.500 0.519 0.219 !       1.59 eA-3
C106 0.500 0.390 0.234 !       1.57 eA-3
Q107 0.511 0.772 0.377 !       1.49 eA-3
C108 0.798 0.653 0.126 !       1.37 eA-3
C109 1.000 0.868 0.244 !       1.32 eA-3
Q110 1.000 0.087 0.237 !       1.32 eA-3
C111 0.500 0.555 0.189 !       1.27 eA-3
C112 0.346 0.322 0.117 !       1.21 eA-3
C113 0.500 0.199 0.141 !       1.16 eA-3
Q114 0.464 0.851 0.577 !       1.05 eA-3
Q115 0.964 0.351 0.077 !       1.05 eA-3
Q116 1.000 0.043 0.242 !       1.03 eA-3
C117 0.080 0.747 0.139 !       1.01 eA-3
C118 0.500 0.267 0.367 !       1.00 eA-3
Q119 0.517 0.157 0.586 !       0.99 eA-3
C120 0.557 0.203 0.154 !       0.99 eA-3
Q121 0.454 0.833 0.408 !       0.97 eA-3
C122 0.576 0.154 0.166 !       0.95 eA-3
Q123 0.396 1.001 0.234 !       0.93 eA-3
Q124 1.000 0.008 0.235 !       0.93 eA-3
C125 1.000 0.151 0.203 !       0.90 eA-3
C126 1.000 0.371 0.052 !       0.89 eA-3
C127 0.531 0.157 0.150 !       0.87 eA-3
C128 0.500 0.253 0.078 !       0.85 eA-3
C129 1.000 0.190 0.312 !       0.85 eA-3
C130 0.538 0.746 0.156 !       0.84 eA-3
C131 0.870 0.587 0.064 !       0.82 eA-3
C132 1.000 0.803 0.173 !       0.80 eA-3
C133 0.511 0.321 0.000 !       0.79 eA-3
C134 0.500 0.743 0.146 !       0.78 eA-3
C135 0.595 0.887 0.430 !       0.77 eA-3
C136 1.000 0.500 0.000 !       0.75 eA-3
C137 0.500 0.125 0.163 !       0.75 eA-3
Q138 0.500 0.508 0.289 !       0.74 eA-3
Q139 0.851 1.000 0.000 !       0.74 eA-3
Q140 0.271 0.998 0.102 !       0.74 eA-3
Q141 0.878 0.460 0.274 !       0.73 eA-3
Q142 0.773 0.016 0.001 !       0.73 eA-3
Q143 0.345 0.021 0.109 !       0.72 eA-3
C144 0.500 0.727 0.054 !       0.72 eA-3
C145 0.500 0.106 0.125 !       0.72 eA-3
C146 0.787 1.001 0.195 !       0.70 eA-3
C147 0.500 0.065 0.103 !       0.70 eA-3
C148 1.000 0.609-0.001 !       0.67 eA-3
C149 0.061 0.515 0.000 !       0.67 eA-3
C150 0.044 0.500 0.000 !       0.65 eA-3
C151 1.000 0.429 0.012 !       0.64 eA-3
Q152 0.282 0.996 0.117 !       0.63 eA-3
C153 0.500 0.016 0.003 !       0.61 eA-3
Q154 0.708 0.148-0.001 !       0.60 eA-3
Q155 0.532 0.419 0.239 !       0.60 eA-3
C156 0.500 0.498 0.094 !       0.59 eA-3
C157 0.459 0.256 0.113 !       0.58 eA-3
C158 0.949 0.231 0.400 !       0.58 eA-3
Q159 0.687 0.985 0.079 !       0.58 eA-3
Q160 1.000 0.999 0.023 !       0.57 eA-3
C161 0.755 0.620 0.095 !       0.57 eA-3
C162 0.472 0.706 0.151 !       0.57 eA-3
C163 0.500 0.471 0.070 !       0.57 eA-3
Q164 1.000 0.101 0.000 !       0.57 eA-3
Q165 0.640 0.957 0.080 !       0.56 eA-3
C166 0.500 0.644 0.179 !       0.56 eA-3
C167 0.500 0.672 0.156 !       0.55 eA-3
Q168 0.604 0.038 0.109 !       0.55 eA-3
C169 0.471 0.352-0.001 !       0.54 eA-3
C170 0.940 0.210 0.377 !       0.54 eA-3
C171 0.051 0.442 0.022 !       0.54 eA-3
C172 0.033 0.593 0.046 !       0.53 eA-3
C173 0.500 1.001 0.070 !       0.53 eA-3
C174 0.066 0.193 0.383 !       0.53 eA-3
C175 1.000 0.396 0.023 !       0.52 eA-3
C176 0.822 1.001 0.195 !       0.51 eA-3
Q177 0.185 0.938 0.002 !       0.51 eA-3
C178 0.659 0.066 0.469 !       0.51 eA-3
C179 0.426 0.313 0.001 !       0.51 eA-3
Q180 0.957 0.193 0.109 !       0.51 eA-3
Q181 0.834 0.132 0.297 !       0.51 eA-3
C182 0.500 0.975 0.064 !       0.50 eA-3
C183 0.457 0.047 0.102 !       0.50 eA-3
)
;
_shelx_fab_checksum              88974
loop_
_space_group_symop_operation_xyz
'x, y, z'
'-x, -y, z'
'-x, y, -z'
'x, -y, -z'
'x+1/2, y+1/2, z+1/2'
'-x+1/2, -y+1/2, z+1/2'
'-x+1/2, y+1/2, -z+1/2'
'x+1/2, -y+1/2, -z+1/2'
'-x, -y, -z'
'x, y, -z'
'x, -y, z'
'-x, y, z'
'-x+1/2, -y+1/2, -z+1/2'
'x+1/2, y+1/2, -z+1/2'
'x+1/2, -y+1/2, z+1/2'
'-x+1/2, y+1/2, z+1/2'
loop_
_atom_site_label
_atom_site_type_symbol
_atom_site_fract_x
_atom_site_fract_y
_atom_site_fract_z
_atom_site_U_iso_or_equiv
_atom_site_adp_type
_atom_site_occupancy
_atom_site_site_symmetry_order
_atom_site_calc_flag
_atom_site_refinement_flags_posn
_atom_site_refinement_flags_adp
_atom_site_refinement_flags_occupancy
_atom_site_disorder_assembly
_atom_site_disorder_group
C10A C 0.500000 0.1000(2) 0.29913(18) 0.0663(14) Uani 1 2 d S T P . .
C11A C 0.4349(2) 0.12489(15) 0.29057(13) 0.0670(10) Uani 1 1 d . . . . .
H11A H 0.390089 0.108430 0.296964 0.080 Uiso 1 1 calc R U . . .
C12A C 0.4341(2) 0.17341(15) 0.27284(12) 0.0594(9) Uani 1 1 d . . . . .
C13A C 0.500000 0.1972(2) 0.26336(17) 0.0630(13) Uani 1 2 d S T P . .
H13A H 0.500000 0.229925 0.250353 0.076 Uiso 1 2 calc R U P . .
C14A C 0.3648(2) 0.20016(15) 0.26452(11) 0.0601(9) Uani 1 1 d . . . . .
C20A C 0.500000 0.000000 0.2961(2) 0.0640(18) Uani 1 4 d DS T P . .
C21A C 0.500000 0.0465(2) 0.31728(18) 0.0677(14) Uani 1 2 d DS T P . .
C22A C 0.500000 0.0459(2) 0.3576(2) 0.129(4) Uani 1 2 d DS T P . .
H22A H 0.500000 0.077709 0.371797 0.155 Uiso 1 2 calc R U P . .
C23A C 0.500000 0.000000 0.3786(3) 0.178(9) Uani 1 4 d DS T P . .
H23A H 0.500000 0.000000 0.407054 0.213 Uiso 1 4 calc R U P . .
C40A C 0.5808(9) -0.0343(10) 0.2263(6) 0.363(19) Uani 0.5 1 d D U P . .
H40A H 0.611903 -0.041492 0.249879 0.435 Uiso 0.5 1 calc R U P . .
H40B H 0.567518 -0.067686 0.213742 0.435 Uiso 0.5 1 calc R U P . .
C41A C 0.6224(17) 0.000000 0.1961(11) 0.50(3) Uani 1 2 d DS TU P . .
H41A H 0.666843 -0.017860 0.187461 0.757 Uiso 0.5 1 calc R U P . .
H41B H 0.591278 0.006767 0.172893 0.757 Uiso 0.5 1 calc R U P . .
H41C H 0.635495 0.032862 0.208892 0.757 Uiso 0.5 1 calc R U P . .
P40B P 0.2662(3) 0.11880(18) 0.000000 0.0930(11) Uani 0.5 2 d DS T P A 1
O13B O 0.0593(4) 0.0617(2) 0.07902(18) 0.0545(16) Uani 0.5 1 d . . P A 1
O40B O 0.2103(9) 0.0720(5) 0.000000 0.145(5) Uani 0.5 2 d DS T P A 1
C10B C 0.2016(6) 0.1856(3) 0.0751(2) 0.065(2) Uani 0.5 1 d . . P A 1
C11B C 0.2283(7) 0.2050(5) 0.1109(4) 0.066(3) Uani 0.5 1 d . . P A 1
H11B H 0.259656 0.234255 0.111368 0.079 Uiso 0.5 1 calc R U P A 1
C12B C 0.207(2) 0.180(2) 0.1469(10) 0.064(7) Uani 0.5 1 d . . P A 1
C13B C 0.1585(7) 0.1381(7) 0.1447(5) 0.044(2) Uani 0.5 1 d . . P A 1
H13B H 0.140015 0.123874 0.168854 0.053 Uiso 0.5 1 calc R U P A 1
C14B C 0.1379(6) 0.1181(5) 0.1111(4) 0.048(3) Uani 0.5 1 d . . P A 1
C15B C 0.1541(6) 0.1433(3) 0.0757(2) 0.062(2) Uani 0.5 1 d . . P A 1
H15B H 0.132534 0.131752 0.051499 0.074 Uiso 0.5 1 calc R U P A 1
C17B C 0.0851(6) 0.0744(4) 0.1126(4) 0.040(2) Uani 0.5 1 d . . P A 1
C20B C 0.2228(6) 0.1859(5) 0.000000 0.075(3) Uani 0.5 2 d DS T P A 1
C21B C 0.2169(4) 0.2125(3) 0.0358(2) 0.069(2) Uani 0.5 1 d D . P A 1
C22B C 0.2049(5) 0.2673(3) 0.03560(19) 0.098(4) Uani 0.5 1 d D . P A 1
H22B H 0.200845 0.285709 0.060062 0.118 Uiso 0.5 1 calc R U P A 1
C23B C 0.1994(8) 0.2927(5) 0.000000 0.134(9) Uani 0.5 2 d DS T P A 1
H23B H 0.191455 0.329054 0.000000 0.161 Uiso 0.5 2 calc R U P A 1
C40B C 0.3226(9) 0.1130(6) 0.0417(3) 0.134(5) Uani 0.5 1 d D . P A 1
H40C H 0.292046 0.114666 0.066096 0.161 Uiso 0.5 1 calc R U P A 1
H40D H 0.345997 0.078419 0.041148 0.161 Uiso 0.5 1 calc R U P A 1
C41B C 0.3827(17) 0.1543(15) 0.0449(8) 0.35(3) Uani 0.5 1 d D U P A 1
H41D H 0.411698 0.148212 0.069043 0.531 Uiso 0.5 1 calc R U P A 1
H41E H 0.414319 0.152389 0.021323 0.531 Uiso 0.5 1 calc R U P A 1
H41F H 0.360263 0.188706 0.046319 0.531 Uiso 0.5 1 calc R U P A 1
P40C P 0.1438(3) 0.19166(16) 0.000000 0.0914(11) Uani 0.5 2 d DS T P A 2
O13C O 0.0894(4) 0.0422(3) 0.0797(2) 0.0547(15) Uani 0.5 1 d . . P A 2
O40C O 0.0834(8) 0.1397(5) 0.000000 0.131(4) Uani 0.5 2 d DS T P A 2
C10C C 0.2444(7) 0.1599(5) 0.0754(2) 0.083(3) Uani 0.5 1 d . . P A 2
C11C C 0.2569(7) 0.1877(5) 0.1100(4) 0.070(4) Uani 0.5 1 d . . P A 2
H11C H 0.289742 0.216095 0.108937 0.084 Uiso 0.5 1 calc R U P A 2
C12C C 0.225(2) 0.176(2) 0.1456(10) 0.064(7) Uani 0.5 1 d . . P A 2
C13C C 0.1798(7) 0.1335(7) 0.1487(5) 0.044(2) Uani 0.5 1 d . . P A 2
H13C H 0.160749 0.123017 0.173827 0.053 Uiso 0.5 1 calc R U P A 2
C14C C 0.1627(7) 0.1051(6) 0.1126(4) 0.059(3) Uani 0.5 1 d . . P A 2
C15C C 0.1953(6) 0.1180(4) 0.0766(2) 0.073(2) Uani 0.5 1 d . . P A 2
H15C H 0.184586 0.098850 0.053083 0.087 Uiso 0.5 1 calc R U P A 2
C17C C 0.1071(8) 0.0625(5) 0.1122(4) 0.050(3) Uani 0.5 1 d . . P A 2
C20C C 0.2424(7) 0.1718(5) 0.000000 0.075(3) Uani 0.5 2 d DS T P A 2
C21C C 0.2789(5) 0.1729(3) 0.0358(2) 0.098(4) Uani 0.5 1 d D . P A 2
C22C C 0.3560(7) 0.1753(7) 0.0360(2) 0.177(11) Uani 0.5 1 d D . P A 2
H22C H 0.381827 0.176076 0.060610 0.212 Uiso 0.5 1 calc R U P A 2
C23C C 0.3938(8) 0.1765(10) 0.000000 0.205(16) Uani 0.5 2 d DS T P A 2
H23C H 0.445567 0.178168 0.000000 0.246 Uiso 0.5 2 calc R U P A 2
C40C C 0.1280(9) 0.2271(6) 0.0413(3) 0.137(5) Uani 0.5 1 d D . P A 2
H40E H 0.143766 0.205758 0.064382 0.164 Uiso 0.5 1 calc R U P A 2
H40F H 0.161522 0.257094 0.040174 0.164 Uiso 0.5 1 calc R U P A 2
C41C C 0.0471(13) 0.2499(18) 0.0525(14) 0.61(4) Uani 0.5 1 d D U P A 2
H41G H 0.049844 0.269336 0.077594 0.918 Uiso 0.5 1 calc R U P A 2
H41H H 0.030566 0.272953 0.031009 0.918 Uiso 0.5 1 calc R U P A 2
H41I H 0.012667 0.221204 0.055411 0.918 Uiso 0.5 1 calc R U P A 2
C16B C 0.2344(2) 0.20435(15) 0.18481(11) 0.0596(9) Uani 1 1 d . . . . .
O10A O 0.30729(16) 0.18055(12) 0.27736(9) 0.0715(8) Uani 1 1 d . . . . .
O11A O 0.36911(15) 0.24199(11) 0.24503(9) 0.0705(7) Uani 1 1 d . . . . .
O10B O 0.27070(17) 0.24497(11) 0.18280(8) 0.0711(8) Uani 1 1 d . . . . .
O11B O 0.20875(17) 0.18390(11) 0.21565(8) 0.0685(8) Uani 1 1 d . . . . .
O12B O 0.07498(15) 0.05331(9) 0.14525(6) 0.0569(6) Uani 1 1 d . . . . .
O100 O 0.1491(2) 0.15370(12) 0.30109(10) 0.0888(10) Uani 1 1 d . . . . .
O200 O 0.000000 0.000000 0.22158(15) 0.0684(15) Uani 1 4 d S T P . .
Cl1 Cl 0.000000 0.000000 0.000000 0.0478(5) Uani 1 8 d S T P A .
P40A P 0.500000 0.000000 0.24130(9) 0.1130(12) Uani 1 4 d DS T P . .
O40A O 0.500000 0.0521(4) 0.2220(4) 0.130(6) Uani 0.5 2 d DS T P . .
Cu1 Cu 0.21264(3) 0.21349(2) 0.26913(2) 0.04865(19) Uani 1 1 d . . . . .
Cu2 Cu 0.000000 0.000000 0.15194(2) 0.0444(3) Uani 1 4 d S T P A .
Cu3 Cu 0.000000 0.000000 0.07209(2) 0.0385(2) Uani 1 4 d S T P . .
O50 O 0.000000 0.1479(8) 0.000000 0.116(6) Uani 0.5 4 d S T P B 3
C60 C 0.235(2) 0.000000 0.0368(5) 0.34(3) Uani 0.5 2 d DS TU P C 3
H60A H 0.205396 0.000000 0.061282 0.506 Uiso 0.5 2 calc R U P C 3
H60B H 0.265717 -0.030973 0.036301 0.506 Uiso 0.25 1 calc R U P C 3
H60C H 0.265717 0.030973 0.036301 0.506 Uiso 0.25 1 calc R U P C 3
N60 N 0.1841(19) 0.000000 0.000000 0.183(13) Uani 0.5 4 d DS TU P C 3
H60D H 0.155168 0.028626 0.000000 0.220 Uiso 0.25 2 calc R U P C 3
H60E H 0.155168 -0.028626 0.000000 0.220 Uiso 0.25 2 calc R U P C 3
loop_
_atom_site_aniso_label
_atom_site_aniso_U_11
_atom_site_aniso_U_22
_atom_site_aniso_U_33
_atom_site_aniso_U_23
_atom_site_aniso_U_13
_atom_site_aniso_U_12
C10A 0.074(3) 0.055(3) 0.070(4) -0.003(3) 0.000 0.000
C11A 0.066(2) 0.061(2) 0.073(3) -0.0031(19) -0.0011(19) -0.0062(18)
C12A 0.057(2) 0.059(2) 0.062(2) -0.0075(16) -0.0042(16) -0.0033(16)
C13A 0.070(3) 0.057(3) 0.062(3) -0.009(2) 0.000 0.000
C14A 0.072(2) 0.057(2) 0.051(2) -0.0078(16) -0.0081(17) -0.0067(17)
C20A 0.063(4) 0.059(4) 0.070(5) 0.000 0.000 0.000
C21A 0.076(4) 0.055(3) 0.072(3) -0.005(2) 0.000 0.000
C22A 0.238(12) 0.077(5) 0.072(4) -0.004(4) 0.000 0.000
C23A 0.39(3) 0.073(7) 0.074(8) 0.000 0.000 0.000
C40A 0.49(4) 0.44(3) 0.155(17) 0.120(19) 0.15(2) 0.31(3)
C41A 0.37(4) 0.55(5) 0.59(5) 0.000 0.24(4) 0.000
P40B 0.120(3) 0.113(3) 0.0458(17) 0.000 0.000 0.001(2)
O13B 0.091(5) 0.049(4) 0.023(2) 0.001(2) -0.013(3) -0.026(3)
O40B 0.228(15) 0.087(7) 0.121(10) 0.000 0.000 -0.007(8)
C10B 0.102(7) 0.060(5) 0.034(3) -0.005(3) -0.008(4) -0.028(4)
C11B 0.095(10) 0.064(7) 0.039(4) -0.006(4) -0.006(5) -0.030(6)
C12B 0.084(16) 0.074(6) 0.034(2) -0.009(2) -0.009(6) -0.030(11)
C13B 0.045(7) 0.060(3) 0.026(3) 0.000(3) -0.024(4) -0.004(5)
C14B 0.065(7) 0.052(6) 0.027(3) 0.001(3) -0.013(4) -0.017(5)
C15B 0.092(6) 0.064(5) 0.029(3) 0.001(3) -0.008(4) -0.029(4)
C17B 0.063(7) 0.033(5) 0.023(3) -0.007(3) -0.005(4) 0.000(4)
C20B 0.101(7) 0.084(6) 0.041(3) 0.000 0.000 -0.044(5)
C21B 0.102(7) 0.072(4) 0.033(4) 0.000(3) 0.000(3) -0.034(4)
C22B 0.174(11) 0.079(5) 0.041(4) -0.007(4) 0.004(5) -0.061(6)
C23B 0.27(3) 0.051(7) 0.079(8) 0.000 0.000 -0.038(10)
C40B 0.176(13) 0.148(13) 0.080(8) 0.014(8) 0.021(8) 0.000(10)
C41B 0.39(4) 0.46(5) 0.22(3) -0.03(3) 0.14(3) -0.25(4)
P40C 0.120(3) 0.079(2) 0.075(2) 0.000 0.000 -0.021(2)
O13C 0.075(4) 0.060(4) 0.029(2) -0.004(3) -0.006(3) -0.012(3)
O40C 0.143(10) 0.136(10) 0.113(9) 0.000 0.000 -0.039(8)
C10C 0.104(7) 0.109(8) 0.035(4) -0.008(4) -0.004(4) -0.045(6)
C11C 0.078(8) 0.090(10) 0.043(4) 0.000(5) -0.009(5) -0.038(6)
C12C 0.084(16) 0.074(6) 0.034(2) -0.009(2) -0.009(6) -0.030(11)
C13C 0.045(7) 0.060(3) 0.026(3) 0.000(3) -0.024(4) -0.004(5)
C14C 0.070(8) 0.074(8) 0.033(4) -0.007(4) -0.012(5) -0.011(5)
C15C 0.088(6) 0.097(7) 0.034(4) -0.006(4) -0.009(4) -0.028(5)
C17C 0.069(7) 0.047(6) 0.034(3) -0.012(4) -0.006(4) 0.010(4)
C20C 0.101(7) 0.084(6) 0.041(3) 0.000 0.000 -0.044(5)
C21C 0.115(7) 0.139(10) 0.040(4) -0.011(5) 0.001(4) -0.071(7)
C22C 0.125(8) 0.38(3) 0.030(5) -0.015(9) -0.008(5) -0.075(14)
C23C 0.085(11) 0.46(5) 0.068(9) 0.000 0.000 -0.09(2)
C40C 0.200(15) 0.132(11) 0.079(8) -0.055(8) -0.002(9) -0.033(10)
C41C 0.17(3) 0.84(8) 0.83(8) 0.00(7) -0.02(3) 0.09(4)
C16B 0.075(2) 0.060(2) 0.0443(19) -0.0095(16) -0.0133(17) -0.0087(18)
O10A 0.0626(16) 0.0718(18) 0.080(2) 0.0140(14) -0.0074(14) -0.0064(14)
O11A 0.0572(16) 0.0681(17) 0.086(2) 0.0077(15) -0.0051(14) -0.0056(13)
O10B 0.096(2) 0.0707(17) 0.0467(15) -0.0094(12) -0.0055(13) -0.0340(15)
O11B 0.104(2) 0.0636(16) 0.0379(13) -0.0102(11) -0.0057(13) -0.0282(15)
O12B 0.0918(18) 0.0541(13) 0.0248(11) -0.0048(9) -0.0060(10) -0.0164(12)
O100 0.115(3) 0.0739(19) 0.078(2) 0.0035(16) 0.0021(19) -0.0257(18)
O200 0.108(5) 0.064(3) 0.034(3) 0.000 0.000 0.000
Cl1 0.0865(15) 0.0464(11) 0.0104(8) 0.000 0.000 0.000
P40A 0.205(4) 0.0662(15) 0.0676(17) 0.000 0.000 0.000
O40A 0.257(19) 0.065(5) 0.068(6) 0.008(5) 0.000 0.000
Cu1 0.0592(3) 0.0494(3) 0.0373(3) -0.00638(19) -0.0075(2) -0.0131(2)
Cu2 0.0763(6) 0.0386(5) 0.0181(4) 0.000 0.000 0.000
Cu3 0.0680(6) 0.0320(4) 0.0154(4) 0.000 0.000 0.000
O50 0.055(8) 0.145(15) 0.149(15) 0.000 0.000 0.000
C60 0.38(5) 0.42(6) 0.22(4) 0.000 -0.03(3) 0.000
N60 0.30(3) 0.091(15) 0.16(2) 0.000 0.000 0.000
loop_
_atom_type_symbol
_atom_type_description
_atom_type_scat_dispersion_real
_atom_type_scat_dispersion_imag
_atom_type_scat_source
C C 0.0181 0.0091 'International Tables Vol C Tables 4.2.6.8 and 6.1.1.4'
H H 0.0000 0.0000 'International Tables Vol C Tables 4.2.6.8 and 6.1.1.4'
O O 0.0492 0.0322 'International Tables Vol C Tables 4.2.6.8 and 6.1.1.4'
P P 0.2955 0.4335 'International Tables Vol C Tables 4.2.6.8 and 6.1.1.4'
Cu Cu -1.9646 0.5888 'International Tables Vol C Tables 4.2.6.8 and 6.1.1.4'
Cl Cl 0.3639 0.7018 'International Tables Vol C Tables 4.2.6.8 and 6.1.1.4'
N N 0.0311 0.0180 'International Tables Vol C Tables 4.2.6.8 and 6.1.1.4'
loop_
_geom_angle_atom_site_label_1
_geom_angle_atom_site_label_2
_geom_angle_atom_site_label_3
_geom_angle
_geom_angle_site_symmetry_1
_geom_angle_site_symmetry_3
C11A C10A C11A 118.9(5) . 12_655
C11A C10A C21A 120.6(3) . .
C11A C10A C21A 120.6(3) 12_655 .
C10A C11A C12A 121.2(4) . .
C10A C11A H11A 119.4 . .
C12A C11A H11A 119.4 . .
C11A C12A C13A 119.1(4) . .
C11A C12A C14A 121.0(4) . .
C13A C12A C14A 119.9(4) . .
C12A C13A C12A 120.4(6) 12_655 .
C12A C13A H13A 119.8 12_655 .
C12A C13A H13A 119.8 . .
O10A C14A O11A 125.4(4) . .
O10A C14A C12A 118.3(4) . .
O11A C14A C12A 116.4(4) . .
C21A C20A C21A 119.0(7) 2_655 .
C21A C20A P40A 120.5(4) 2_655 .
C21A C20A P40A 120.5(4) . .
C22A C21A C20A 119.8(6) . .
C22A C21A C10A 114.5(5) . .
C20A C21A C10A 125.8(5) . .
C21A C22A C23A 121.5(6) . .
C21A C22A H22A 119.3 . .
C23A C22A H22A 119.3 . .
C22A C23A C22A 118.5(9) 11 .
C22A C23A H23A 120.7 11 .
C22A C23A H23A 120.7 . .
C41A C40A P40A 107.8(15) . .
C41A C40A H40A 110.1 . .
P40A C40A H40A 110.1 . .
C41A C40A H40B 110.1 . .
P40A C40A H40B 110.1 . .
H40A C40A H40B 108.5 . .
C41A C40A H41C 39.4(5) . 11
P40A C40A H41C 146.8(18) . 11
H40A C40A H41C 84.8 . 11
H40B C40A H41C 91.6 . 11
C40A C41A H41A 109.5 . .
C40A C41A H41B 109.5 . .
H41A C41A H41B 109.5 . .
C40A C41A H41C 109.5 . .
H41A C41A H41C 109.5 . .
H41B C41A H41C 109.5 . .
C40A C41A H41A 150.9(17) . 11
H41A C41A H41A 56.2 . 11
H41B C41A H41A 99.5 . 11
H41C C41A H41A 61.2 . 11
C40A C41A H41B 97.4(18) . 11
H41A C41A H41B 99.5 . 11
H41B C41A H41B 20.6 . 11
H41C C41A H41B 130.0 . 11
H41A C41A H41B 109.5 11 11
C40A C41A H41C 48.6(11) . 11
H41A C41A H41C 61.2 . 11
H41B C41A H41C 130.0 . 11
H41C C41A H41C 120.1 . 11
H41A C41A H41C 109.5 11 11
H41B C41A H41C 109.5 11 11
O40B P40B C40B 108.5(6) . .
O40B P40B C40B 108.5(6) . 10
C40B P40B C40B 106.3(10) . 10
O40B P40B C20B 115.0(7) . .
C40B P40B C20B 109.0(6) . .
C40B P40B C20B 109.0(6) 10 .
C17B O13B Cu3 121.9(7) . .
C11B C10B C15B 119.3(9) . .
C11B C10B C21B 121.2(9) . .
C15B C10B C21B 119.2(7) . .
C10B C11B C12B 117.9(17) . .
C10B C11B H11B 121.1 . .
C12B C11B H11B 121.1 . .
C13B C12B C11B 119(3) . .
C13B C12B C16B 126(2) . .
C11B C12B C16B 115(2) . .
C14B C13B C12B 123(2) . .
C14B C13B H13B 118.7 . .
C12B C13B H13B 118.7 . .
C13B C14B C15B 119.5(13) . .
C13B C14B C17B 117.6(14) . .
C15B C14B C17B 121.8(10) . .
C14B C15B C10B 121.0(8) . .
C14B C15B H15B 119.5 . .
C10B C15B H15B 119.5 . .
O12B C17B O13B 128.1(11) . .
O12B C17B C14B 117.5(11) . .
O13B C17B C14B 114.2(10) . .
C21B C20B C21B 119.7(10) . 10
C21B C20B P40B 118.9(5) . .
C21B C20B P40B 118.9(5) 10 .
C20B C21B C22B 119.9(7) . .
C20B C21B C10B 122.5(7) . .
C22B C21B C10B 115.4(7) . .
C23B C22B C21B 119.5(6) . .
C23B C22B H22B 120.3 . .
C21B C22B H22B 120.3 . .
C22B C23B C22B 121.6(10) 10 .
C22B C23B H23B 119.2 10 .
C22B C23B H23B 119.2 . .
C41B C40B P40B 114.8(15) . .
C41B C40B H40C 108.6 . .
P40B C40B H40C 108.6 . .
C41B C40B H40D 108.6 . .
P40B C40B H40D 108.6 . .
H40C C40B H40D 107.5 . .
C40B C41B H41D 109.5 . .
C40B C41B H41E 109.5 . .
H41D C41B H41E 109.5 . .
C40B C41B H41F 109.5 . .
H41D C41B H41F 109.5 . .
H41E C41B H41F 109.5 . .
C40C P40C O40C 108.1(6) . .
C40C P40C O40C 108.1(6) 10 .
C40C P40C C20C 108.2(6) . .
C40C P40C C20C 108.2(6) 10 .
O40C P40C C20C 113.7(7) . .
C17C O13C Cu3 123.9(9) . .
C11C C10C C15C 118.7(10) . .
C11C C10C C21C 123.4(10) . .
C15C C10C C21C 117.8(7) . .
C12C C11C C10C 123.3(18) . .
C12C C11C H11C 118.3 . .
C10C C11C H11C 118.3 . .
C11C C12C C13C 120(3) . .
C11C C12C C16B 127(2) . .
C13C C12C C16B 113(2) . .
C12C C13C C14C 118(2) . .
C12C C13C H13C 120.9 . .
C14C C13C H13C 120.9 . .
C15C C14C C13C 120.7(14) . .
C15C C14C C17C 117.5(12) . .
C13C C14C C17C 121.8(14) . .
C14C C15C C10C 119.1(9) . .
C14C C15C H15C 120.4 . .
C10C C15C H15C 120.4 . .
O13C C17C O12B 123.8(14) . .
O13C C17C C14C 119.5(13) . .
O12B C17C C14C 116.2(12) . .
C21C C20C P40C 117.7(5) . .
C21C C20C P40C 117.7(5) 10 .
C20C C21C C22C 119.6(8) . .
C20C C21C C10C 123.9(8) . .
C22C C21C C10C 115.1(8) . .
C23C C22C C21C 119.6(7) . .
C23C C22C H22C 120.2 . .
C21C C22C H22C 120.2 . .
C22C C23C C22C 120.1(12) 10 .
C22C C23C H23C 119.9 10 .
C22C C23C H23C 119.9 . .
C41C C40C P40C 122.5(17) . .
C41C C40C H40E 106.7 . .
P40C C40C H40E 106.7 . .
C41C C40C H40F 106.7 . .
P40C C40C H40F 106.7 . .
H40E C40C H40F 106.6 . .
C40C C41C H41G 109.5 . .
C40C C41C H41H 109.5 . .
H41G C41C H41H 109.5 . .
C40C C41C H41I 109.5 . .
H41G C41C H41I 109.5 . .
H41H C41C H41I 109.5 . .
O10B C16B O11B 127.0(3) . .
O10B C16B C12B 119.3(15) . .
O11B C16B C12B 113.1(13) . .
O10B C16B C12C 114.8(14) . .
O11B C16B C12C 118.1(14) . .
C14A O10A Cu1 121.7(3) . .
C14A O11A Cu1 125.6(3) . 13
C16B O10B Cu1 120.1(3) . 13
C16B O11B Cu1 125.3(2) . .
C17B O12B Cu2 121.1(6) . .
C17C O12B Cu2 123.6(7) . .
Cu3 Cl1 Cu3 180.0 9 .
O40A P40A O40A 128.6(10) 2_655 .
O40A P40A C40A 55.6(9) 2_655 12_655
O40A P40A C40A 108.9(7) . 12_655
O40A P40A C40A 108.9(7) 2_655 11
O40A P40A C40A 55.6(9) . 11
C40A P40A C40A 147.6(13) 12_655 11
O40A P40A C40A 55.6(9) 2_655 .
O40A P40A C40A 108.9(7) . .
C40A P40A C40A 111.0(17) 12_655 .
C40A P40A C40A 59.1(16) 11 .
O40A P40A C40A 108.9(7) 2_655 2_655
O40A P40A C40A 55.6(9) . 2_655
C40A P40A C40A 59.1(16) 12_655 2_655
C40A P40A C40A 111.0(17) 11 2_655
C40A P40A C40A 147.6(13) . 2_655
O40A P40A C20A 115.7(5) 2_655 .
O40A P40A C20A 115.7(5) . .
C40A P40A C20A 106.2(7) 12_655 .
C40A P40A C20A 106.2(7) 11 .
C40A P40A C20A 106.2(7) . .
C40A P40A C20A 106.2(7) 2_655 .
P40A O40A C40A 72.2(9) . 11
P40A O40A C40A 72.2(9) . 2_655
C40A O40A C40A 144.0(19) 11 2_655
O11B Cu1 O11A 88.88(13) . 13
O11B Cu1 O10A 89.48(13) . .
O11A Cu1 O10A 167.34(12) 13 .
O11B Cu1 O10B 167.44(11) . 13
O11A Cu1 O10B 89.77(14) 13 13
O10A Cu1 O10B 89.11(14) . 13
O11B Cu1 O100 98.67(12) . .
O11A Cu1 O100 97.18(13) 13 .
O10A Cu1 O100 95.47(13) . .
O10B Cu1 O100 93.90(12) 13 .
O11B Cu1 Cu1 81.69(8) . 13
O11A Cu1 Cu1 81.98(9) 13 13
O10A Cu1 Cu1 85.36(9) . 13
O10B Cu1 Cu1 85.75(8) 13 13
O100 Cu1 Cu1 179.09(11) . 13
O12B Cu2 O12B 166.88(13) . 2
O12B Cu2 O12B 89.14(16) . 12
O12B Cu2 O12B 89.36(16) 2 12
O12B Cu2 O12B 89.36(16) . 11
O12B Cu2 O12B 89.15(16) 2 11
O12B Cu2 O12B 166.88(13) 12 11
O12B Cu2 O200 96.56(6) . .
O12B Cu2 O200 96.56(6) 2 .
O12B Cu2 O200 96.56(6) 12 .
O12B Cu2 O200 96.56(6) 11 .
O12B Cu2 Cu3 83.44(6) . .
O12B Cu2 Cu3 83.44(6) 2 .
O12B Cu2 Cu3 83.44(6) 12 .
O12B Cu2 Cu3 83.44(6) 11 .
O200 Cu2 Cu3 180.0 . .
O13B Cu3 O13B 166.3(4) . 2
O13B Cu3 O13B 68.0(4) . 12
O13B Cu3 O13B 110.2(4) 2 12
O13B Cu3 O13B 110.2(4) . 11
O13B Cu3 O13B 68.0(4) 2 11
O13B Cu3 O13B 166.3(4) 12 11
O13B Cu3 O13C 153.78(19) . 2
O13B Cu3 O13C 21.9(2) 2 2
O13B Cu3 O13C 88.4(3) 12 2
O13B Cu3 O13C 89.8(3) 11 2
O13B Cu3 O13C 88.4(3) . 11
O13B Cu3 O13C 89.8(3) 2 11
O13B Cu3 O13C 153.78(19) 12 11
O13B Cu3 O13C 21.9(2) 11 11
O13B Cu3 O13C 89.8(3) . 12
O13B Cu3 O13C 88.4(3) 2 12
O13B Cu3 O13C 21.9(2) 12 12
O13B Cu3 O13C 153.78(19) 11 12
O13C Cu3 O13C 165.2(4) 2 .
O13C Cu3 O13C 66.6(4) 11 .
O13C Cu3 O13C 111.3(4) 12 .
O13B Cu3 Cl1 96.85(18) . .
O13B Cu3 Cl1 96.85(18) 2 .
O13B Cu3 Cl1 96.85(18) 12 .
O13B Cu3 Cl1 96.85(18) 11 .
O13C Cu3 Cl1 97.4(2) 2 .
O13C Cu3 Cl1 97.4(2) 11 .
O13C Cu3 Cl1 97.4(2) 12 .
O13C Cu3 Cl1 97.4(2) . .
O13B Cu3 Cu2 83.15(18) . .
O13B Cu3 Cu2 83.15(18) 2 .
O13B Cu3 Cu2 83.15(18) 12 .
O13B Cu3 Cu2 83.15(18) 11 .
O13C Cu3 Cu2 82.6(2) 2 .
O13C Cu3 Cu2 82.6(2) 11 .
O13C Cu3 Cu2 82.6(2) 12 .
O13C Cu3 Cu2 82.6(2) . .
Cl1 Cu3 Cu2 180.0 . .
N60 C60 H60A 109.5 . .
N60 C60 H60B 109.5 . .
H60A C60 H60B 109.5 . .
N60 C60 H60C 109.5 . .
H60A C60 H60C 109.5 . .
H60B C60 H60C 109.5 . .
C60 N60 H60D 110.6 . .
C60 N60 H60D 110.6 4 .
C60 N60 H60E 110.6 . .
C60 N60 H60E 110.6 4 .
H60D N60 H60E 108.7 . .
loop_
_geom_bond_atom_site_label_1
_geom_bond_atom_site_label_2
_geom_bond_distance
_geom_bond_site_symmetry_2
C10A C11A 1.385(5) .
C10A C11A 1.385(5) 12_655
C10A C21A 1.508(8) .
C11A C12A 1.387(6) .
C11A H11A 0.9500 .
C12A C13A 1.393(5) .
C12A C14A 1.473(6) .
C13A H13A 0.9500 .
C14A O10A 1.245(5) .
C14A O11A 1.264(5) .
C20A C21A 1.395(6) 2_655
C20A C21A 1.395(6) .
C20A P40A 1.833(8) .
C21A C22A 1.348(9) .
C22A C23A 1.378(9) .
C22A H22A 0.9500 .
C23A H23A 0.9500 .
C40A C41A 1.544(16) .
C40A P40A 1.798(14) .
C40A H40A 0.9900 .
C40A H40B 0.9900 .
C40A H41C 1.16(2) 11
C41A H41A 0.9800 .
C41A H41B 0.9800 .
C41A H41C 0.9800 .
C41A H41A 0.9800 11
C41A H41B 0.9801 11
C41A H41C 0.9800 11
P40B O40B 1.584(12) .
P40B C40B 1.744(12) .
P40B C40B 1.744(12) 10
P40B C20B 1.907(12) .
O13B C17B 1.262(13) .
O13B Cu3 1.943(6) .
C10B C11B 1.388(14) .
C10B C15B 1.396(11) .
C10B C21B 1.513(11) .
C11B C12B 1.42(4) .
C11B H11B 0.9500 .
C12B C13B 1.40(3) .
C12B C16B 1.50(3) .
C13B C14B 1.294(19) .
C13B H13B 0.9500 .
C14B C15B 1.382(15) .
C14B C17B 1.489(17) .
C15B H15B 0.9500 .
C17B O12B 1.234(12) .
C20B C21B 1.384(9) .
C20B C21B 1.384(9) 10
C21B C22B 1.432(11) .
C22B C23B 1.364(9) .
C22B H22B 0.9500 .
C23B H23B 0.9500 .
C40B C41B 1.537(17) .
C40B H40C 0.9900 .
C40B H40D 0.9900 .
C41B H41D 0.9800 .
C41B H41E 0.9800 .
C41B H41F 0.9800 .
P40C C40C 1.683(9) .
P40C C40C 1.683(9) 10
P40C O40C 1.739(11) .
P40C C20C 1.879(13) .
O13C C17C 1.249(15) .
O13C Cu3 1.984(7) .
C10C C11C 1.383(16) .
C10C C15C 1.409(13) .
C10C C21C 1.506(12) .
C11C C12C 1.36(3) .
C11C H11C 0.9500 .
C12C C13C 1.38(3) .
C12C C16B 1.51(3) .
C13C C14C 1.45(2) .
C13C H13C 0.9500 .
C14C C15C 1.383(17) .
C14C C17C 1.50(2) .
C15C H15C 0.9500 .
C17C O12B 1.276(15) .
C20C C21C 1.371(9) .
C20C C21C 1.371(9) 10
C21C C22C 1.415(14) .
C22C C23C 1.389(12) .
C22C H22C 0.9500 .
C23C H23C 0.9500 .
C40C C41C 1.639(16) .
C40C H40E 0.9900 .
C40C H40F 0.9900 .
C41C H41G 0.9800 .
C41C H41H 0.9800 .
C41C H41I 0.9800 .
C16B O10B 1.245(5) .
C16B O11B 1.251(5) .
O10A Cu1 1.952(3) .
O11A Cu1 1.948(3) 13
O10B Cu1 1.957(3) 13
O11B Cu1 1.946(2) .
O12B Cu2 1.959(2) .
O100 Cu1 2.210(3) .
O200 Cu2 2.329(5) .
Cl1 Cu3 2.4110(7) 9
Cl1 Cu3 2.4111(7) .
P40A O40A 1.492(10) 2_655
P40A O40A 1.492(10) .
Cu1 Cu1 2.6592(10) 13
Cu2 Cu3 2.6707(11) .
C60 N60 1.544(18) .
C60 H60A 0.9800 .
C60 H60B 0.9800 .
C60 H60C 0.9800 .
N60 H60D 0.9100 .
N60 H60E 0.9100 .
