#------------------------------------------------------------------------------
#$Date: 2019-11-19 04:58:33 +0200 (Tue, 19 Nov 2019) $
#$Revision: 231022 $
#$URL: file:///home/coder/svn-repositories/cod/cif/7/70/19/7701971.cif $
#------------------------------------------------------------------------------
#
# This file is available in the Crystallography Open Database (COD),
# http://www.crystallography.net/
#
# All data on this site have been placed in the public domain by the
# contributors.
#
data_7701971
loop_
_publ_author_name
'Wang, Xue-Zhi'
'Sun, Meng-Ying'
'Zheng, Ji'
'Luo, Dong'
'Li, Qi'
'Zhou, Xiao-Ping'
'Li, Dan'
_publ_section_title
;
 Coordination-Driven Self-Assembly of M10L8 Metal-Organic Bi-capped Square
 Antiprisms with Adaptable Cavity
;
_journal_name_full               'Dalton Transactions'
_journal_paper_doi               10.1039/C9DT04368C
_journal_year                    2019
_chemical_formula_moiety         '0.5(C44 H50 Cu4 N24), Cl O4'
_chemical_formula_sum            'C22 H25 Cl Cu2 N12 O4'
_chemical_formula_weight         684.07
_space_group_crystal_system      orthorhombic
_space_group_IT_number           60
_space_group_name_Hall           '-P 2n 2ab'
_space_group_name_H-M_alt        'P b c n'
_atom_sites_solution_hydrogens   geom
_atom_sites_solution_primary     dual
_audit_block_doi                 10.5517/ccdc.csd.cc20ncgj
_audit_creation_date             2019-08-21
_audit_creation_method
;
Olex2 1.2
(compiled 2018.05.29 svn.r3508 for OlexSys, GUI svn.r5506)
;
_audit_update_record
;
2019-10-06 deposited with the CCDC.	2019-11-18 downloaded from the CCDC.
;
_cell_angle_alpha                90
_cell_angle_beta                 90
_cell_angle_gamma                90
_cell_formula_units_Z            4
_cell_length_a                   9.4211(5)
_cell_length_b                   14.8334(5)
_cell_length_c                   21.6671(10)
_cell_measurement_reflns_used    4309
_cell_measurement_temperature    100
_cell_measurement_theta_max      70.4800
_cell_measurement_theta_min      5.5440
_cell_volume                     3027.9(2)
_computing_cell_refinement       'CrysAlisPro 1.171.39.28b (Rigaku OD, 2015)'
_computing_data_collection       'CrysAlisPro 1.171.39.28b (Rigaku OD, 2015)'
_computing_data_reduction        'CrysAlisPro 1.171.39.28b (Rigaku OD, 2015)'
_computing_molecular_graphics    'Olex2 (Dolomanov et al., 2009)'
_computing_publication_material  'Olex2 (Dolomanov et al., 2009)'
_computing_structure_refinement  'ShelXL (Sheldrick, 2015)'
_computing_structure_solution    'ShelXT (Sheldrick, 2015)'
_diffrn_ambient_temperature      100
_diffrn_detector                 'CCD plate'
_diffrn_measured_fraction_theta_full 0.999
_diffrn_measured_fraction_theta_max 0.981
_diffrn_measurement_details
;
List of Runs (angles in degrees, time in seconds):

  # Type    Start    End  Width  t~exp~   \w     \q     \k     \f   Frames
#--------------------------------------------------------------------------
  1  \w    -16.00  32.00   0.50    1.50    --    0.00  38.00   0.00   96
  2  \w     54.00  89.00   0.50    1.50    --    0.00  38.00  90.00   70
  3  \w    -17.00  50.00   0.50    1.50    --    0.00  38.00  90.00  134
  4  \w     55.00  80.00   0.50    1.50    --    0.00  38.00   0.00   50
  5  \w     29.00 120.00   0.50    6.00    --   89.30 -82.00 -90.00  182
  6  \w     78.00 179.00   0.50    6.00    --   89.30  30.00 120.00  202
  7  \w    113.00 169.00   0.50    6.00    --   89.30  61.00  30.00  112
  8  \w     66.00 105.00   0.50    6.00    --   89.30  61.00  30.00   78
  9  \w     50.00 102.00   0.50    6.00    --   89.30 -82.00-150.00  104
 10  \w     66.00 143.00   0.50    6.00    --   89.30  61.00  60.00  154
 11  \w      5.00 113.00   0.50    6.00    --   89.30 -61.00 -90.00  216
;
_diffrn_measurement_device       'four-circle diffractometer'
_diffrn_measurement_device_type  'XtaLAB AFC12 (RINC): Kappa single'
_diffrn_measurement_method       '\w scans'
_diffrn_orient_matrix_type
'CrysAlisPro convention (1999,Acta A55,543-557)'
_diffrn_orient_matrix_UB_11      -0.1043711000
_diffrn_orient_matrix_UB_12      0.0413773000
_diffrn_orient_matrix_UB_13      0.0467894000
_diffrn_orient_matrix_UB_21      0.1225223000
_diffrn_orient_matrix_UB_22      0.0142426000
_diffrn_orient_matrix_UB_23      0.0460866000
_diffrn_orient_matrix_UB_31      0.0273893000
_diffrn_orient_matrix_UB_32      0.0942591000
_diffrn_orient_matrix_UB_33      -0.0274211000
_diffrn_radiation_monochromator  graphite
_diffrn_radiation_probe          x-ray
_diffrn_radiation_type           CuK\a
_diffrn_radiation_wavelength     1.54184
_diffrn_reflns_av_R_equivalents  0.0772
_diffrn_reflns_av_unetI/netI     0.0613
_diffrn_reflns_Laue_measured_fraction_full 0.999
_diffrn_reflns_Laue_measured_fraction_max 0.981
_diffrn_reflns_limit_h_max       7
_diffrn_reflns_limit_h_min       -11
_diffrn_reflns_limit_k_max       18
_diffrn_reflns_limit_k_min       -17
_diffrn_reflns_limit_l_max       14
_diffrn_reflns_limit_l_min       -25
_diffrn_reflns_number            14261
_diffrn_reflns_point_group_measured_fraction_full 0.999
_diffrn_reflns_point_group_measured_fraction_max 0.981
_diffrn_reflns_theta_full        67.684
_diffrn_reflns_theta_max         71.109
_diffrn_reflns_theta_min         4.081
_diffrn_source                   'fine-focus sealed X-ray tube'
_diffrn_source_type              'Enhance (Cu) X-ray Source'
_exptl_absorpt_coefficient_mu    2.968
_exptl_absorpt_correction_T_max  1.00000
_exptl_absorpt_correction_T_min  0.49278
_exptl_absorpt_correction_type   multi-scan
_exptl_absorpt_process_details
;
CrysAlisPro 1.171.39.28b (Rigaku Oxford Diffraction, 2015)
Empirical absorption correction using spherical harmonics,
 implemented in SCALE3 ABSPACK scaling algorithm.
;
_exptl_crystal_colour            'clear light green'
_exptl_crystal_colour_lustre     clear
_exptl_crystal_colour_modifier   light
_exptl_crystal_colour_primary    green
_exptl_crystal_density_diffrn    1.501
_exptl_crystal_description       plank
_exptl_crystal_F_000             1392
_exptl_crystal_size_max          0.1
_exptl_crystal_size_mid          0.04
_exptl_crystal_size_min          0.02
_refine_diff_density_max         0.675
_refine_diff_density_min         -0.970
_refine_diff_density_rms         0.116
_refine_ls_extinction_method     none
_refine_ls_goodness_of_fit_ref   1.138
_refine_ls_hydrogen_treatment    constr
_refine_ls_matrix_type           full
_refine_ls_number_parameters     186
_refine_ls_number_reflns         2886
_refine_ls_number_restraints     0
_refine_ls_restrained_S_all      1.138
_refine_ls_R_factor_all          0.0787
_refine_ls_R_factor_gt           0.0660
_refine_ls_shift/su_max          0.000
_refine_ls_shift/su_mean         0.000
_refine_ls_structure_factor_coef Fsqd
_refine_ls_weighting_details
'w=1/[\s^2^(Fo^2^)+(0.0984P)^2^+4.8361P] where P=(Fo^2^+2Fc^2^)/3'
_refine_ls_weighting_scheme      calc
_refine_ls_wR_factor_gt          0.1807
_refine_ls_wR_factor_ref         0.1918
_reflns_Friedel_coverage         0.000
_reflns_number_gt                2302
_reflns_number_total             2886
_reflns_threshold_expression     'I > 2\s(I)'
_cod_data_source_file            c9dt04368c2.cif
_cod_data_source_block           CP5
_cod_database_code               7701971
_shelx_shelxl_version_number     2018/3
_chemical_oxdiff_formula         'C N O H Cu Cl'
_shelx_space_group_comment
;
The symmetry employed for this shelxl refinement is uniquely defined
by the following loop, which should always be used as a source of
symmetry information in preference to the above space-group names.
They are only intended as comments.
;
_shelx_estimated_absorpt_t_max   0.943
_shelx_estimated_absorpt_t_min   0.756
_reflns_odcompleteness_completeness 99.90
_reflns_odcompleteness_iscentric 1
_reflns_odcompleteness_theta     64.99
_olex2_refinement_description
;
1. Fixed Uiso
 At 1.2 times of:
  All C(H) groups, All C(H,H) groups, All N(H) groups
2. Others
 Fixed Sof: H1(0.5)
3.a Secondary CH2 refined with riding coordinates:
 C5(H5A,H5B), C7(H7A,H7B), C6(H6A,H6B)
3.b Aromatic/amide H refined with riding coordinates:
 N1(H1), C11(H11), C10(H10), C1(H1A), C4(H4), C8(H8), C2(H2)
;
_shelx_res_file
;
TITL 171108i_a.res in Pbcn
    171108i_sq.res
    created by SHELXL-2018/3 at 18:45:15 on 21-Aug-2019
REM Old TITL 171108i in Pbcn
REM SHELXT solution in Pbcn
REM R1 0.168, Rweak 0.005, Alpha 0.023, Orientation as input
REM Formula found by SHELXT: C28 N12 Cl Cu2
CELL 1.54184 9.4211 14.8334 21.6671 90 90 90
ZERR 4 0.0005 0.0005 0.001 0 0 0
LATT 1
SYMM 0.5-X,0.5-Y,0.5+Z
SYMM -X,+Y,0.5-Z
SYMM 0.5+X,0.5-Y,-Z
SFAC C H Cl Cu N O
UNIT 88 100 4 8 48 16

L.S. 50 0 22
PLAN  1
SIZE 0.02 0.04 0.1
TEMP -173.15
BOND $H
list 4
ABIN
fmap 2 53
acta
REM <olex2.extras>
REM <HklSrc "%.\\171108i_sq.hkl">
REM </olex2.extras>

WGHT    0.098400    4.836101
FVAR       0.29111
CU1   4    0.317638    0.607647    0.511010    11.00000    0.03663    0.01649 =
         0.02882    0.00048   -0.00298   -0.00195
CL1   3    0.500000    0.820453    0.750000    10.50000    0.05761    0.02563 =
         0.08931    0.00000   -0.01358    0.00000
N5    5    0.473188    0.696834    0.492563    11.00000    0.03516    0.01773 =
         0.02818    0.00195   -0.00234    0.00103
N6    5    0.642896    0.800323    0.474935    11.00000    0.03588    0.01908 =
         0.02643    0.00232    0.00273   -0.00337
N3    5    0.231066    0.480871    0.516010    11.00000    0.03938    0.01717 =
         0.03316   -0.00387   -0.00246   -0.00100
N2    5    0.364620    0.580201    0.598629    11.00000    0.03741    0.01646 =
         0.03278    0.00228   -0.00016    0.00075
N4    5    0.305157    0.605058    0.418350    11.00000    0.03930    0.02611 =
         0.03250   -0.00133   -0.00238   -0.00006
N1    5    0.439773    0.551624    0.694335    11.00000    0.05266    0.02658 =
         0.02509    0.00218   -0.00139    0.00154
AFIX  43
H1    2    0.479523    0.559401    0.730701    10.50000   -1.20000
AFIX   0
C11   1    0.571318    0.751853    0.517469    11.00000    0.03886    0.01763 =
         0.02933    0.00115   -0.00188    0.00068
AFIX  43
H11   2    0.588432    0.756122    0.560579    11.00000   -1.20000
AFIX   0
C3    1    0.324747    0.493231    0.614542    11.00000    0.04232    0.01363 =
         0.03438    0.00281   -0.00322    0.00087
C9    1    0.483297    0.712536    0.429779    11.00000    0.03966    0.02233 =
         0.02815   -0.00258    0.00264    0.00109
C10   1    0.587334    0.775289    0.419751    11.00000    0.03907    0.02287 =
         0.02692    0.00213    0.00322   -0.00089
AFIX  43
H10   2    0.615933    0.797639    0.380589    11.00000   -1.20000
AFIX   0
C1    1    0.432704    0.612579    0.647266    11.00000    0.03868    0.02528 =
         0.02990    0.00263   -0.00515   -0.00070
AFIX  43
H1A   2    0.472101    0.671467    0.649178    11.00000   -1.20000
AFIX   0
C4    1    0.252863    0.442675    0.568169    11.00000    0.04181    0.01922 =
         0.04206    0.00004   -0.00237    0.00134
AFIX  43
H4    2    0.222148    0.382671    0.575687    11.00000   -1.20000
AFIX   0
C8    1    0.391416    0.659272    0.390663    11.00000    0.04355    0.02677 =
         0.02775   -0.00415   -0.00147   -0.00196
AFIX  43
H8    2    0.394374    0.663926    0.346953    11.00000   -1.20000
AFIX   0
C5    1    0.156273    0.432779    0.466964    11.00000    0.04220    0.01980 =
         0.03919   -0.00740   -0.00471   -0.00391
AFIX  23
H5A   2    0.056187    0.453058    0.465910    11.00000   -1.20000
H5B   2    0.156771    0.367434    0.476260    11.00000   -1.20000
AFIX   0
C2    1    0.372123    0.475707    0.673271    11.00000    0.05182    0.02099 =
         0.03330    0.00273   -0.00036    0.00118
AFIX  43
H2    2    0.360201    0.420888    0.695341    11.00000   -1.20000
AFIX   0
C7    1    0.211550    0.546886    0.382076    11.00000    0.05374    0.03163 =
         0.03035   -0.00566   -0.01135   -0.00860
AFIX  23
H7A   2    0.238838    0.549885    0.338000    11.00000   -1.20000
H7B   2    0.112387    0.568259    0.385883    11.00000   -1.20000
AFIX   0
C6    1    0.221902    0.447908    0.405045    11.00000    0.04591    0.02839 =
         0.04703   -0.00685   -0.00589   -0.00294
AFIX  23
H6A   2    0.174728    0.408110    0.374638    11.00000   -1.20000
H6B   2    0.323198    0.430366    0.406938    11.00000   -1.20000
AFIX   0

O1    6    0.580130    0.870790    0.789236    11.00000    0.08907    0.19708 =
         0.17337   -0.12171   -0.00535   -0.04588
O2    6    0.594799    0.767564    0.717122    11.00000    0.06554    0.14572 =
         0.25740   -0.14483   -0.01776    0.01653
HKLF 4




REM  171108i_a.res in Pbcn
REM wR2 = 0.1918, GooF = S = 1.138, Restrained GooF = 1.138 for all data
REM R1 = 0.0660 for 2302 Fo > 4sig(Fo) and 0.0787 for all 2886 data
REM 186 parameters refined using 0 restraints

END

WGHT      0.0985      4.8377

REM Highest difference peak  0.675,  deepest hole -0.970,  1-sigma level  0.116
Q1    1   0.5998  0.7765  0.6814  11.00000  0.05    0.68
;
_shelx_res_checksum              7579
_shelx_fab_file
;
    2    0    0     57.80      0.00
    4    0    0      9.26      0.00
    6    0    0     11.53      0.00
    8    0    0      5.72      0.00
   10    0    0      1.75      0.00
    1    1    0    -44.39      0.00
    3    1    0      8.86      0.00
    5    1    0      3.09      0.00
    7    1    0     -2.26      0.00
    9    1    0     -2.82      0.00
   11    1    0      1.44      0.00
    0    2    0    -42.68      0.00
    2    2    0    -25.99      0.00
    4    2    0    -15.67      0.00
    6    2    0     -8.31      0.00
    8    2    0      1.77      0.00
   10    2    0     -0.43      0.00
    1    3    0     10.81      0.00
    3    3    0     -9.79      0.00
    5    3    0      2.37      0.00
    7    3    0      3.08      0.00
    9    3    0      0.33      0.00
   11    3    0      0.30      0.00
    0    4    0    -11.23      0.00
    2    4    0      2.22      0.00
    4    4    0     -0.14      0.00
    6    4    0     -8.54      0.00
    8    4    0     -8.59      0.00
   10    4    0     -2.04      0.00
    1    5    0     23.69      0.00
    3    5    0      6.71      0.00
    5    5    0      3.48      0.00
    7    5    0      5.66      0.00
    9    5    0      4.10      0.00
   11    5    0     -0.33      0.00
    0    6    0      4.51      0.00
    2    6    0     11.43      0.00
    4    6    0     18.16      0.00
    6    6    0     14.37      0.00
    8    6    0      6.82      0.00
   10    6    0      0.99      0.00
    1    7    0    -15.20      0.00
    3    7    0    -12.97      0.00
    5    7    0    -14.62      0.00
    7    7    0    -11.13      0.00
    9    7    0     -2.45      0.00
    0    8    0     -7.89      0.00
    2    8    0    -11.46      0.00
    4    8    0     -9.88      0.00
    6    8    0     -2.78      0.00
    8    8    0     -1.37      0.00
   10    8    0     -1.89      0.00
    1    9    0      5.65      0.00
    3    9    0      7.27      0.00
    5    9    0      4.29      0.00
    7    9    0      3.28      0.00
    9    9    0      0.62      0.00
    0   10    0     -5.23      0.00
    2   10    0     -2.95      0.00
    4   10    0      2.59      0.00
    6   10    0      0.66      0.00
    8   10    0     -0.80      0.00
    1   11    0     15.82      0.00
    3   11    0      7.53      0.00
    5   11    0      3.17      0.00
    7   11    0      3.74      0.00
    0   12    0      4.55      0.00
    2   12    0      0.49      0.00
    4   12    0     -0.27      0.00
    6   12    0     -2.52      0.00
    8   12    0     -1.79      0.00
    1   13    0    -19.39      0.00
    3   13    0     -9.39      0.00
    5   13    0     -4.68      0.00
    7   13    0     -1.82      0.00
    0   14    0      5.84      0.00
    2   14    0      2.71      0.00
    4   14    0     -0.48      0.00
    6   14    0      0.88      0.00
    1   15    0      3.30      0.00
    3   15    0      5.25      0.00
    5   15    0      4.80      0.00
    0   16    0      1.34      0.00
    2   16    0      1.41      0.00
    4   16    0     -2.26      0.00
    1   17    0      0.05      0.00
    3   17    0     -0.61      0.00
    1    1    1    -93.95      0.00
    2    1    1     -2.91      0.00
    3    1    1    -17.15      0.00
    4    1    1     -0.70      0.00
    5    1    1    -13.77      0.00
    6    1    1     -0.06      0.00
    7    1    1     -6.28      0.00
    8    1    1      0.21      0.00
    9    1    1     -2.56      0.00
   10    1    1     -0.02      0.00
   11    1    1     -0.17      0.00
    0    2    1     63.97      0.00
    1    2    1      2.34      0.00
    2    2    1      6.78      0.00
    3    2    1      1.80      0.00
    4    2    1     -9.24      0.00
    5    2    1     -0.19      0.00
    6    2    1      2.47      0.00
    7    2    1     -0.45      0.00
    8    2    1      4.01      0.00
    9    2    1      0.19      0.00
   10    2    1      0.65      0.00
   11    2    1      0.30      0.00
    1    3    1      0.23      0.00
    2    3    1     -2.23      0.00
    3    3    1     13.98      0.00
    4    3    1     -0.56      0.00
    5    3    1      6.67      0.00
    6    3    1      0.43      0.00
    7    3    1     -4.18      0.00
    8    3    1      0.24      0.00
    9    3    1     -4.84      0.00
   10    3    1     -0.49      0.00
   11    3    1      1.12      0.00
    0    4    1     18.59      0.00
    1    4    1      1.23      0.00
    2    4    1     13.37      0.00
    3    4    1      2.02      0.00
    4    4    1      0.36      0.00
    5    4    1      0.35      0.00
    6    4    1     -1.70      0.00
    7    4    1     -0.20      0.00
    8    4    1      2.45      0.00
    9    4    1     -0.27      0.00
   10    4    1      1.06      0.00
   11    4    1     -0.03      0.00
    1    5    1      3.30      0.00
    2    5    1     -1.24      0.00
    3    5    1      8.28      0.00
    4    5    1     -1.04      0.00
    5    5    1     14.48      0.00
    6    5    1     -0.24      0.00
    7    5    1     12.61      0.00
    8    5    1      0.27      0.00
    9    5    1      4.11      0.00
   10    5    1      0.42      0.00
   11    5    1      0.77      0.00
    0    6    1    -21.37      0.00
    1    6    1     -0.02      0.00
    2    6    1    -13.50      0.00
    3    6    1      0.43      0.00
    4    6    1     -9.63      0.00
    5    6    1      0.55      0.00
    6    6    1    -11.71      0.00
    7    6    1      0.32      0.00
    8    6    1     -6.78      0.00
    9    6    1     -0.09      0.00
   10    6    1     -0.96      0.00
    1    7    1    -10.81      0.00
    2    7    1      0.34      0.00
    3    7    1    -17.06      0.00
    4    7    1     -0.28      0.00
    5    7    1    -12.20      0.00
    6    7    1     -0.57      0.00
    7    7    1     -6.60      0.00
    8    7    1     -0.41      0.00
    9    7    1     -2.32      0.00
   10    7    1     -0.20      0.00
    0    8    1     11.82      0.00
    1    8    1     -0.13      0.00
    2    8    1     12.35      0.00
    3    8    1     -0.43      0.00
    4    8    1     11.93      0.00
    5    8    1      0.10      0.00
    6    8    1     10.41      0.00
    7    8    1      0.39      0.00
    8    8    1      5.00      0.00
    9    8    1      0.22      0.00
   10    8    1      0.08      0.00
    1    9    1      2.21      0.00
    2    9    1     -0.03      0.00
    3    9    1      5.16      0.00
    4    9    1      0.41      0.00
    5    9    1      2.21      0.00
    6    9    1      0.02      0.00
    7    9    1     -1.05      0.00
    8    9    1     -0.29      0.00
    9    9    1      0.60      0.00
    0   10    1      5.11      0.00
    1   10    1      0.34      0.00
    2   10    1      2.88      0.00
    3   10    1     -0.04      0.00
    4   10    1      0.45      0.00
    5   10    1     -0.38      0.00
    6   10    1      1.68      0.00
    7   10    1      0.39      0.00
    8   10    1      1.60      0.00
    9   10    1      0.37      0.00
    1   11    1      7.06      0.00
    2   11    1      0.09      0.00
    3   11    1      1.02      0.00
    4   11    1      0.57      0.00
    5   11    1     -3.25      0.00
    6   11    1     -0.05      0.00
    7   11    1     -0.98      0.00
    8   11    1     -0.53      0.00
    0   12    1    -24.00      0.00
    1   12    1     -0.22      0.00
    2   12    1    -16.72      0.00
    3   12    1     -0.41      0.00
    4   12    1     -5.23      0.00
    5   12    1     -0.34      0.00
    6   12    1     -3.32      0.00
    7   12    1      0.15      0.00
    8   12    1     -2.36      0.00
    1   13    1      3.15      0.00
    2   13    1      0.09      0.00
    3   13    1      0.45      0.00
    4   13    1      0.03      0.00
    5   13    1     -0.25      0.00
    6   13    1      0.19      0.00
    7   13    1      1.95      0.00
    0   14    1     12.94      0.00
    1   14    1     -0.20      0.00
    2   14    1      7.64      0.00
    3   14    1      0.07      0.00
    4   14    1      8.02      0.00
    5   14    1     -0.14      0.00
    6   14    1      2.88      0.00
    7   14    1     -0.22      0.00
    1   15    1     -1.75      0.00
    2   15    1      0.10      0.00
    3   15    1     -0.57      0.00
    4   15    1     -0.02      0.00
    5   15    1     -1.74      0.00
    6   15    1      0.20      0.00
    0   16    1     -0.05      0.00
    1   16    1      0.11      0.00
    2   16    1     -1.56      0.00
    3   16    1      0.31      0.00
    4   16    1     -2.78      0.00
    5   16    1      0.03      0.00
    1   17    1     -2.61      0.00
    2   17    1     -0.40      0.00
    3   17    1      0.08      0.00
    4   17    1     -0.09      0.00
    1   18    1      0.30      0.00
    0    0    2   -148.14      0.00
    1    0    2     -7.39      0.00
    2    0    2    -54.39      0.00
    3    0    2     -6.63      0.00
    4    0    2     -9.52      0.00
    5    0    2     -0.87      0.00
    6    0    2    -11.47      0.00
    7    0    2      0.31      0.00
    8    0    2     -5.78      0.00
    9    0    2      0.10      0.00
   10    0    2     -1.85      0.00
   11    0    2     -0.39      0.00
    1    1    2     39.54      0.00
    2    1    2      6.28      0.00
    3    1    2     -8.60      0.00
    4    1    2      1.71      0.00
    5    1    2     -2.80      0.00
    6    1    2     -0.25      0.00
    7    1    2      2.30      0.00
    8    1    2     -0.24      0.00
    9    1    2      2.78      0.00
   10    1    2      0.60      0.00
   11    1    2     -1.11      0.00
    0    2    2     42.92      0.00
    1    2    2     -0.72      0.00
    2    2    2     25.98      0.00
    3    2    2     -1.85      0.00
    4    2    2     15.04      0.00
    5    2    2      0.01      0.00
    6    2    2      8.01      0.00
    7    2    2      0.11      0.00
    8    2    2     -1.57      0.00
    9    2    2     -0.33      0.00
   10    2    2      0.25      0.00
   11    2    2     -0.29      0.00
    1    3    2    -10.46      0.00
    2    3    2      0.27      0.00
    3    3    2      9.34      0.00
    4    3    2      1.50      0.00
    5    3    2     -2.03      0.00
    6    3    2      0.83      0.00
    7    3    2     -3.10      0.00
    8    3    2      0.11      0.00
    9    3    2     -0.37      0.00
   10    3    2     -0.53      0.00
   11    3    2     -0.13      0.00
    0    4    2     10.37      0.00
    1    4    2      0.94      0.00
    2    4    2     -1.80      0.00
    3    4    2      0.03      0.00
    4    4    2      0.28      0.00
    5    4    2     -1.11      0.00
    6    4    2      8.43      0.00
    7    4    2     -1.12      0.00
    8    4    2      8.56      0.00
    9    4    2      0.68      0.00
   10    4    2      2.00      0.00
   11    4    2      0.59      0.00
    1    5    2    -22.66      0.00
    2    5    2     -2.52      0.00
    3    5    2     -7.03      0.00
    4    5    2     -0.51      0.00
    5    5    2     -3.59      0.00
    6    5    2      0.87      0.00
    7    5    2     -5.60      0.00
    8    5    2      1.01      0.00
    9    5    2     -3.97      0.00
   10    5    2     -0.18      0.00
   11    5    2      0.24      0.00
    0    6    2     -5.03      0.00
    1    6    2      1.26      0.00
    2    6    2    -11.27      0.00
    3    6    2      2.11      0.00
    4    6    2    -17.43      0.00
    5    6    2     -0.01      0.00
    6    6    2    -14.13      0.00
    7    6    2     -1.17      0.00
    8    6    2     -6.96      0.00
    9    6    2     -0.95      0.00
   10    6    2     -1.03      0.00
    1    7    2     15.00      0.00
    2    7    2     -1.07      0.00
    3    7    2     12.71      0.00
    4    7    2     -1.37      0.00
    5    7    2     14.16      0.00
    6    7    2      0.10      0.00
    7    7    2     11.03      0.00
    8    7    2      0.77      0.00
    9    7    2      2.59      0.00
   10    7    2      0.41      0.00
    0    8    2      7.65      0.00
    1    8    2     -0.14      0.00
    2    8    2     10.97      0.00
    3    8    2      0.64      0.00
    4    8    2      9.58      0.00
    5    8    2      1.14      0.00
    6    8    2      2.88      0.00
    7    8    2      0.02      0.00
    8    8    2      1.36      0.00
    9    8    2     -0.34      0.00
   10    8    2      1.78      0.00
    1    9    2     -5.31      0.00
    2    9    2      0.56      0.00
    3    9    2     -6.88      0.00
    4    9    2     -0.45      0.00
    5    9    2     -4.16      0.00
    6    9    2     -0.42      0.00
    7    9    2     -3.19      0.00
    8    9    2      0.44      0.00
    9    9    2     -0.55      0.00
    0   10    2      5.01      0.00
    1   10    2      0.15      0.00
    2   10    2      2.88      0.00
    3   10    2      0.04      0.00
    4   10    2     -2.49      0.00
    5   10    2      0.29      0.00
    6   10    2     -0.73      0.00
    7   10    2     -0.27      0.00
    8   10    2      0.56      0.00
    9   10    2     -0.01      0.00
    1   11    2    -15.32      0.00
    2   11    2     -0.55      0.00
    3   11    2     -7.48      0.00
    4   11    2      0.15      0.00
    5   11    2     -3.19      0.00
    6   11    2     -0.19      0.00
    7   11    2     -3.58      0.00
    8   11    2     -0.46      0.00
    0   12    2     -4.91      0.00
    1   12    2      0.12      0.00
    2   12    2     -0.88      0.00
    3   12    2     -0.83      0.00
    4   12    2      0.27      0.00
    5   12    2     -0.51      0.00
    6   12    2      2.43      0.00
    7   12    2      0.87      0.00
    8   12    2      1.73      0.00
    1   13    2     19.39      0.00
    2   13    2      0.65      0.00
    3   13    2      9.40      0.00
    4   13    2      0.97      0.00
    5   13    2      4.67      0.00
    6   13    2     -0.11      0.00
    7   13    2      1.91      0.00
    0   14    2     -5.69      0.00
    1   14    2     -0.15      0.00
    2   14    2     -2.52      0.00
    3   14    2     -0.65      0.00
    4   14    2      0.50      0.00
    5   14    2     -0.33      0.00
    6   14    2     -1.00      0.00
    7   14    2      0.08      0.00
    1   15    2     -3.55      0.00
    2   15    2      0.82      0.00
    3   15    2     -5.37      0.00
    4   15    2      0.64      0.00
    5   15    2     -4.66      0.00
    6   15    2      0.35      0.00
    0   16    2     -1.30      0.00
    1   16    2     -0.92      0.00
    2   16    2     -1.24      0.00
    3   16    2     -0.42      0.00
    4   16    2      2.20      0.00
    5   16    2     -0.59      0.00
    1   17    2      0.08      0.00
    2   17    2      0.14      0.00
    3   17    2      0.58      0.00
    1    1    3     84.12      0.00
    2    1    3      7.74      0.00
    3    1    3     16.70      0.00
    4    1    3      1.88      0.00
    5    1    3     13.21      0.00
    6    1    3      0.17      0.00
    7    1    3      6.33      0.00
    8    1    3     -0.53      0.00
    9    1    3      2.57      0.00
   10    1    3      0.06      0.00
   11    1    3      0.17      0.00
    0    2    3    -52.89      0.00
    1    2    3     -6.01      0.00
    2    2    3     -4.65      0.00
    3    2    3     -4.57      0.00
    4    2    3      8.30      0.00
    5    2    3      0.55      0.00
    6    2    3     -2.46      0.00
    7    2    3      1.27      0.00
    8    2    3     -3.90      0.00
    9    2    3     -0.56      0.00
   10    2    3     -0.70      0.00
   11    2    3     -0.83      0.00
    1    3    3     -3.93      0.00
    2    3    3      5.36      0.00
    3    3    3    -12.78      0.00
    4    3    3      1.29      0.00
    5    3    3     -5.87      0.00
    6    3    3     -1.28      0.00
    7    3    3      4.06      0.00
    8    3    3     -0.67      0.00
    9    3    3      4.50      0.00
   10    3    3      1.42      0.00
   11    3    3     -0.55      0.00
    0    4    3    -14.63      0.00
    1    4    3     -2.82      0.00
    2    4    3    -11.65      0.00
    3    4    3     -4.96      0.00
    4    4    3     -1.27      0.00
    5    4    3     -0.89      0.00
    6    4    3      1.37      0.00
    7    4    3      0.63      0.00
    8    4    3     -2.00      0.00
    9    4    3      0.72      0.00
   10    4    3     -1.18      0.00
   11    4    3     -0.08      0.00
    1    5    3     -4.97      0.00
    2    5    3      2.90      0.00
    3    5    3     -8.18      0.00
    4    5    3      2.60      0.00
    5    5    3    -13.51      0.00
    6    5    3      0.65      0.00
    7    5    3    -12.64      0.00
    8    5    3     -0.94      0.00
    9    5    3     -4.38      0.00
   10    5    3     -1.20      0.00
   11    5    3     -0.51      0.00
    0    6    3     20.97      0.00
    1    6    3      0.12      0.00
    2    6    3     13.80      0.00
    3    6    3     -0.92      0.00
    4    6    3      9.37      0.00
    5    6    3     -1.40      0.00
    6    6    3     11.32      0.00
    7    6    3     -0.73      0.00
    8    6    3      6.97      0.00
    9    6    3      0.60      0.00
   10    6    3      0.98      0.00
    1    7    3      9.92      0.00
    2    7    3     -1.00      0.00
    3    7    3     15.64      0.00
    4    7    3      0.54      0.00
    5    7    3     11.69      0.00
    6    7    3      1.49      0.00
    7    7    3      6.46      0.00
    8    7    3      0.91      0.00
    9    7    3      2.33      0.00
   10    7    3      0.31      0.00
    0    8    3    -10.60      0.00
    1    8    3      0.46      0.00
    2    8    3    -11.38      0.00
    3    8    3      1.42      0.00
    4    8    3    -11.10      0.00
    5    8    3     -0.09      0.00
    6    8    3     -9.83      0.00
    7    8    3     -1.05      0.00
    8    8    3     -4.82      0.00
    9    8    3     -0.46      0.00
   10    8    3     -0.13      0.00
    1    9    3     -2.43      0.00
    2    9    3     -0.15      0.00
    3    9    3     -4.74      0.00
    4    9    3     -1.28      0.00
    5    9    3     -2.37      0.00
    6    9    3     -0.12      0.00
    7    9    3      0.56      0.00
    8    9    3      0.71      0.00
    9    9    3     -0.75      0.00
    0   10    3     -4.67      0.00
    1   10    3     -0.74      0.00
    2   10    3     -2.82      0.00
    3   10    3      0.27      0.00
    4   10    3     -0.71      0.00
    5   10    3      1.02      0.00
    6   10    3     -1.36      0.00
    7   10    3     -0.96      0.00
    8   10    3     -1.33      0.00
    9   10    3     -0.86      0.00
    1   11    3     -7.21      0.00
    2   11    3     -0.50      0.00
    3   11    3     -1.12      0.00
    4   11    3     -1.58      0.00
    5   11    3      2.97      0.00
    6   11    3      0.12      0.00
    7   11    3      0.87      0.00
    8   11    3      1.30      0.00
    0   12    3     23.19      0.00
    1   12    3      0.72      0.00
    2   12    3     16.12      0.00
    3   12    3      1.24      0.00
    4   12    3      5.27      0.00
    5   12    3      0.90      0.00
    6   12    3      3.46      0.00
    7   12    3     -0.40      0.00
    8   12    3      2.28      0.00
    1   13    3     -2.29      0.00
    2   13    3     -0.24      0.00
    3   13    3     -0.02      0.00
    4   13    3     -0.04      0.00
    5   13    3      0.10      0.00
    6   13    3     -0.45      0.00
    7   13    3     -2.12      0.00
    0   14    3    -13.23      0.00
    1   14    3      0.39      0.00
    2   14    3     -8.28      0.00
    3   14    3     -0.34      0.00
    4   14    3     -7.79      0.00
    5   14    3      0.28      0.00
    6   14    3     -2.68      0.00
    7   14    3      0.56      0.00
    1   15    3      1.93      0.00
    2   15    3     -0.03      0.00
    3   15    3      0.65      0.00
    4   15    3      0.17      0.00
    5   15    3      1.58      0.00
    6   15    3     -0.46      0.00
    0   16    3      0.23      0.00
    1   16    3     -0.43      0.00
    2   16    3      1.67      0.00
    3   16    3     -1.03      0.00
    4   16    3      2.70      0.00
    5   16    3     -0.15      0.00
    1   17    3      2.65      0.00
    2   17    3      1.19      0.00
    3   17    3      0.01      0.00
    0    0    4    121.40      0.00
    1    0    4     11.86      0.00
    2    0    4     46.45      0.00
    3    0    4     10.43      0.00
    4    0    4     10.15      0.00
    5    0    4      1.26      0.00
    6    0    4     11.19      0.00
    7    0    4     -0.72      0.00
    8    0    4      5.73      0.00
    9    0    4     -0.24      0.00
   10    0    4      1.84      0.00
   11    0    4      0.71      0.00
    1    1    4    -28.33      0.00
    2    1    4     -9.51      0.00
    3    1    4      7.55      0.00
    4    1    4     -2.32      0.00
    5    1    4      2.09      0.00
    6    1    4      0.71      0.00
    7    1    4     -2.32      0.00
    8    1    4      0.62      0.00
    9    1    4     -2.47      0.00
   10    1    4     -0.96      0.00
   11    1    4      0.45      0.00
    0    2    4    -42.44      0.00
    1    2    4      0.35      0.00
    2    2    4    -25.34      0.00
    3    2    4      2.12      0.00
    4    2    4    -13.32      0.00
    5    2    4     -0.43      0.00
    6    2    4     -7.19      0.00
    7    2    4     -0.51      0.00
    8    2    4      1.03      0.00
    9    2    4      0.35      0.00
   10    2    4      0.08      0.00
   11    2    4      0.61      0.00
    1    3    4      9.31      0.00
    2    3    4      0.33      0.00
    3    3    4     -8.26      0.00
    4    3    4     -2.04      0.00
    5    3    4      1.18      0.00
    6    3    4     -1.27      0.00
    7    3    4      3.13      0.00
    8    3    4      0.15      0.00
    9    3    4      0.47      0.00
   10    3    4      0.96      0.00
   11    3    4     -0.22      0.00
    0    4    4     -8.15      0.00
    1    4    4     -1.63      0.00
    2    4    4      0.83      0.00
    3    4    4     -0.42      0.00
    4    4    4     -0.60      0.00
    5    4    4      1.70      0.00
    6    4    4     -8.19      0.00
    7    4    4      1.76      0.00
    8    4    4     -8.42      0.00
    9    4    4     -1.65      0.00
   10    4    4     -1.84      0.00
   11    4    4     -1.10      0.00
    1    5    4     19.94      0.00
    2    5    4      4.07      0.00
    3    5    4      7.72      0.00
    4    5    4      1.18      0.00
    5    5    4      3.90      0.00
    6    5    4     -1.36      0.00
    7    5    4      5.47      0.00
    8    5    4     -1.33      0.00
    9    5    4      3.60      0.00
   10    5    4      0.78      0.00
    0    6    4      6.18      0.00
    1    6    4     -1.90      0.00
    2    6    4     10.72      0.00
    3    6    4     -3.62      0.00
    4    6    4     15.48      0.00
    5    6    4     -0.31      0.00
    6    6    4     13.44      0.00
    7    6    4      1.95      0.00
    8    6    4      7.29      0.00
    9    6    4      1.37      0.00
   10    6    4      1.11      0.00
    1    7    4    -14.22      0.00
    2    7    4      1.85      0.00
    3    7    4    -11.84      0.00
    4    7    4      2.57      0.00
    5    7    4    -12.84      0.00
    6    7    4     -0.02      0.00
    7    7    4    -10.71      0.00
    8    7    4     -1.49      0.00
    9    7    4     -2.92      0.00
   10    7    4     -0.65      0.00
    0    8    4     -7.11      0.00
    1    8    4      0.11      0.00
    2    8    4     -9.82      0.00
    3    8    4     -1.18      0.00
    4    8    4     -8.93      0.00
    5    8    4     -2.02      0.00
    6    8    4     -3.24      0.00
    7    8    4     -0.06      0.00
    8    8    4     -1.39      0.00
    9    8    4      0.76      0.00
   10    8    4     -1.53      0.00
    1    9    4      4.53      0.00
    2    9    4     -0.95      0.00
    3    9    4      5.99      0.00
    4    9    4      0.59      0.00
    5    9    4      3.93      0.00
    6    9    4      0.77      0.00
    7    9    4      3.07      0.00
    8    9    4     -0.71      0.00
    9    9    4      0.45      0.00
    0   10    4     -4.56      0.00
    1   10    4     -0.23      0.00
    2   10    4     -2.79      0.00
    3   10    4      0.07      0.00
    4   10    4      2.21      0.00
    5   10    4     -0.44      0.00
    6   10    4      0.88      0.00
    7   10    4      0.43      0.00
    8   10    4     -0.05      0.00
    9   10    4      0.05      0.00
    1   11    4     14.22      0.00
    2   11    4      0.73      0.00
    3   11    4      7.34      0.00
    4   11    4     -0.32      0.00
    5   11    4      3.14      0.00
    6   11    4      0.31      0.00
    7   11    4      3.11      0.00
    8   11    4      0.66      0.00
    0   12    4      5.37      0.00
    1   12    4      0.17      0.00
    2   12    4      1.63      0.00
    3   12    4      1.76      0.00
    4   12    4     -0.26      0.00
    5   12    4      0.91      0.00
    6   12    4     -2.11      0.00
    7   12    4     -1.38      0.00
    8   12    4     -1.54      0.00
    1   13    4    -18.91      0.00
    2   13    4     -1.70      0.00
    3   13    4     -9.24      0.00
    4   13    4     -1.85      0.00
    5   13    4     -4.54      0.00
    6   13    4      0.16      0.00
    7   13    4     -2.05      0.00
    0   14    4      4.99      0.00
    1   14    4      0.56      0.00
    2   14    4      1.87      0.00
    3   14    4      1.40      0.00
    4   14    4     -0.57      0.00
    5   14    4      0.57      0.00
    6   14    4      1.15      0.00
    7   14    4     -0.10      0.00
    1   15    4      4.29      0.00
    2   15    4     -1.56      0.00
    3   15    4      5.60      0.00
    4   15    4     -1.10      0.00
    5   15    4      4.31      0.00
    6   15    4     -0.54      0.00
    0   16    4      1.10      0.00
    1   16    4      1.50      0.00
    2   16    4      0.78      0.00
    3   16    4      0.70      0.00
    4   16    4     -1.98      0.00
    5   16    4      0.87      0.00
    1   17    4     -0.43      0.00
    2   17    4     -0.09      0.00
    3   17    4     -0.55      0.00
    1    1    5    -69.04      0.00
    2    1    5    -10.31      0.00
    3    1    5    -16.08      0.00
    4    1    5     -2.64      0.00
    5    1    5    -12.12      0.00
    6    1    5     -0.30      0.00
    7    1    5     -6.26      0.00
    8    1    5      0.54      0.00
    9    1    5     -2.37      0.00
   10    1    5     -0.12      0.00
   11    1    5     -0.09      0.00
    0    2    5     37.08      0.00
    1    2    5      7.46      0.00
    2    2    5      2.33      0.00
    3    2    5      5.66      0.00
    4    2    5     -6.76      0.00
    5    2    5     -0.83      0.00
    6    2    5      2.45      0.00
    7    2    5     -1.83      0.00
    8    2    5      3.52      0.00
    9    2    5      0.89      0.00
   10    2    5      0.50      0.00
   11    2    5      1.13      0.00
    1    3    5      8.13      0.00
    2    3    5     -5.81      0.00
    3    3    5     10.52      0.00
    4    3    5     -1.37      0.00
    5    3    5      4.52      0.00
    6    3    5      1.97      0.00
    7    3    5     -3.89      0.00
    8    3    5      0.92      0.00
    9    3    5     -3.71      0.00
   10    3    5     -2.10      0.00
   11    3    5     -0.09      0.00
    0    4    5      9.50      0.00
    1    4    5      2.68      0.00
    2    4    5      9.50      0.00
    3    4    5      5.68      0.00
    4    4    5      2.71      0.00
    5    4    5      1.19      0.00
    6    4    5     -0.80      0.00
    7    4    5     -1.00      0.00
    8    4    5      1.32      0.00
    9    4    5     -0.93      0.00
   10    4    5      1.18      0.00
   11    4    5      0.47      0.00
    1    5    5      6.67      0.00
    2    5    5     -2.93      0.00
    3    5    5      7.55      0.00
    4    5    5     -3.15      0.00
    5    5    5     11.91      0.00
    6    5    5     -1.00      0.00
    7    5    5     12.52      0.00
    8    5    5      1.78      0.00
    9    5    5      4.73      0.00
   10    5    5      1.74      0.00
    0    6    5    -19.37      0.00
    1    6    5     -0.33      0.00
    2    6    5    -13.51      0.00
    3    6    5      0.73      0.00
    4    6    5     -8.69      0.00
    5    6    5      1.84      0.00
    6    6    5    -10.58      0.00
    7    6    5      0.74      0.00
    8    6    5     -7.13      0.00
    9    6    5     -1.67      0.00
   10    6    5     -0.97      0.00
    1    7    5     -8.90      0.00
    2    7    5      1.53      0.00
    3    7    5    -13.54      0.00
    4    7    5     -0.26      0.00
    5    7    5    -10.86      0.00
    6    7    5     -1.99      0.00
    7    7    5     -6.29      0.00
    8    7    5     -0.80      0.00
    9    7    5     -2.36      0.00
   10    7    5      0.12      0.00
    0    8    5      8.96      0.00
    1    8    5     -0.84      0.00
    2    8    5      9.94      0.00
    3    8    5     -2.51      0.00
    4    8    5      9.67      0.00
    5    8    5     -0.23      0.00
    6    8    5      8.90      0.00
    7    8    5      1.51      0.00
    8    8    5      4.62      0.00
    9    8    5      0.36      0.00
   10    8    5      0.14      0.00
    1    9    5      2.41      0.00
    2    9    5      0.77      0.00
    3    9    5      4.12      0.00
    4    9    5      2.07      0.00
    5    9    5      2.79      0.00
    6    9    5      0.20      0.00
    7    9    5      0.15      0.00
    8    9    5     -0.91      0.00
    9    9    5      0.98      0.00
    0   10    5      4.39      0.00
    1   10    5      0.58      0.00
    2   10    5      2.84      0.00
    3   10    5     -0.73      0.00
    4   10    5      0.86      0.00
    5   10    5     -1.32      0.00
    6   10    5      0.68      0.00
    7   10    5      1.14      0.00
    8   10    5      0.81      0.00
    9   10    5      0.89      0.00
    1   11    5      6.98      0.00
    2   11    5      1.32      0.00
    3   11    5      1.25      0.00
    4   11    5      2.26      0.00
    5   11    5     -2.39      0.00
    6   11    5     -0.18      0.00
    7   11    5     -0.62      0.00
    8   11    5     -1.50      0.00
    0   12    5    -21.48      0.00
    1   12    5     -1.33      0.00
    2   12    5    -14.95      0.00
    3   12    5     -2.03      0.00
    4   12    5     -5.29      0.00
    5   12    5     -1.22      0.00
    6   12    5     -3.48      0.00
    7   12    5      0.57      0.00
    8   12    5     -2.07      0.00
    1   13    5      1.14      0.00
    2   13    5      0.28      0.00
    3   13    5     -0.48      0.00
    4   13    5     -0.02      0.00
    5   13    5      0.03      0.00
    6   13    5      0.48      0.00
    7   13    5      2.13      0.00
    0   14    5     13.08      0.00
    1   14    5     -0.16      0.00
    2   14    5      8.86      0.00
    3   14    5      0.76      0.00
    4   14    5      7.16      0.00
    5   14    5     -0.14      0.00
    6   14    5      2.38      0.00
    7   14    5     -0.69      0.00
    1   15    5     -1.79      0.00
    2   15    5     -0.47      0.00
    3   15    5     -0.59      0.00
    4   15    5     -0.45      0.00
    5   15    5     -1.17      0.00
    6   15    5      0.46      0.00
    0   16    5     -1.03      0.00
    1   16    5      0.88      0.00
    2   16    5     -2.10      0.00
    3   16    5      1.71      0.00
    4   16    5     -2.60      0.00
    5   16    5      0.32      0.00
    1   17    5     -2.18      0.00
    2   17    5     -1.81      0.00
    3   17    5     -0.03      0.00
    0    0    6    -91.28      0.00
    1    0    6    -12.67      0.00
    2    0    6    -38.33      0.00
    3    0    6    -11.03      0.00
    4    0    6    -10.65      0.00
    5    0    6     -1.30      0.00
    6    0    6    -10.50      0.00
    7    0    6      1.00      0.00
    8    0    6     -5.24      0.00
    9    0    6      0.22      0.00
   10    0    6     -1.29      0.00
   11    0    6     -0.87      0.00
    1    1    6     17.36      0.00
    2    1    6      9.28      0.00
    3    1    6     -5.54      0.00
    4    1    6      1.99      0.00
    5    1    6     -1.34      0.00
    6    1    6     -1.20      0.00
    7    1    6      2.22      0.00
    8    1    6     -0.94      0.00
    9    1    6      1.68      0.00
   10    1    6      0.98      0.00
   11    1    6     -0.04      0.00
    0    2    6     39.28      0.00
    1    2    6      0.98      0.00
    2    2    6     23.20      0.00
    3    2    6     -0.95      0.00
    4    2    6     11.02      0.00
    5    2    6      1.00      0.00
    6    2    6      6.09      0.00
    7    2    6      1.06      0.00
    8    2    6     -0.36      0.00
    9    2    6     -0.03      0.00
   10    2    6     -0.18      0.00
   11    2    6     -0.84      0.00
    1    3    6     -7.45      0.00
    2    3    6     -1.61      0.00
    3    3    6      7.07      0.00
    4    3    6      1.66      0.00
    5    3    6     -0.30      0.00
    6    3    6      1.44      0.00
    7    3    6     -3.08      0.00
    8    3    6     -0.73      0.00
    9    3    6     -0.50      0.00
   10    3    6     -1.21      0.00
   11    3    6      0.49      0.00
    0    4    6      5.52      0.00
    1    4    6      1.91      0.00
    2    4    6      0.11      0.00
    3    4    6      1.10      0.00
    4    4    6      0.91      0.00
    5    4    6     -1.84      0.00
    6    4    6      8.01      0.00
    7    4    6     -1.88      0.00
    8    4    6      8.02      0.00
    9    4    6      2.75      0.00
   10    4    6      1.52      0.00
    1    5    6    -16.38      0.00
    2    5    6     -4.40      0.00
    3    5    6     -8.20      0.00
    4    5    6     -1.87      0.00
    5    5    6     -4.28      0.00
    6    5    6      1.47      0.00
    7    5    6     -5.30      0.00
    8    5    6      0.86      0.00
    9    5    6     -3.02      0.00
   10    5    6     -1.64      0.00
    0    6    6     -7.13      0.00
    1    6    6      1.85      0.00
    2    6    6     -9.72      0.00
    3    6    6      4.26      0.00
    4    6    6    -12.86      0.00
    5    6    6      0.90      0.00
    6    6    6    -12.36      0.00
    7    6    6     -2.24      0.00
    8    6    6     -7.54      0.00
    9    6    6     -1.26      0.00
   10    6    6     -1.16      0.00
    1    7    6     12.71      0.00
    2    7    6     -2.28      0.00
    3    7    6     10.30      0.00
    4    7    6     -3.42      0.00
    5    7    6     10.89      0.00
    6    7    6     -0.23      0.00
    7    7    6     10.10      0.00
    8    7    6      2.15      0.00
    9    7    6      3.18      0.00
   10    7    6      0.78      0.00
    0    8    6      6.50      0.00
    1    8    6      0.11      0.00
    2    8    6      8.53      0.00
    3    8    6      1.58      0.00
    4    8    6      8.36      0.00
    5    8    6      2.52      0.00
    6    8    6      3.84      0.00
    7    8    6      0.07      0.00
    8    8    6      1.54      0.00
    9    8    6     -1.25      0.00
    1    9    6     -3.68      0.00
    2    9    6      1.02      0.00
    3    9    6     -5.01      0.00
    4    9    6     -0.52      0.00
    5    9    6     -3.84      0.00
    6    9    6     -1.04      0.00
    7    9    6     -3.15      0.00
    8    9    6      0.75      0.00
    9    9    6     -0.49      0.00
    0   10    6      4.25      0.00
    1   10    6      0.28      0.00
    2   10    6      2.74      0.00
    3   10    6     -0.13      0.00
    4   10    6     -1.90      0.00
    5   10    6      0.56      0.00
    6   10    6     -0.93      0.00
    7   10    6     -0.36      0.00
    8   10    6     -0.36      0.00
    9   10    6     -0.07      0.00
    1   11    6    -13.11      0.00
    2   11    6     -0.57      0.00
    3   11    6     -7.00      0.00
    4   11    6      0.25      0.00
    5   11    6     -2.78      0.00
    6   11    6     -0.47      0.00
    7   11    6     -2.44      0.00
    8   11    6     -0.60      0.00
    0   12    6     -4.93      0.00
    1   12    6     -0.85      0.00
    2   12    6     -2.04      0.00
    3   12    6     -2.55      0.00
    4   12    6      0.14      0.00
    5   12    6     -0.98      0.00
    6   12    6      1.52      0.00
    7   12    6      1.54      0.00
    8   12    6      1.19      0.00
    1   13    6     17.26      0.00
    2   13    6      2.94      0.00
    3   13    6      8.76      0.00
    4   13    6      2.39      0.00
    5   13    6      4.24      0.00
    6   13    6     -0.23      0.00
    7   13    6      2.03      0.00
    0   14    6     -3.56      0.00
    1   14    6     -1.09      0.00
    2   14    6     -0.92      0.00
    3   14    6     -1.99      0.00
    4   14    6      0.60      0.00
    5   14    6     -0.55      0.00
    6   14    6     -0.97      0.00
    1   15    6     -5.31      0.00
    2   15    6      1.93      0.00
    3   15    6     -5.59      0.00
    4   15    6      1.17      0.00
    5   15    6     -3.79      0.00
    6   15    6      0.40      0.00
    0   16    6     -0.63      0.00
    1   16    6     -1.55      0.00
    2   16    6     -0.21      0.00
    3   16    6     -0.79      0.00
    4   16    6      1.49      0.00
    1   17    6      0.86      0.00
    2   17    6     -0.12      0.00
    3   17    6      0.58      0.00
    1    1    7     54.17      0.00
    2    1    7     10.70      0.00
    3    1    7     15.37      0.00
    4    1    7      3.03      0.00
    5    1    7     10.61      0.00
    6    1    7      0.38      0.00
    7    1    7      5.88      0.00
    8    1    7     -0.13      0.00
    9    1    7      1.85      0.00
   10    1    7      0.25      0.00
   11    1    7     -0.09      0.00
    0    2    7    -23.62      0.00
    1    2    7     -7.03      0.00
    2    2    7     -1.43      0.00
    3    2    7     -5.53      0.00
    4    2    7      5.17      0.00
    5    2    7      0.96      0.00
    6    2    7     -2.42      0.00
    7    2    7      2.01      0.00
    8    2    7     -2.83      0.00
    9    2    7     -1.21      0.00
   10    2    7      0.09      0.00
   11    2    7     -1.06      0.00
    1    3    7     -9.95      0.00
    2    3    7      4.52      0.00
    3    3    7     -7.85      0.00
    4    3    7      1.18      0.00
    5    3    7     -3.02      0.00
    6    3    7     -2.39      0.00
    7    3    7      3.76      0.00
    8    3    7     -0.88      0.00
    9    3    7      2.60      0.00
   10    3    7      2.26      0.00
    0    4    7     -5.76      0.00
    1    4    7     -1.55      0.00
    2    4    7     -7.89      0.00
    3    4    7     -4.92      0.00
    4    4    7     -3.97      0.00
    5    4    7     -1.46      0.00
    6    4    7      0.18      0.00
    7    4    7      1.12      0.00
    8    4    7     -0.76      0.00
    9    4    7      0.92      0.00
   10    4    7     -0.92      0.00
    1    5    7     -7.07      0.00
    2    5    7      1.98      0.00
    3    5    7     -6.30      0.00
    4    5    7      3.07      0.00
    5    5    7    -10.28      0.00
    6    5    7      1.45      0.00
    7    5    7    -11.99      0.00
    8    5    7     -2.52      0.00
    9    5    7     -4.84      0.00
   10    5    7     -1.99      0.00
    0    6    7     16.36      0.00
    1    6    7      0.51      0.00
    2    6    7     12.13      0.00
    3    6    7     -0.25      0.00
    4    6    7      7.67      0.00
    5    6    7     -2.08      0.00
    6    6    7      9.62      0.00
    7    6    7     -0.49      0.00
    8    6    7      6.93      0.00
    9    6    7      2.90      0.00
   10    6    7      0.89      0.00
    1    7    7      8.19      0.00
    2    7    7     -1.81      0.00
    3    7    7     11.35      0.00
    4    7    7     -0.12      0.00
    5    7    7      9.86      0.00
    6    7    7      2.21      0.00
    7    7    7      6.16      0.00
    8    7    7      0.31      0.00
    9    7    7      2.44      0.00
   10    7    7     -0.73      0.00
    0    8    7     -7.64      0.00
    1    8    7      1.19      0.00
    2    8    7     -8.44      0.00
    3    8    7      3.19      0.00
    4    8    7     -7.87      0.00
    5    8    7      0.49      0.00
    6    8    7     -7.88      0.00
    7    8    7     -1.87      0.00
    8    8    7     -4.55      0.00
    9    8    7     -0.20      0.00
    1    9    7     -1.87      0.00
    2    9    7     -1.44      0.00
    3    9    7     -3.73      0.00
    4    9    7     -2.39      0.00
    5    9    7     -3.50      0.00
    6    9    7     -0.06      0.00
    7    9    7     -0.71      0.00
    8    9    7      1.10      0.00
    9    9    7     -1.15      0.00
    0   10    7     -4.64      0.00
    1   10    7     -0.07      0.00
    2   10    7     -2.91      0.00
    3   10    7      1.18      0.00
    4   10    7     -0.46      0.00
    5   10    7      1.14      0.00
    6   10    7      0.29      0.00
    7   10    7     -1.15      0.00
    8   10    7     -0.20      0.00
    1   11    7     -6.09      0.00
    2   11    7     -2.30      0.00
    3   11    7     -1.37      0.00
    4   11    7     -2.54      0.00
    5   11    7      1.48      0.00
    6   11    7      0.29      0.00
    7   11    7      0.22      0.00
    8   11    7      1.38      0.00
    0   12    7     19.00      0.00
    1   12    7      1.89      0.00
    2   12    7     13.32      0.00
    3   12    7      2.69      0.00
    4   12    7      5.19      0.00
    5   12    7      1.35      0.00
    6   12    7      3.23      0.00
    7   12    7     -0.76      0.00
    8   12    7      1.69      0.00
    1   13    7     -0.30      0.00
    2   13    7     -0.23      0.00
    3   13    7      0.70      0.00
    4   13    7      0.00      0.00
    5   13    7     -0.02      0.00
    6   13    7     -0.30      0.00
    7   13    7     -1.70      0.00
    0   14    7    -11.98      0.00
    1   14    7     -0.38      0.00
    2   14    7     -8.81      0.00
    3   14    7     -1.07      0.00
    4   14    7     -6.14      0.00
    5   14    7     -0.14      0.00
    6   14    7     -2.08      0.00
    1   15    7      1.19      0.00
    2   15    7      1.02      0.00
    3   15    7      0.40      0.00
    4   15    7      0.52      0.00
    5   15    7      0.58      0.00
    0   16    7      2.34      0.00
    1   16    7     -1.13      0.00
    2   16    7      2.66      0.00
    3   16    7     -1.85      0.00
    4   16    7      2.35      0.00
    1   17    7      1.05      0.00
    2   17    7      1.88      0.00
    0    0    8     67.03      0.00
    1    0    8     11.27      0.00
    2    0    8     32.36      0.00
    3    0    8     10.16      0.00
    4    0    8     10.37      0.00
    5    0    8      1.30      0.00
    6    0    8      9.26      0.00
    7    0    8     -0.95      0.00
    8    0    8      4.39      0.00
    9    0    8      0.14      0.00
   10    0    8      0.34      0.00
   11    0    8      0.76      0.00
    1    1    8    -10.58      0.00
    2    1    8     -7.58      0.00
    3    1    8      3.26      0.00
    4    1    8     -1.60      0.00
    5    1    8      0.94      0.00
    6    1    8      1.52      0.00
    7    1    8     -1.98      0.00
    8    1    8      0.94      0.00
    9    1    8     -0.68      0.00
   10    1    8     -0.68      0.00
   11    1    8      0.09      0.00
    0    2    8    -33.47      0.00
    1    2    8     -2.13      0.00
    2    2    8    -19.84      0.00
    3    2    8     -0.29      0.00
    4    2    8     -8.85      0.00
    5    2    8     -1.29      0.00
    6    2    8     -4.95      0.00
    7    2    8     -1.49      0.00
    8    2    8     -0.08      0.00
    9    2    8     -0.52      0.00
   10    2    8      0.01      0.00
    1    3    8      5.47      0.00
    2    3    8      2.61      0.00
    3    3    8     -5.98      0.00
    4    3    8     -1.14      0.00
    5    3    8     -0.15      0.00
    6    3    8     -1.64      0.00
    7    3    8      2.83      0.00
    8    3    8      1.35      0.00
    9    3    8      0.36      0.00
   10    3    8      1.25      0.00
    0    4    8     -3.37      0.00
    1    4    8     -1.86      0.00
    2    4    8     -0.59      0.00
    3    4    8     -1.65      0.00
    4    4    8     -1.20      0.00
    5    4    8      1.97      0.00
    6    4    8     -7.91      0.00
    7    4    8      1.71      0.00
    8    4    8     -7.29      0.00
    9    4    8     -3.48      0.00
   10    4    8     -1.02      0.00
    1    5    8     12.83      0.00
    2    5    8      4.08      0.00
    3    5    8      8.10      0.00
    4    5    8      2.25      0.00
    5    5    8      4.62      0.00
    6    5    8     -1.43      0.00
    7    5    8      5.08      0.00
    8    5    8     -0.03      0.00
    9    5    8      2.37      0.00
   10    5    8      2.14      0.00
    0    6    8      7.43      0.00
    1    6    8     -1.61      0.00
    2    6    8      8.34      0.00
    3    6    8     -4.20      0.00
    4    6    8     10.21      0.00
    5    6    8     -1.41      0.00
    6    6    8     11.00      0.00
    7    6    8      2.16      0.00
    8    6    8      7.39      0.00
    9    6    8      0.98      0.00
   10    6    8      1.12      0.00
    1    7    8    -10.83      0.00
    2    7    8      2.39      0.00
    3    7    8     -8.36      0.00
    4    7    8      3.68      0.00
    5    7    8     -8.74      0.00
    6    7    8      0.43      0.00
    7    7    8     -9.16      0.00
    8    7    8     -2.71      0.00
    9    7    8     -3.18      0.00
   10    7    8     -0.90      0.00
    0    8    8     -5.69      0.00
    1    8    8     -0.30      0.00
    2    8    8     -7.25      0.00
    3    8    8     -1.78      0.00
    4    8    8     -8.00      0.00
    5    8    8     -2.60      0.00
    6    8    8     -4.47      0.00
    7    8    8      0.06      0.00
    8    8    8     -1.78      0.00
    9    8    8      1.72      0.00
    1    9    8      2.88      0.00
    2    9    8     -0.79      0.00
    3    9    8      4.07      0.00
    4    9    8      0.52      0.00
    5    9    8      3.98      0.00
    6    9    8      1.18      0.00
    7    9    8      3.49      0.00
    8    9    8     -0.67      0.00
    9    9    8      0.67      0.00
    0   10    8     -4.13      0.00
    1   10    8     -0.38      0.00
    2   10    8     -2.47      0.00
    3   10    8     -0.14      0.00
    4   10    8      1.82      0.00
    5   10    8     -0.79      0.00
    6   10    8      0.70      0.00
    7   10    8      0.13      0.00
    8   10    8      0.40      0.00
    1   11    8     12.06      0.00
    2   11    8      0.45      0.00
    3   11    8      6.13      0.00
    4   11    8      0.18      0.00
    5   11    8      2.03      0.00
    6   11    8      0.71      0.00
    7   11    8      1.76      0.00
    8   11    8      0.45      0.00
    0   12    8      3.58      0.00
    1   12    8      1.49      0.00
    2   12    8      2.06      0.00
    3   12    8      2.79      0.00
    4   12    8      0.25      0.00
    5   12    8      0.69      0.00
    6   12    8     -0.72      0.00
    7   12    8     -1.49      0.00
    1   13    8    -14.74      0.00
    2   13    8     -3.75      0.00
    3   13    8     -8.11      0.00
    4   13    8     -2.40      0.00
    5   13    8     -3.88      0.00
    6   13    8      0.35      0.00
    0   14    8      2.03      0.00
    1   14    8      1.37      0.00
    2   14    8      0.23      0.00
    3   14    8      2.04      0.00
    4   14    8     -0.33      0.00
    5   14    8      0.30      0.00
    6   14    8      0.45      0.00
    1   15    8      5.96      0.00
    2   15    8     -1.66      0.00
    3   15    8      4.98      0.00
    4   15    8     -0.82      0.00
    5   15    8      3.06      0.00
    0   16    8      0.03      0.00
    1   16    8      1.06      0.00
    2   16    8     -0.26      0.00
    3   16    8      0.72      0.00
    4   16    8     -0.77      0.00
    1   17    8     -1.12      0.00
    1    1    9    -42.31      0.00
    2    1    9     -9.86      0.00
    3    1    9    -14.32      0.00
    4    1    9     -3.21      0.00
    5    1    9     -8.84      0.00
    6    1    9     -0.32      0.00
    7    1    9     -5.17      0.00
    8    1    9     -0.57      0.00
    9    1    9     -1.24      0.00
   10    1    9     -0.44      0.00
    0    2    9     15.23      0.00
    1    2    9      5.95      0.00
    2    2    9      1.67      0.00
    3    2    9      5.11      0.00
    4    2    9     -3.97      0.00
    5    2    9     -1.13      0.00
    6    2    9      2.33      0.00
    7    2    9     -1.88      0.00
    8    2    9      2.14      0.00
    9    2    9      1.40      0.00
   10    2    9     -0.74      0.00
    1    3    9      9.39      0.00
    2    3    9     -3.29      0.00
    3    3    9      5.73      0.00
    4    3    9     -0.98      0.00
    5    3    9      1.72      0.00
    6    3    9      2.63      0.00
    7    3    9     -3.70      0.00
    8    3    9      0.69      0.00
    9    3    9     -1.67      0.00
   10    3    9     -1.70      0.00
    0    4    9      3.72      0.00
    1    4    9      0.74      0.00
    2    4    9      6.71      0.00
    3    4    9      4.00      0.00
    4    4    9      4.46      0.00
    5    4    9      1.70      0.00
    6    4    9      0.30      0.00
    7    4    9     -1.04      0.00
    8    4    9      0.63      0.00
    9    4    9     -0.88      0.00
   10    4    9      0.61      0.00
    1    5    9      6.34      0.00
    2    5    9     -1.20      0.00
    3    5    9      4.87      0.00
    4    5    9     -2.84      0.00
    5    5    9      9.01      0.00
    6    5    9     -1.86      0.00
    7    5    9     10.86      0.00
    8    5    9      2.94      0.00
    9    5    9      4.43      0.00
   10    5    9      1.98      0.00
    0    6    9    -12.93      0.00
    1    6    9     -0.63      0.00
    2    6    9    -10.16      0.00
    3    6    9     -0.14      0.00
    4    6    9     -6.69      0.00
    5    6    9      2.19      0.00
    6    6    9     -8.54      0.00
    7    6    9      0.12      0.00
    8    6    9     -6.19      0.00
    9    6    9     -3.67      0.00
   10    6    9     -0.68      0.00
    1    7    9     -7.46      0.00
    2    7    9      1.94      0.00
    3    7    9     -9.18      0.00
    4    7    9      0.25      0.00
    5    7    9     -8.70      0.00
    6    7    9     -2.12      0.00
    7    7    9     -5.98      0.00
    8    7    9      0.21      0.00
    9    7    9     -2.49      0.00
    0    8    9      6.81      0.00
    1    8    9     -1.40      0.00
    2    8    9      6.90      0.00
    3    8    9     -3.10      0.00
    4    8    9      5.91      0.00
    5    8    9     -0.49      0.00
    6    8    9      6.94      0.00
    7    8    9      2.05      0.00
    8    8    9      4.52      0.00
    9    8    9      0.20      0.00
    1    9    9      0.96      0.00
    2    9    9      1.64      0.00
    3    9    9      3.82      0.00
    4    9    9      2.12      0.00
    5    9    9      4.25      0.00
    6    9    9     -0.25      0.00
    7    9    9      0.87      0.00
    8    9    9     -1.31      0.00
    9    9    9      1.11      0.00
    0   10    9      5.06      0.00
    1   10    9     -0.32      0.00
    2   10    9      2.79      0.00
    3   10    9     -1.37      0.00
    4   10    9     -0.55      0.00
    5   10    9     -0.65      0.00
    6   10    9     -1.28      0.00
    7   10    9      1.15      0.00
    8   10    9     -0.31      0.00
    1   11    9      4.88      0.00
    2   11    9      3.00      0.00
    3   11    9      1.48      0.00
    4   11    9      2.51      0.00
    5   11    9     -0.33      0.00
    6   11    9     -0.44      0.00
    7   11    9      0.31      0.00
    8   11    9     -1.23      0.00
    0   12    9    -16.28      0.00
    1   12    9     -2.19      0.00
    2   12    9    -11.46      0.00
    3   12    9     -3.10      0.00
    4   12    9     -4.95      0.00
    5   12    9     -1.37      0.00
    6   12    9     -2.85      0.00
    7   12    9      0.96      0.00
    1   13    9      0.04      0.00
    2   13    9      0.18      0.00
    3   13    9     -0.62      0.00
    4   13    9      0.14      0.00
    5   13    9      0.00      0.00
    6   13    9      0.07      0.00
    7   13    9      0.98      0.00
    0   14    9     10.22      0.00
    1   14    9      0.90      0.00
    2   14    9      8.17      0.00
    3   14    9      1.05      0.00
    4   14    9      4.93      0.00
    5   14    9      0.37      0.00
    6   14    9      1.71      0.00
    1   15    9     -0.73      0.00
    2   15    9     -1.11      0.00
    3   15    9     -0.41      0.00
    4   15    9     -0.18      0.00
    5   15    9     -0.05      0.00
    0   16    9     -3.20      0.00
    1   16    9      0.91      0.00
    2   16    9     -2.74      0.00
    3   16    9      1.16      0.00
    1   17    9      0.06      0.00
    0    0   10    -50.17      0.00
    1    0   10     -9.52      0.00
    2    0   10    -27.82      0.00
    3    0   10     -9.38      0.00
    4    0   10     -9.25      0.00
    5    0   10     -1.16      0.00
    6    0   10     -7.69      0.00
    7    0   10      0.73      0.00
    8    0   10     -3.68      0.00
    9    0   10     -0.68      0.00
   10    0   10      0.33      0.00
    1    1   10      7.30      0.00
    2    1   10      6.30      0.00
    3    1   10     -1.64      0.00
    4    1   10      1.49      0.00
    5    1   10     -0.81      0.00
    6    1   10     -1.81      0.00
    7    1   10      1.76      0.00
    8    1   10     -0.72      0.00
    9    1   10      0.16      0.00
   10    1   10      0.15      0.00
    0    2   10     26.98      0.00
    1    2   10      2.30      0.00
    2    2   10     16.40      0.00
    3    2   10      0.79      0.00
    4    2   10      7.13      0.00
    5    2   10      1.36      0.00
    6    2   10      3.83      0.00
    7    2   10      1.76      0.00
    8    2   10      0.04      0.00
    9    2   10      1.16      0.00
   10    2   10      0.12      0.00
    1    3   10     -3.93      0.00
    2    3   10     -2.75      0.00
    3    3   10      5.01      0.00
    4    3   10      0.95      0.00
    5    3   10      0.12      0.00
    6    3   10      1.86      0.00
    7    3   10     -2.32      0.00
    8    3   10     -1.83      0.00
    9    3   10     -0.04      0.00
   10    3   10     -1.15      0.00
    0    4   10      1.87      0.00
    1    4   10      1.70      0.00
    2    4   10      0.43      0.00
    3    4   10      1.76      0.00
    4    4   10      1.47      0.00
    5    4   10     -2.30      0.00
    6    4   10      7.66      0.00
    7    4   10     -1.38      0.00
    8    4   10      6.27      0.00
    9    4   10      3.51      0.00
   10    4   10      0.49      0.00
    1    5   10     -9.68      0.00
    2    5   10     -3.80      0.00
    3    5   10     -7.41      0.00
    4    5   10     -2.16      0.00
    5    5   10     -4.79      0.00
    6    5   10      1.31      0.00
    7    5   10     -4.74      0.00
    8    5   10     -0.66      0.00
    9    5   10     -1.84      0.00
   10    5   10     -1.89      0.00
    0    6   10     -7.20      0.00
    1    6   10      1.67      0.00
    2    6   10     -6.83      0.00
    3    6   10      3.76      0.00
    4    6   10     -7.93      0.00
    5    6   10      1.55      0.00
    6    6   10     -9.46      0.00
    7    6   10     -1.85      0.00
    8    6   10     -6.64      0.00
    9    6   10     -0.84      0.00
    1    7   10      9.20      0.00
    2    7   10     -2.19      0.00
    3    7   10      6.49      0.00
    4    7   10     -3.25      0.00
    5    7   10      6.84      0.00
    6    7   10     -0.43      0.00
    7    7   10      7.90      0.00
    8    7   10      2.97      0.00
    9    7   10      2.83      0.00
    0    8   10      4.43      0.00
    1    8   10      0.20      0.00
    2    8   10      5.84      0.00
    3    8   10      1.63      0.00
    4    8   10      7.64      0.00
    5    8   10      2.19      0.00
    6    8   10      4.75      0.00
    7    8   10     -0.35      0.00
    8    8   10      1.96      0.00
    9    8   10     -1.92      0.00
    1    9   10     -2.16      0.00
    2    9   10      0.46      0.00
    3    9   10     -3.15      0.00
    4    9   10     -0.56      0.00
    5    9   10     -4.21      0.00
    6    9   10     -0.92      0.00
    7    9   10     -3.83      0.00
    8    9   10      0.59      0.00
    0   10   10      4.11      0.00
    1   10   10      0.59      0.00
    2   10   10      1.86      0.00
    3   10   10      0.68      0.00
    4   10   10     -1.94      0.00
    5   10   10      0.82      0.00
    6   10   10     -0.12      0.00
    7   10   10      0.00      0.00
    8   10   10     -0.09      0.00
    1   11   10    -10.77      0.00
    2   11   10     -0.61      0.00
    3   11   10     -4.68      0.00
    4   11   10     -0.65      0.00
    5   11   10     -1.23      0.00
    6   11   10     -0.78      0.00
    7   11   10     -1.35      0.00
    8   11   10     -0.26      0.00
    0   12   10     -2.22      0.00
    1   12   10     -1.73      0.00
    2   12   10     -2.03      0.00
    3   12   10     -2.48      0.00
    4   12   10     -0.83      0.00
    5   12   10     -0.37      0.00
    6   12   10      0.05      0.00
    7   12   10      1.23      0.00
    1   13   10     12.34      0.00
    2   13   10      3.77      0.00
    3   13   10      7.51      0.00
    4   13   10      2.09      0.00
    5   13   10      3.53      0.00
    6   13   10     -0.32      0.00
    0   14   10     -1.39      0.00
    1   14   10     -1.21      0.00
    2   14   10     -0.32      0.00
    3   14   10     -1.56      0.00
    4   14   10     -0.33      0.00
    5   14   10     -0.08      0.00
    1   15   10     -5.61      0.00
    2   15   10      0.88      0.00
    3   15   10     -3.74      0.00
    4   15   10      0.27      0.00
    0   16   10      0.39      0.00
    1   16   10     -0.33      0.00
    2   16   10      0.50      0.00
    3   16   10     -0.64      0.00
    1    1   11     33.25      0.00
    2    1   11      8.76      0.00
    3    1   11     12.78      0.00
    4    1   11      3.27      0.00
    5    1   11      7.14      0.00
    6    1   11      0.09      0.00
    7    1   11      4.28      0.00
    8    1   11      1.26      0.00
    9    1   11      0.92      0.00
   10    1   11      0.60      0.00
    0    2   11    -10.31      0.00
    1    2   11     -5.07      0.00
    2    2   11     -1.78      0.00
    3    2   11     -4.75      0.00
    4    2   11      3.05      0.00
    5    2   11      1.58      0.00
    6    2   11     -2.15      0.00
    7    2   11      1.64      0.00
    8    2   11     -1.83      0.00
    9    2   11     -1.34      0.00
   10    2   11      0.94      0.00
    1    3   11     -8.27      0.00
    2    3   11      2.83      0.00
    3    3   11     -4.51      0.00
    4    3   11      0.53      0.00
    5    3   11     -0.64      0.00
    6    3   11     -2.90      0.00
    7    3   11      3.65      0.00
    8    3   11     -0.56      0.00
    9    3   11      1.40      0.00
   10    3   11      0.66      0.00
    0    4   11     -2.40      0.00
    1    4   11     -0.77      0.00
    2    4   11     -5.54      0.00
    3    4   11     -3.35      0.00
    4    4   11     -4.30      0.00
    5    4   11     -1.58      0.00
    6    4   11     -0.67      0.00
    7    4   11      0.98      0.00
    8    4   11     -0.96      0.00
    9    4   11      0.95      0.00
    1    5   11     -5.20      0.00
    2    5   11      0.98      0.00
    3    5   11     -3.55      0.00
    4    5   11      2.48      0.00
    5    5   11     -7.97      0.00
    6    5   11      1.90      0.00
    7    5   11     -9.08      0.00
    8    5   11     -3.00      0.00
    9    5   11     -3.49      0.00
    0    6   11     10.06      0.00
    1    6   11      0.80      0.00
    2    6   11      8.25      0.00
    3    6   11      0.47      0.00
    4    6   11      5.85      0.00
    5    6   11     -1.89      0.00
    6    6   11      7.33      0.00
    7    6   11      0.37      0.00
    8    6   11      5.02      0.00
    9    6   11      3.60      0.00
    1    7   11      6.45      0.00
    2    7   11     -2.15      0.00
    3    7   11      7.10      0.00
    4    7   11     -0.32      0.00
    5    7   11      7.49      0.00
    6    7   11      1.49      0.00
    7    7   11      5.46      0.00
    8    7   11     -0.55      0.00
    9    7   11      2.36      0.00
    0    8   11     -6.43      0.00
    1    8   11      1.45      0.00
    2    8   11     -5.45      0.00
    3    8   11      2.47      0.00
    4    8   11     -4.29      0.00
    5    8   11      0.59      0.00
    6    8   11     -6.10      0.00
    7    8   11     -1.76      0.00
    8    8   11     -4.23      0.00
    9    8   11     -0.28      0.00
    1    9   11      0.05      0.00
    2    9   11     -1.20      0.00
    3    9   11     -4.06      0.00
    4    9   11     -1.64      0.00
    5    9   11     -4.48      0.00
    6    9   11      0.32      0.00
    7    9   11     -0.60      0.00
    8    9   11      1.31      0.00
    0   10   11     -5.06      0.00
    1   10   11      0.33      0.00
    2   10   11     -2.41      0.00
    3   10   11      1.31      0.00
    4   10   11      1.64      0.00
    5   10   11      0.20      0.00
    6   10   11      1.81      0.00
    7   10   11     -1.02      0.00
    8   10   11      0.58      0.00
    1   11   11     -3.94      0.00
    2   11   11     -3.23      0.00
    3   11   11     -1.47      0.00
    4   11   11     -2.24      0.00
    5   11   11     -0.73      0.00
    6   11   11      0.57      0.00
    7   11   11     -0.84      0.00
    0   12   11     13.90      0.00
    1   12   11      2.24      0.00
    2   12   11      9.63      0.00
    3   12   11      3.22      0.00
    4   12   11      4.59      0.00
    5   12   11      1.24      0.00
    6   12   11      2.65      0.00
    7   12   11     -1.01      0.00
    1   13   11     -0.26      0.00
    2   13   11     -0.25      0.00
    3   13   11      0.32      0.00
    4   13   11     -0.31      0.00
    5   13   11     -0.24      0.00
    6   13   11      0.12      0.00
    0   14   11     -8.34      0.00
    1   14   11     -1.13      0.00
    2   14   11     -7.20      0.00
    3   14   11     -0.74      0.00
    4   14   11     -3.69      0.00
    5   14   11     -0.56      0.00
    1   15   11      0.89      0.00
    2   15   11      0.72      0.00
    3   15   11      0.73      0.00
    4   15   11     -0.29      0.00
    0   16   11      2.84      0.00
    1   16   11     -0.33      0.00
    2   16   11      2.02      0.00
    0    0   12     37.94      0.00
    1    0   12      8.22      0.00
    2    0   12     23.39      0.00
    3    0   12      8.92      0.00
    4    0   12      8.09      0.00
    5    0   12      0.73      0.00
    6    0   12      6.18      0.00
    7    0   12     -0.54      0.00
    8    0   12      3.48      0.00
    9    0   12      1.06      0.00
   10    0   12     -0.26      0.00
    1    1   12     -5.21      0.00
    2    1   12     -5.70      0.00
    3    1   12      0.74      0.00
    4    1   12     -1.28      0.00
    5    1   12      0.47      0.00
    6    1   12      2.19      0.00
    7    1   12     -1.70      0.00
    8    1   12      0.50      0.00
    9    1   12     -0.47      0.00
   10    1   12      0.38      0.00
    0    2   12    -21.47      0.00
    1    2   12     -1.78      0.00
    2    2   12    -13.52      0.00
    3    2   12     -1.01      0.00
    4    2   12     -5.63      0.00
    5    2   12     -1.58      0.00
    6    2   12     -2.71      0.00
    7    2   12     -1.99      0.00
    8    2   12      0.41      0.00
    9    2   12     -1.65      0.00
   10    2   12      0.01      0.00
    1    3   12      2.66      0.00
    2    3   12      2.40      0.00
    3    3   12     -4.30      0.00
    4    3   12     -0.86      0.00
    5    3   12      0.03      0.00
    6    3   12     -1.83      0.00
    7    3   12      1.62      0.00
    8    3   12      2.09      0.00
    9    3   12     -0.23      0.00
   10    3   12      0.92      0.00
    0    4   12     -0.51      0.00
    1    4   12     -1.58      0.00
    2    4   12      0.39      0.00
    3    4   12     -1.47      0.00
    4    4   12     -1.60      0.00
    5    4   12      2.62      0.00
    6    4   12     -6.93      0.00
    7    4   12      0.91      0.00
    8    4   12     -5.18      0.00
    9    4   12     -2.90      0.00
   10    4   12     -0.18      0.00
    1    5   12      6.94      0.00
    2    5   12      3.72      0.00
    3    5   12      6.35      0.00
    4    5   12      1.72      0.00
    5    5   12      4.59      0.00
    6    5   12     -1.04      0.00
    7    5   12      4.24      0.00
    8    5   12      0.98      0.00
    9    5   12      1.57      0.00
    0    6   12      6.78      0.00
    1    6   12     -2.01      0.00
    2    6   12      5.38      0.00
    3    6   12     -3.16      0.00
    4    6   12      6.19      0.00
    5    6   12     -1.43      0.00
    6    6   12      7.78      0.00
    7    6   12      1.36      0.00
    8    6   12      5.26      0.00
    9    6   12      0.79      0.00
    1    7   12     -8.12      0.00
    2    7   12      1.68      0.00
    3    7   12     -5.03      0.00
    4    7   12      2.34      0.00
    5    7   12     -5.45      0.00
    6    7   12      0.30      0.00
    7    7   12     -6.37      0.00
    8    7   12     -2.69      0.00
    9    7   12     -2.13      0.00
    0    8   12     -2.95      0.00
    1    8   12      0.27      0.00
    2    8   12     -4.32      0.00
    3    8   12     -1.10      0.00
    4    8   12     -6.99      0.00
    5    8   12     -1.37      0.00
    6    8   12     -4.37      0.00
    7    8   12      0.64      0.00
    8    8   12     -1.91      0.00
    1    9   12      1.74      0.00
    2    9   12     -0.24      0.00
    3    9   12      2.38      0.00
    4    9   12      0.33      0.00
    5    9   12      4.32      0.00
    6    9   12      0.14      0.00
    7    9   12      3.72      0.00
    8    9   12     -0.47      0.00
    0   10   12     -4.26      0.00
    1   10   12     -0.93      0.00
    2   10   12     -1.22      0.00
    3   10   12     -1.10      0.00
    4   10   12      1.85      0.00
    5   10   12     -0.20      0.00
    6   10   12     -0.70      0.00
    7   10   12      0.14      0.00
    8   10   12     -0.28      0.00
    1   11   12      9.27      0.00
    2   11   12      1.02      0.00
    3   11   12      3.23      0.00
    4   11   12      0.68      0.00
    5   11   12      0.94      0.00
    6   11   12      0.45      0.00
    7   11   12      1.27      0.00
    0   12   12      1.43      0.00
    1   12   12      1.47      0.00
    2   12   12      1.92      0.00
    3   12   12      1.94      0.00
    4   12   12      1.07      0.00
    5   12   12      0.29      0.00
    6   12   12      0.14      0.00
    1   13   12    -10.47      0.00
    2   13   12     -3.22      0.00
    3   13   12     -6.72      0.00
    4   13   12     -1.79      0.00
    5   13   12     -3.05      0.00
    6   13   12      0.04      0.00
    0   14   12      1.79      0.00
    1   14   12      0.84      0.00
    2   14   12      0.97      0.00
    3   14   12      1.02      0.00
    4   14   12      1.06      0.00
    5   14   12      0.11      0.00
    1   15   12      4.28      0.00
    2   15   12     -0.11      0.00
    3   15   12      2.29      0.00
    1   16   12     -0.26      0.00
    1    1   13    -25.85      0.00
    2    1   13     -7.87      0.00
    3    1   13    -11.02      0.00
    4    1   13     -3.29      0.00
    5    1   13     -5.81      0.00
    6    1   13      0.10      0.00
    7    1   13     -3.38      0.00
    8    1   13     -1.70      0.00
    9    1   13     -1.00      0.00
    0    2   13      6.61      0.00
    1    2   13      4.50      0.00
    2    2   13      1.22      0.00
    3    2   13      4.30      0.00
    4    2   13     -1.97      0.00
    5    2   13     -2.12      0.00
    6    2   13      1.91      0.00
    7    2   13     -1.27      0.00
    8    2   13      1.97      0.00
    9    2   13      1.05      0.00
    1    3   13      7.67      0.00
    2    3   13     -2.55      0.00
    3    3   13      3.76      0.00
    4    3   13      0.41      0.00
    5    3   13     -0.30      0.00
    6    3   13      3.07      0.00
    7    3   13     -3.43      0.00
    8    3   13      0.47      0.00
    9    3   13     -1.72      0.00
    0    4   13      1.33      0.00
    1    4   13      1.11      0.00
    2    4   13      4.49      0.00
    3    4   13      2.57      0.00
    4    4   13      3.99      0.00
    5    4   13      1.11      0.00
    6    4   13      0.95      0.00
    7    4   13     -0.96      0.00
    8    4   13      1.41      0.00
    9    4   13     -0.92      0.00
    1    5   13      3.90      0.00
    2    5   13     -0.97      0.00
    3    5   13      2.22      0.00
    4    5   13     -1.93      0.00
    5    5   13      6.75      0.00
    6    5   13     -1.54      0.00
    7    5   13      6.93      0.00
    8    5   13      2.67      0.00
    9    5   13      2.34      0.00
    0    6   13     -7.81      0.00
    1    6   13     -1.10      0.00
    2    6   13     -6.50      0.00
    3    6   13     -0.86      0.00
    4    6   13     -4.88      0.00
    5    6   13      1.16      0.00
    6    6   13     -6.00      0.00
    7    6   13     -0.81      0.00
    8    6   13     -3.75      0.00
    9    6   13     -2.73      0.00
    1    7   13     -5.44      0.00
    2    7   13      2.50      0.00
    3    7   13     -5.45      0.00
    4    7   13      0.60      0.00
    5    7   13     -6.41      0.00
    6    7   13     -0.43      0.00
    7    7   13     -4.37      0.00
    8    7   13      0.60      0.00
    9    7   13     -1.90      0.00
    0    8   13      6.52      0.00
    1    8   13     -1.28      0.00
    2    8   13      4.49      0.00
    3    8   13     -1.76      0.00
    4    8   13      3.50      0.00
    5    8   13     -1.10      0.00
    6    8   13      5.25      0.00
    7    8   13      1.02      0.00
    8    8   13      3.36      0.00
    1    9   13     -1.06      0.00
    2    9   13      0.31      0.00
    3    9   13      3.74      0.00
    4    9   13      1.41      0.00
    5    9   13      3.75      0.00
    6    9   13      0.03      0.00
    7    9   13      0.13      0.00
    8    9   13     -0.90      0.00
    0   10   13      4.51      0.00
    1   10   13      0.01      0.00
    2   10   13      2.07      0.00
    3   10   13     -1.12      0.00
    4   10   13     -2.07      0.00
    5   10   13      0.10      0.00
    6   10   13     -1.53      0.00
    7   10   13      0.70      0.00
    1   11   13      3.34      0.00
    2   11   13      3.09      0.00
    3   11   13      1.16      0.00
    4   11   13      1.68      0.00
    5   11   13      1.29      0.00
    6   11   13     -0.75      0.00
    7   11   13      1.09      0.00
    0   12   13    -11.85      0.00
    1   12   13     -2.18      0.00
    2   12   13     -7.89      0.00
    3   12   13     -3.05      0.00
    4   12   13     -4.09      0.00
    5   12   13     -0.81      0.00
    6   12   13     -2.57      0.00
    1   13   13      0.70      0.00
    2   13   13      0.54      0.00
    3   13   13      0.15      0.00
    4   13   13      0.33      0.00
    5   13   13      0.78      0.00
    0   14   13      6.56      0.00
    1   14   13      0.96      0.00
    2   14   13      5.91      0.00
    3   14   13      0.42      0.00
    4   14   13      2.45      0.00
    1   15   13     -1.33      0.00
    2   15   13     -0.21      0.00
    0    0   14    -28.26      0.00
    1    0   14     -7.25      0.00
    2    0   14    -19.09      0.00
    3    0   14     -8.45      0.00
    4    0   14     -7.66      0.00
    5    0   14     -0.44      0.00
    6    0   14     -4.92      0.00
    7    0   14      0.12      0.00
    8    0   14     -3.48      0.00
    9    0   14     -1.19      0.00
    1    1   14      3.35      0.00
    2    1   14      5.13      0.00
    3    1   14      0.06      0.00
    4    1   14      0.84      0.00
    5    1   14      0.32      0.00
    6    1   14     -2.23      0.00
    7    1   14      1.61      0.00
    8    1   14     -0.19      0.00
    9    1   14      1.17      0.00
    0    2   14     17.05      0.00
    1    2   14      1.38      0.00
    2    2   14     11.00      0.00
    3    2   14      1.65      0.00
    4    2   14      4.07      0.00
    5    2   14      1.90      0.00
    6    2   14      1.70      0.00
    7    2   14      1.96      0.00
    8    2   14     -0.82      0.00
    9    2   14      1.64      0.00
    1    3   14     -1.29      0.00
    2    3   14     -2.24      0.00
    3    3   14      3.88      0.00
    4    3   14      0.66      0.00
    5    3   14     -0.03      0.00
    6    3   14      1.59      0.00
    7    3   14     -0.98      0.00
    8    3   14     -2.01      0.00
    9    3   14      0.23      0.00
    0    4   14     -1.03      0.00
    1    4   14      1.50      0.00
    2    4   14     -1.58      0.00
    3    4   14      0.94      0.00
    4    4   14      1.42      0.00
    5    4   14     -2.76      0.00
    6    4   14      5.63      0.00
    7    4   14     -0.40      0.00
    8    4   14      4.18      0.00
    9    4   14      1.94      0.00
    1    5   14     -4.54      0.00
    2    5   14     -3.52      0.00
    3    5   14     -5.10      0.00
    4    5   14     -1.17      0.00
    5    5   14     -3.95      0.00
    6    5   14      0.61      0.00
    7    5   14     -3.60      0.00
    8    5   14     -0.96      0.00
    9    5   14     -1.50      0.00
    0    6   14     -6.38      0.00
    1    6   14      2.23      0.00
    2    6   14     -4.13      0.00
    3    6   14      2.53      0.00
    4    6   14     -4.93      0.00
    5    6   14      1.32      0.00
    6    6   14     -6.02      0.00
    7    6   14     -0.81      0.00
    8    6   14     -3.50      0.00
    9    6   14     -0.63      0.00
    1    7   14      7.38      0.00
    2    7   14     -0.93      0.00
    3    7   14      4.05      0.00
    4    7   14     -1.44      0.00
    5    7   14      4.55      0.00
    6    7   14     -0.24      0.00
    7    7   14      4.75      0.00
    8    7   14      1.86      0.00
    0    8   14      1.74      0.00
    1    8   14     -0.94      0.00
    2    8   14      2.90      0.00
    3    8   14      0.39      0.00
    4    8   14      5.96      0.00
    5    8   14      0.44      0.00
    6    8   14      3.24      0.00
    7    8   14     -0.65      0.00
    8    8   14      1.53      0.00
    1    9   14     -1.72      0.00
    2    9   14      0.11      0.00
    3    9   14     -1.90      0.00
    4    9   14      0.26      0.00
    5    9   14     -4.10      0.00
    6    9   14      0.86      0.00
    7    9   14     -2.83      0.00
    0   10   14      4.38      0.00
    1   10   14      1.40      0.00
    2   10   14      0.94      0.00
    3   10   14      1.20      0.00
    4   10   14     -1.26      0.00
    5   10   14     -1.00      0.00
    6   10   14      1.29      0.00
    7   10   14     -0.36      0.00
    1   11   14     -7.74      0.00
    2   11   14     -1.56      0.00
    3   11   14     -2.47      0.00
    4   11   14     -0.24      0.00
    5   11   14     -1.24      0.00
    6   11   14      0.07      0.00
    0   12   14     -0.99      0.00
    1   12   14     -0.86      0.00
    2   12   14     -1.35      0.00
    3   12   14     -1.37      0.00
    4   12   14     -0.58      0.00
    5   12   14     -0.30      0.00
    6   12   14      0.18      0.00
    1   13   14      8.64      0.00
    2   13   14      2.46      0.00
    3   13   14      5.33      0.00
    4   13   14      1.52      0.00
    0   14   14     -2.30      0.00
    1   14   14     -0.56      0.00
    2   14   14     -1.43      0.00
    3   14   14     -0.75      0.00
    4   14   14     -1.35      0.00
    1   15   14     -2.69      0.00
    2   15   14     -0.21      0.00
    1    1   15     19.71      0.00
    2    1   15      7.32      0.00
    3    1   15      9.51      0.00
    4    1   15      3.45      0.00
    5    1   15      4.91      0.00
    6    1   15      0.08      0.00
    7    1   15      2.48      0.00
    8    1   15      1.83      0.00
    9    1   15      1.15      0.00
    0    2   15     -3.58      0.00
    1    2   15     -4.06      0.00
    2    2   15     -0.57      0.00
    3    2   15     -3.74      0.00
    4    2   15      0.59      0.00
    5    2   15      2.25      0.00
    6    2   15     -1.53      0.00
    7    2   15      0.57      0.00
    8    2   15     -2.11      0.00
    9    2   15     -0.71      0.00
    1    3   15     -7.25      0.00
    2    3   15      1.80      0.00
    3    3   15     -2.96      0.00
    4    3   15     -1.44      0.00
    5    3   15      0.95      0.00
    6    3   15     -2.68      0.00
    7    3   15      2.82      0.00
    8    3   15     -0.18      0.00
    9    3   15      2.01      0.00
    0    4   15     -0.65      0.00
    1    4   15     -1.06      0.00
    2    4   15     -3.74      0.00
    3    4   15     -1.50      0.00
    4    4   15     -3.68      0.00
    5    4   15     -0.82      0.00
    6    4   15     -1.02      0.00
    7    4   15      0.70      0.00
    8    4   15     -1.50      0.00
    9    4   15      0.55      0.00
    1    5   15     -2.53      0.00
    2    5   15      0.77      0.00
    3    5   15     -0.89      0.00
    4    5   15      1.52      0.00
    5    5   15     -5.25      0.00
    6    5   15      1.27      0.00
    7    5   15     -4.87      0.00
    8    5   15     -1.96      0.00
    0    6   15      5.83      0.00
    1    6   15      1.39      0.00
    2    6   15      4.82      0.00
    3    6   15      1.11      0.00
    4    6   15      3.69      0.00
    5    6   15     -0.50      0.00
    6    6   15      4.70      0.00
    7    6   15      0.82      0.00
    8    6   15      2.71      0.00
    1    7   15      4.78      0.00
    2    7   15     -2.66      0.00
    3    7   15      4.33      0.00
    4    7   15     -0.94      0.00
    5    7   15      5.38      0.00
    6    7   15     -0.45      0.00
    7    7   15      2.66      0.00
    8    7   15     -0.30      0.00
    0    8   15     -6.74      0.00
    1    8   15      0.81      0.00
    2    8   15     -4.05      0.00
    3    8   15      1.17      0.00
    4    8   15     -3.48      0.00
    5    8   15      1.75      0.00
    6    8   15     -4.16      0.00
    7    8   15     -0.30      0.00
    1    9   15      1.84      0.00
    2    9   15      0.74      0.00
    3    9   15     -2.60      0.00
    4    9   15     -1.40      0.00
    5    9   15     -2.31      0.00
    6    9   15     -0.46      0.00
    7    9   15      0.21      0.00
    0   10   15     -3.66      0.00
    1   10   15     -0.53      0.00
    2   10   15     -2.06      0.00
    3   10   15      0.77      0.00
    4   10   15      1.61      0.00
    5   10   15     -0.45      0.00
    6   10   15      0.63      0.00
    7   10   15     -0.37      0.00
    1   11   15     -2.61      0.00
    2   11   15     -2.68      0.00
    3   11   15     -0.47      0.00
    4   11   15     -0.76      0.00
    5   11   15     -1.14      0.00
    6   11   15      1.05      0.00
    0   12   15      9.53      0.00
    1   12   15      2.11      0.00
    2   12   15      6.10      0.00
    3   12   15      2.62      0.00
    4   12   15      3.34      0.00
    5   12   15      0.09      0.00
    1   13   15     -0.95      0.00
    2   13   15     -0.97      0.00
    3   13   15     -0.65      0.00
    4   13   15     -0.20      0.00
    0   14   15     -4.85      0.00
    1   14   15     -0.51      0.00
    2   14   15     -4.26      0.00
    3   14   15     -0.19      0.00
    0    0   16     20.96      0.00
    1    0   16      6.41      0.00
    2    0   16     15.62      0.00
    3    0   16      8.02      0.00
    4    0   16      7.74      0.00
    5    0   16      0.94      0.00
    6    0   16      3.71      0.00
    7    0   16      0.87      0.00
    8    0   16      3.03      0.00
    1    1   16     -2.16      0.00
    2    1   16     -4.34      0.00
    3    1   16     -1.03      0.00
    4    1   16     -0.64      0.00
    5    1   16     -1.10      0.00
    6    1   16      1.39      0.00
    7    1   16     -1.17      0.00
    8    1   16     -0.37      0.00
    0    2   16    -13.25      0.00
    1    2   16     -1.48      0.00
    2    2   16     -8.72      0.00
    3    2   16     -2.58      0.00
    4    2   16     -2.76      0.00
    5    2   16     -1.77      0.00
    6    2   16     -1.08      0.00
    7    2   16     -1.40      0.00
    8    2   16      0.82      0.00
    1    3   16      0.10      0.00
    2    3   16      2.50      0.00
    3    3   16     -3.32      0.00
    4    3   16     -0.51      0.00
    5    3   16      0.00      0.00
    6    3   16     -1.47      0.00
    7    3   16      0.58      0.00
    8    3   16      1.55      0.00
    0    4   16      2.30      0.00
    1    4   16     -1.39      0.00
    2    4   16      2.46      0.00
    3    4   16     -0.30      0.00
    4    4   16     -1.02      0.00
    5    4   16      2.75      0.00
    6    4   16     -4.04      0.00
    7    4   16      0.03      0.00
    8    4   16     -3.24      0.00
    1    5   16      2.60      0.00
    2    5   16      2.90      0.00
    3    5   16      3.86      0.00
    4    5   16      0.68      0.00
    5    5   16      2.98      0.00
    6    5   16     -0.20      0.00
    7    5   16      2.87      0.00
    8    5   16      0.71      0.00
    0    6   16      6.01      0.00
    1    6   16     -2.00      0.00
    2    6   16      3.13      0.00
    3    6   16     -1.93      0.00
    4    6   16      3.97      0.00
    5    6   16     -1.33      0.00
    6    6   16      4.27      0.00
    7    6   16      0.38      0.00
    8    6   16      1.87      0.00
    1    7   16     -6.61      0.00
    2    7   16      0.11      0.00
    3    7   16     -3.41      0.00
    4    7   16      0.88      0.00
    5    7   16     -3.92      0.00
    6    7   16      0.35      0.00
    7    7   16     -3.26      0.00
    8    7   16     -0.86      0.00
    0    8   16     -1.14      0.00
    1    8   16      1.52      0.00
    2    8   16     -1.72      0.00
    3    8   16      0.21      0.00
    4    8   16     -4.58      0.00
    5    8   16      0.19      0.00
    6    8   16     -1.66      0.00
    7    8   16      0.36      0.00
    1    9   16      1.73      0.00
    2    9   16      0.02      0.00
    3    9   16      1.54      0.00
    4    9   16     -0.95      0.00
    5    9   16      3.38      0.00
    6    9   16     -1.54      0.00
    7    9   16      1.26      0.00
    0   10   16     -3.84      0.00
    1   10   16     -1.90      0.00
    2   10   16     -0.83      0.00
    3   10   16     -1.06      0.00
    4   10   16      0.46      0.00
    5   10   16      2.08      0.00
    6   10   16     -1.17      0.00
    1   11   16      6.09      0.00
    2   11   16      2.13      0.00
    3   11   16      2.36      0.00
    4   11   16     -0.19      0.00
    5   11   16      1.56      0.00
    0   12   16      0.60      0.00
    1   12   16      0.12      0.00
    2   12   16      0.32      0.00
    3   12   16      0.74      0.00
    4   12   16     -0.31      0.00
    5   12   16      0.02      0.00
    1   13   16     -6.34      0.00
    2   13   16     -1.66      0.00
    3   13   16     -3.38      0.00
    4   13   16     -1.08      0.00
    0   14   16      2.01      0.00
    1   14   16      0.44      0.00
    2   14   16      1.21      0.00
    1    1   17    -15.09      0.00
    2    1   17     -6.99      0.00
    3    1   17     -8.41      0.00
    4    1   17     -3.73      0.00
    5    1   17     -4.20      0.00
    6    1   17     -0.61      0.00
    7    1   17     -1.55      0.00
    8    1   17     -1.74      0.00
    0    2   17      1.83      0.00
    1    2   17      3.65      0.00
    2    2   17      0.56      0.00
    3    2   17      3.34      0.00
    4    2   17      0.66      0.00
    5    2   17     -1.68      0.00
    6    2   17      0.94      0.00
    7    2   17      0.44      0.00
    8    2   17      1.78      0.00
    1    3   17      6.40      0.00
    2    3   17     -0.80      0.00
    3    3   17      2.20      0.00
    4    3   17      1.86      0.00
    5    3   17     -0.97      0.00
    6    3   17      1.59      0.00
    7    3   17     -1.78      0.00
    8    3   17     -0.37      0.00
    0    4   17      0.22      0.00
    1    4   17      0.52      0.00
    2    4   17      2.98      0.00
    3    4   17      0.56      0.00
    4    4   17      3.04      0.00
    5    4   17      1.14      0.00
    6    4   17      0.74      0.00
    7    4   17     -0.14      0.00
    8    4   17      1.06      0.00
    1    5   17      1.58      0.00
    2    5   17     -0.40      0.00
    3    5   17      0.00      0.00
    4    5   17     -1.57      0.00
    5    5   17      3.81      0.00
    6    5   17     -1.38      0.00
    7    5   17      3.21      0.00
    8    5   17      1.09      0.00
    0    6   17     -4.15      0.00
    1    6   17     -1.49      0.00
    2    6   17     -3.47      0.00
    3    6   17     -0.99      0.00
    4    6   17     -2.61      0.00
    5    6   17      0.38      0.00
    6    6   17     -3.63      0.00
    7    6   17     -0.35      0.00
    8    6   17     -1.94      0.00
    1    7   17     -4.26      0.00
    2    7   17      2.35      0.00
    3    7   17     -3.33      0.00
    4    7   17      1.00      0.00
    5    7   17     -4.16      0.00
    6    7   17      0.61      0.00
    7    7   17     -0.76      0.00
    0    8   17      6.39      0.00
    1    8   17     -0.13      0.00
    2    8   17      3.60      0.00
    3    8   17     -0.64      0.00
    4    8   17      3.51      0.00
    5    8   17     -1.95      0.00
    6    8   17      2.73      0.00
    7    8   17      0.03      0.00
    1    9   17     -1.86      0.00
    2    9   17     -1.73      0.00
    3    9   17      1.19      0.00
    4    9   17      1.25      0.00
    5    9   17      0.95      0.00
    6    9   17      0.54      0.00
    0   10   17      2.63      0.00
    1   10   17      1.06      0.00
    2   10   17      2.18      0.00
    3   10   17     -0.18      0.00
    4   10   17     -0.74      0.00
    5   10   17      0.96      0.00
    6   10   17      0.30      0.00
    1   11   17      1.47      0.00
    2   11   17      2.04      0.00
    3   11   17     -0.35      0.00
    4   11   17     -0.32      0.00
    5   11   17      0.51      0.00
    0   12   17     -6.56      0.00
    1   12   17     -1.94      0.00
    2   12   17     -4.21      0.00
    3   12   17     -1.96      0.00
    4   12   17     -2.33      0.00
    1   13   17      0.76      0.00
    2   13   17      1.26      0.00
    3   13   17      0.97      0.00
    0    0   18    -16.03      0.00
    1    0   18     -5.68      0.00
    2    0   18    -13.05      0.00
    3    0   18     -7.80      0.00
    4    0   18     -7.32      0.00
    5    0   18     -2.09      0.00
    6    0   18     -2.35      0.00
    7    0   18     -2.10      0.00
    8    0   18     -1.93      0.00
    1    1   18      1.79      0.00
    2    1   18      3.66      0.00
    3    1   18      1.65      0.00
    4    1   18      1.03      0.00
    5    1   18      1.25      0.00
    6    1   18      0.08      0.00
    7    1   18      0.39      0.00
    8    1   18      0.98      0.00
    0    2   18     10.07      0.00
    1    2   18      1.76      0.00
    2    2   18      7.00      0.00
    3    2   18      3.05      0.00
    4    2   18      2.22      0.00
    5    2   18      1.01      0.00
    6    2   18      0.93      0.00
    7    2   18      0.49      0.00
    8    2   18     -0.49      0.00
    1    3   18      0.16      0.00
    2    3   18     -2.82      0.00
    3    3   18      2.14      0.00
    4    3   18      0.64      0.00
    5    3   18     -0.18      0.00
    6    3   18      1.52      0.00
    7    3   18     -0.36      0.00
    8    3   18     -0.95      0.00
    0    4   18     -2.54      0.00
    1    4   18      1.25      0.00
    2    4   18     -2.40      0.00
    3    4   18     -0.26      0.00
    4    4   18      0.65      0.00
    5    4   18     -2.65      0.00
    6    4   18      2.53      0.00
    7    4   18      0.17      0.00
    8    4   18      2.20      0.00
    1    5   18     -1.28      0.00
    2    5   18     -1.98      0.00
    3    5   18     -2.82      0.00
    4    5   18     -0.36      0.00
    5    5   18     -1.96      0.00
    6    5   18     -0.01      0.00
    7    5   18     -2.07      0.00
    0    6   18     -5.63      0.00
    1    6   18      1.35      0.00
    2    6   18     -2.32      0.00
    3    6   18      1.39      0.00
    4    6   18     -3.05      0.00
    5    6   18      1.31      0.00
    6    6   18     -2.68      0.00
    7    6   18     -0.22      0.00
    1    7   18      5.58      0.00
    2    7   18      0.58      0.00
    3    7   18      2.84      0.00
    4    7   18     -0.66      0.00
    5    7   18      3.26      0.00
    6    7   18     -0.45      0.00
    7    7   18      2.04      0.00
    0    8   18      1.10      0.00
    1    8   18     -1.82      0.00
    2    8   18      0.82      0.00
    3    8   18     -0.56      0.00
    4    8   18      3.03      0.00
    5    8   18     -0.41      0.00
    6    8   18      0.20      0.00
    1    9   18     -1.40      0.00
    2    9   18     -0.10      0.00
    3    9   18     -1.02      0.00
    4    9   18      1.36      0.00
    5    9   18     -2.28      0.00
    6    9   18      1.59      0.00
    0   10   18      2.23      0.00
    1   10   18      2.21      0.00
    2   10   18      0.45      0.00
    3   10   18      0.87      0.00
    4   10   18      0.01      0.00
    5   10   18     -2.43      0.00
    1   11   18     -4.05      0.00
    2   11   18     -2.47      0.00
    3   11   18     -2.25      0.00
    4   11   18      0.27      0.00
    0   12   18     -0.34      0.00
    1   12   18      0.48      0.00
    2   12   18      0.58      0.00
    3   12   18     -0.09      0.00
    1   13   18      3.86      0.00
    2   13   18      0.87      0.00
    1    1   19     11.86      0.00
    2    1   19      6.58      0.00
    3    1   19      7.42      0.00
    4    1   19      3.83      0.00
    5    1   19      3.40      0.00
    6    1   19      1.13      0.00
    7    1   19      0.62      0.00
    8    1   19      1.44      0.00
    0    2   19     -1.42      0.00
    1    2   19     -3.30      0.00
    2    2   19     -1.14      0.00
    3    2   19     -3.18      0.00
    4    2   19     -1.24      0.00
    5    2   19      0.78      0.00
    6    2   19     -0.28      0.00
    7    2   19     -1.30      0.00
    1    3   19     -5.15      0.00
    2    3   19      0.19      0.00
    3    3   19     -1.82      0.00
    4    3   19     -1.47      0.00
    5    3   19      0.41      0.00
    6    3   19     -0.33      0.00
    7    3   19      0.66      0.00
    0    4   19      0.42      0.00
    1    4   19      0.08      0.00
    2    4   19     -1.79      0.00
    3    4   19     -0.19      0.00
    4    4   19     -1.89      0.00
    5    4   19     -1.73      0.00
    6    4   19     -0.26      0.00
    7    4   19     -0.35      0.00
    1    5   19     -1.52      0.00
    2    5   19      0.07      0.00
    3    5   19      0.15      0.00
    4    5   19      1.86      0.00
    5    5   19     -2.65      0.00
    6    5   19      1.53      0.00
    7    5   19     -1.93      0.00
    0    6   19      3.01      0.00
    1    6   19      1.37      0.00
    2    6   19      2.71      0.00
    3    6   19      0.59      0.00
    4    6   19      1.89      0.00
    5    6   19     -0.60      0.00
    6    6   19      2.73      0.00
    7    6   19     -0.13      0.00
    1    7   19      3.56      0.00
    2    7   19     -1.70      0.00
    3    7   19      2.02      0.00
    4    7   19     -0.74      0.00
    5    7   19      2.74      0.00
    6    7   19     -0.21      0.00
    0    8   19     -5.11      0.00
    1    8   19     -0.53      0.00
    2    8   19     -2.61      0.00
    3    8   19      0.18      0.00
    4    8   19     -2.92      0.00
    5    8   19      1.57      0.00
    6    8   19     -1.26      0.00
    1    9   19      0.90      0.00
    2    9   19      2.37      0.00
    3    9   19     -0.29      0.00
    4    9   19     -0.84      0.00
    5    9   19     -0.29      0.00
    0   10   19     -1.38      0.00
    1   10   19     -1.43      0.00
    2   10   19     -1.95      0.00
    3   10   19     -0.46      0.00
    4   10   19      0.12      0.00
    5   10   19     -1.33      0.00
    1   11   19     -0.30      0.00
    2   11   19     -1.25      0.00
    3   11   19      0.87      0.00
    0   12   19      3.43      0.00
    1   12   19      1.53      0.00
    2   12   19      2.45      0.00
    0    0   20     12.44      0.00
    1    0   20      4.98      0.00
    2    0   20     10.72      0.00
    3    0   20      7.48      0.00
    4    0   20      5.88      0.00
    5    0   20      2.91      0.00
    6    0   20      1.08      0.00
    7    0   20      2.68      0.00
    1    1   20     -1.69      0.00
    2    1   20     -3.31      0.00
    3    1   20     -1.52      0.00
    4    1   20     -1.63      0.00
    5    1   20     -0.79      0.00
    6    1   20     -1.16      0.00
    7    1   20      0.29      0.00
    0    2   20     -7.71      0.00
    1    2   20     -1.70      0.00
    2    2   20     -5.97      0.00
    3    2   20     -2.65      0.00
    4    2   20     -2.31      0.00
    5    2   20     -0.12      0.00
    6    2   20     -0.93      0.00
    7    2   20      0.16      0.00
    1    3   20      0.61      0.00
    2    3   20      2.73      0.00
    3    3   20     -0.54      0.00
    4    3   20     -0.92      0.00
    5    3   20      0.48      0.00
    6    3   20     -1.45      0.00
    7    3   20      0.09      0.00
    0    4   20      1.73      0.00
    1    4   20     -1.11      0.00
    2    4   20      1.46      0.00
    3    4   20      0.53      0.00
    4    4   20     -0.40      0.00
    5    4   20      2.30      0.00
    6    4   20     -1.34      0.00
    7    4   20     -0.33      0.00
    1    5   20      0.52      0.00
    2    5   20      1.18      0.00
    3    5   20      2.07      0.00
    4    5   20      0.24      0.00
    5    5   20      1.13      0.00
    6    5   20      0.06      0.00
    0    6   20      5.16      0.00
    1    6   20     -0.61      0.00
    2    6   20      1.61      0.00
    3    6   20     -0.96      0.00
    4    6   20      1.97      0.00
    5    6   20     -1.08      0.00
    6    6   20      1.37      0.00
    1    7   20     -4.27      0.00
    2    7   20     -0.98      0.00
    3    7   20     -2.10      0.00
    4    7   20      0.51      0.00
    5    7   20     -2.35      0.00
    6    7   20      0.37      0.00
    0    8   20     -1.44      0.00
    1    8   20      1.80      0.00
    2    8   20     -0.31      0.00
    3    8   20      0.70      0.00
    4    8   20     -1.68      0.00
    5    8   20      0.38      0.00
    1    9   20      0.87      0.00
    2    9   20      0.03      0.00
    3    9   20      0.36      0.00
    4    9   20     -1.38      0.00
    5    9   20      1.25      0.00
    0   10   20     -0.18      0.00
    1   10   20     -2.10      0.00
    2   10   20      0.17      0.00
    3   10   20     -0.64      0.00
    4   10   20     -0.03      0.00
    1   11   20      1.87      0.00
    2   11   20      2.35      0.00
    1    1   21     -9.28      0.00
    2    1   21     -5.69      0.00
    3    1   21     -6.13      0.00
    4    1   21     -3.44      0.00
    5    1   21     -2.45      0.00
    6    1   21     -1.22      0.00
    7    1   21      0.12      0.00
    0    2   21      1.45      0.00
    1    2   21      2.88      0.00
    2    2   21      1.69      0.00
    3    2   21      3.01      0.00
    4    2   21      1.10      0.00
    5    2   21     -0.16      0.00
    6    2   21     -0.15      0.00
    1    3   21      3.91      0.00
    2    3   21     -0.22      0.00
    3    3   21      1.74      0.00
    4    3   21      0.73      0.00
    5    3   21      0.22      0.00
    6    3   21     -0.36      0.00
    0    4   21     -1.27      0.00
    1    4   21     -0.32      0.00
    2    4   21      0.39      0.00
    3    4   21      0.33      0.00
    4    4   21      0.72      0.00
    5    4   21      1.90      0.00
    6    4   21     -0.02      0.00
    1    5   21      2.00      0.00
    2    5   21      0.09      0.00
    3    5   21      0.06      0.00
    4    5   21     -1.87      0.00
    5    5   21      1.66      0.00
    6    5   21     -1.22      0.00
    0    6   21     -2.27      0.00
    1    6   21     -1.09      0.00
    2    6   21     -2.28      0.00
    3    6   21     -0.24      0.00
    4    6   21     -1.38      0.00
    5    6   21      0.61      0.00
    1    7   21     -2.76      0.00
    2    7   21      1.02      0.00
    3    7   21     -0.61      0.00
    4    7   21      0.44      0.00
    5    7   21     -1.46      0.00
    0    8   21      3.41      0.00
    1    8   21      0.86      0.00
    2    8   21      1.30      0.00
    3    8   21      0.06      0.00
    4    8   21      1.80      0.00
    1    9   21      0.46      0.00
    2    9   21     -2.40      0.00
    3    9   21      0.06      0.00
    4    9   21      0.41      0.00
    0   10   21      0.09      0.00
    1   10   21      1.49      0.00
    2   10   21      1.25      0.00
    1   11   21     -0.34      0.00
    0    0   22     -8.91      0.00
    1    0   22     -4.03      0.00
    2    0   22     -8.08      0.00
    3    0   22     -6.48      0.00
    4    0   22     -3.82      0.00
    5    0   22     -2.64      0.00
    6    0   22     -0.31      0.00
    1    1   22      1.23      0.00
    2    1   22      3.00      0.00
    3    1   22      0.89      0.00
    4    1   22      1.80      0.00
    5    1   22      0.28      0.00
    6    1   22      1.21      0.00
    0    2   22      5.97      0.00
    1    2   22      1.19      0.00
    2    2   22      5.13      0.00
    3    2   22      1.67      0.00
    4    2   22      2.28      0.00
    5    2   22     -0.28      0.00
    6    2   22      0.65      0.00
    1    3   22     -1.53      0.00
    2    3   22     -2.11      0.00
    3    3   22     -0.69      0.00
    4    3   22      1.01      0.00
    5    3   22     -0.55      0.00
    6    3   22      0.99      0.00
    0    4   22     -0.68      0.00
    1    4   22      0.96      0.00
    2    4   22     -0.40      0.00
    3    4   22     -0.47      0.00
    4    4   22      0.13      0.00
    5    4   22     -1.62      0.00
    1    5   22     -0.10      0.00
    2    5   22     -0.70      0.00
    3    5   22     -1.53      0.00
    4    5   22     -0.28      0.00
    5    5   22     -0.56      0.00
    0    6   22     -4.50      0.00
    1    6   22      0.09      0.00
    2    6   22     -0.93      0.00
    3    6   22      0.64      0.00
    4    6   22     -0.81      0.00
    5    6   22      0.65      0.00
    1    7   22      2.86      0.00
    2    7   22      0.97      0.00
    3    7   22      1.13      0.00
    4    7   22     -0.29      0.00
    0    8   22      1.85      0.00
    1    8   22     -1.48      0.00
    2    8   22      0.23      0.00
    3    8   22     -0.65      0.00
    1    9   22     -0.59      0.00
    2    9   22      0.12      0.00
    1   10   22      1.62      0.00
    1    1   23      6.60      0.00
    2    1   23      4.19      0.00
    3    1   23      4.42      0.00
    4    1   23      2.56      0.00
    5    1   23      1.45      0.00
    0    2   23     -0.98      0.00
    1    2   23     -2.21      0.00
    2    2   23     -1.69      0.00
    3    2   23     -2.47      0.00
    4    2   23     -0.60      0.00
    5    2   23      0.03      0.00
    1    3   23     -2.92      0.00
    2    3   23      0.55      0.00
    3    3   23     -1.55      0.00
    4    3   23     -0.17      0.00
    5    3   23     -0.40      0.00
    0    4   23      1.79      0.00
    1    4   23      0.20      0.00
    2    4   23      0.53      0.00
    3    4   23     -0.57      0.00
    4    4   23     -0.14      0.00
    5    4   23     -1.39      0.00
    1    5   23     -2.21      0.00
    2    5   23     -0.09      0.00
    3    5   23     -0.04      0.00
    4    5   23      1.36      0.00
    0    6   23      1.61      0.00
    1    6   23      0.74      0.00
    2    6   23      1.70      0.00
    3    6   23      0.04      0.00
    4    6   23      0.80      0.00
    1    7   23      2.10      0.00
    2    7   23     -0.47      0.00
    3    7   23     -0.39      0.00
    0    8   23     -2.08      0.00
    1    8   23     -0.81      0.00
    2    8   23     -0.29      0.00
    1    9   23     -1.27      0.00
    0    0   24      5.06      0.00
    1    0   24      2.66      0.00
    2    0   24      5.19      0.00
    3    0   24      4.68      0.00
    4    0   24      1.89      0.00
    1    1   24     -0.40      0.00
    2    1   24     -2.31      0.00
    3    1   24     -0.30      0.00
    4    1   24     -1.37      0.00
    0    2   24     -4.32      0.00
    1    2   24     -0.51      0.00
    2    2   24     -3.90      0.00
    3    2   24     -0.72      0.00
    4    2   24     -1.65      0.00
    1    3   24      1.65      0.00
    2    3   24      1.21      0.00
    3    3   24      0.99      0.00
    4    3   24     -0.78      0.00
    0    4   24      0.14      0.00
    1    4   24     -0.76      0.00
    2    4   24     -0.18      0.00
    3    4   24      0.27      0.00
    4    4   24      0.18      0.00
    1    5   24     -0.14      0.00
    2    5   24      0.43      0.00
    3    5   24      1.05      0.00
    0    6   24      3.57      0.00
    1    6   24      0.13      0.00
    3    6   24     -0.39      0.00
    1    7   24     -1.65      0.00
    1    1   25     -3.77      0.00
    2    1   25     -2.40      0.00
    3    1   25     -2.53      0.00
    0    2   25     -0.03      0.00
    1    2   25      1.31      0.00
    2    2   25      1.17      0.00
    3    2   25      1.60      0.00
    1    3   25      2.06      0.00
    2    3   25     -0.67      0.00
    3    3   25      1.07      0.00
    0    4   25     -1.57      0.00
    1    4   25      0.01      0.00
    2    4   25     -0.68      0.00
    3    4   25      0.58      0.00
    1    5   25      1.78      0.00
    2    5   25      0.02      0.00
    9   11    0      1.73      0.00
    0   18    0     -2.33      0.00
    2   18    0     -1.08      0.00
   11    6    1     -0.02      0.00
   10    9    1     -0.16      0.00
    9   11    1     -0.61      0.00
    8   13    1      0.14      0.00
    0   18    1     -0.31      0.00
    2   18    1     -0.11      0.00
   10    9    2     -0.04      0.00
    9   11    2     -1.59      0.00
    8   13    2     -0.46      0.00
    4   17    2      0.02      0.00
    0   18    2      2.30      0.00
    1   18    2      0.17      0.00
    2   18    2      1.13      0.00
   10    9    3      0.30      0.00
    9   11    3      0.69      0.00
    8   13    3     -0.39      0.00
    4   17    3      0.32      0.00
    0   18    3     -0.34      0.00
    1   18    3     -0.82      0.00
   11    5    4     -0.04      0.00
   10    9    4      0.01      0.00
    9   11    4      1.20      0.00
    8   13    4      0.65      0.00
    4   17    4      0.09      0.00
    0   18    4     -2.04      0.00
    1   18    4     -0.36      0.00
   11    5    5      0.17      0.00
    9   11    5     -0.69      0.00
    0   18    5      0.85      0.00
   11    4    6      1.34      0.00
   10    8    6      1.32      0.00
    7   14    6      0.20      0.00
    5   16    6     -0.73      0.00
   11    3    7      0.31      0.00
   10    8    7     -0.09      0.00
    9   10    7     -0.73      0.00
    3   17    7      0.00      0.00
   11    2    8      0.77      0.00
    9   10    8      0.06      0.00
    8   12    8     -0.73      0.00
    7   13    8     -1.78      0.00
    2   17    8      0.27      0.00
   10    7    9      1.00      0.00
    4   16    9     -1.75      0.00
   10    6   10     -0.97      0.00
    9    9   10     -0.84      0.00
    6   14   10      0.05      0.00
    5   15   10     -2.05      0.00
   10    4   11     -0.51      0.00
   10    5   11     -1.76      0.00
    8   11   11      1.00      0.00
    3   16   11     -0.04      0.00
    9    8   12      1.58      0.00
    7   12   12     -0.74      0.00
    4   15   12      0.15      0.00
    0   16   12     -0.43      0.00
    2   16   12     -0.48      0.00
   10    1   13     -0.64      0.00
   10    2   13     -0.57      0.00
   10    3   13      0.26      0.00
    3   15   13     -0.99      0.00
    0   16   13     -1.62      0.00
    8    9   14      0.19      0.00
    7   11   14     -1.28      0.00
    5   13   14      2.28      0.00
    9    5   15     -1.42      0.00
    8    8   15     -1.97      0.00
    5   13   15     -1.22      0.00
    1   15   15      1.37      0.00
    9    0   16      1.14      0.00
    9    1   16     -1.48      0.00
    9    2   16     -1.01      0.00
    9    3   16      0.03      0.00
    9    4   16     -1.03      0.00
    6   11   16     -0.32      0.00
    0   14   17      3.26      0.00
    1   14   17      0.03      0.00
    8    5   18     -0.43      0.00
    5   11   18     -1.27      0.00
    4   12   18      0.90      0.00
    8    2   19     -1.00      0.00
    4   11   19      1.08      0.00
    3   12   19      1.21      0.00
    7    5   20      1.25      0.00
    3   11   20      1.75      0.00
    0   12   20      0.34      0.00
    1   12   20     -0.74      0.00
    7    2   21      1.52      0.00
    6    6   21     -1.78      0.00
    5    8   21     -0.93      0.00
    3   10   21      0.81      0.00
    6    4   22      0.52      0.00
    4    8   22      0.77      0.00
    3    9   22      0.13      0.00
    0   10   22     -1.14      0.00
    2   10   22     -0.52      0.00
    5    5   23     -0.71      0.00
    4    7   23     -0.28      0.00
    3    8   23     -0.04      0.00
    5    0   24      1.59      0.00
    5    1   24     -0.12      0.00
    5    2   24      0.14      0.00
    4    5   24      0.32      0.00
    2    6   24      0.35      0.00
    2    7   24     -0.60      0.00
    0    8   24     -1.88      0.00
    1    8   24      0.91      0.00
    4    1   25     -1.54      0.00
    4    2   25      0.12      0.00
    0    6   25     -1.00      0.00
    1    6   25     -0.34      0.00
    0    0    0      0.00      0.00
# SQUEEZE RESULTS (Version = 280317)
# Note: Data are Listed for all Voids in the P1 Unit Cell
# i.e. Centre of Gravity, Solvent Accessible Volume,
# Recovered number of Electrons in the Void and
# Details about the Squeezed Material
loop_
  _platon_squeeze_void_nr
  _platon_squeeze_void_average_x
  _platon_squeeze_void_average_y
  _platon_squeeze_void_average_z
  _platon_squeeze_void_volume
  _platon_squeeze_void_count_electrons
  _platon_squeeze_void_content
   1  0.000  0.356  0.250        95        39 ' '
   2  0.000  0.644  0.750        94        39 ' '
   3  0.500  0.144  0.750        94        39 ' '
   4  0.500  0.856  0.250        95        39 ' '
_platon_squeeze_void_probe_radius                  1.20
_platon_squeeze_details
)
TITL 171108i   P b c n      R = 0.15
CELL    9.4211   14.8334   21.6671     90.00     90.00     90.00
SPGR Pbcn
# Solvent Accessible Volume =       378
# Electrons Found in S.A.V. =       154
# Note: Atoms in Void are Labelled as Cxxx and Qxxx for all Others
C101 0.500 0.688 0.254 !       9.92 eA-3
C102 1.000 0.344 0.251 !       9.66 eA-3
C103 0.065 0.269 0.242 !       4.47 eA-3
C104 0.359 0.858 0.243 !       3.38 eA-3
C105 0.094 0.576 0.733 !       2.92 eA-3
Q106 0.946 0.658 0.308 !       1.28 eA-3
Q107 0.580 0.202 0.197 !       1.10 eA-3
Q108 0.163 0.736 0.732 !       0.89 eA-3
C109 0.426 0.122 0.782 !       0.82 eA-3
Q110 0.427 0.249 0.257 !       0.77 eA-3
Q111 0.872 0.891 0.539 !       0.76 eA-3
C112 0.685 0.096 0.728 !       0.75 eA-3
Q113 0.760 0.103 0.049 !       0.72 eA-3
Q114 0.443 0.819 0.203 !       0.67 eA-3
Q115 0.500 0.211 0.702 !       0.67 eA-3
Q116 0.441 0.688 0.499 !       0.63 eA-3
Q117 0.763 0.888 0.439 !       0.60 eA-3
Q118 0.745 0.012 0.117 !       0.58 eA-3
Q119 0.983 0.238 0.201 !       0.57 eA-3
Q120 0.500 0.707 0.065 !       0.57 eA-3
Q121 0.884 0.503 0.088 !       0.57 eA-3
Q122 0.311 0.470 0.608 !       0.55 eA-3
Q123 0.896 0.895 0.438 !       0.55 eA-3
Q124 0.310 0.423 0.912 !       0.52 eA-3
Q125 0.354 0.443 0.062 !       0.52 eA-3
Q126 0.060 0.564 0.423 !       0.52 eA-3
)
;
_shelx_fab_checksum              31037
_platon_squeeze_void_probe_radius 1.20
_olex2_submission_special_instructions 'No special instructions were received'
_oxdiff_exptl_absorpt_empirical_details
;
Empirical correction (ABSPACK) includes:
- Absorption correction using spherical harmonics
- Frame scaling
;
_oxdiff_exptl_absorpt_empirical_full_max 1.850
_oxdiff_exptl_absorpt_empirical_full_min 0.342
loop_
_space_group_symop_operation_xyz
'x, y, z'
'-x+1/2, -y+1/2, z+1/2'
'-x, y, -z+1/2'
'x+1/2, -y+1/2, -z'
'-x, -y, -z'
'x-1/2, y-1/2, -z-1/2'
'x, -y, z-1/2'
'-x-1/2, y-1/2, z'
loop_
_atom_site_label
_atom_site_type_symbol
_atom_site_fract_x
_atom_site_fract_y
_atom_site_fract_z
_atom_site_U_iso_or_equiv
_atom_site_adp_type
_atom_site_occupancy
_atom_site_site_symmetry_order
_atom_site_calc_flag
_atom_site_refinement_flags_posn
_atom_site_refinement_flags_adp
_atom_site_refinement_flags_occupancy
Cu1 Cu 0.31764(7) 0.60765(4) 0.51101(3) 0.0273(3) Uani 1 1 d . . .
Cl1 Cl 0.500000 0.82045(11) 0.750000 0.0575(6) Uani 1 2 d S T P
N5 N 0.4732(4) 0.6968(2) 0.49256(16) 0.0270(8) Uani 1 1 d . . .
N6 N 0.6429(4) 0.8003(2) 0.47493(16) 0.0271(8) Uani 1 1 d . . .
N3 N 0.2311(4) 0.4809(2) 0.51601(17) 0.0299(8) Uani 1 1 d . . .
N2 N 0.3646(4) 0.5802(2) 0.59863(17) 0.0289(8) Uani 1 1 d . . .
N4 N 0.3052(4) 0.6051(2) 0.41835(19) 0.0326(9) Uani 1 1 d . . .
N1 N 0.4398(4) 0.5516(2) 0.69433(17) 0.0348(9) Uani 1 1 d . . .
H1 H 0.479523 0.559401 0.730701 0.042 Uiso 0.5 1 calc R . .
C11 C 0.5713(5) 0.7519(3) 0.5175(2) 0.0286(10) Uani 1 1 d . . .
H11 H 0.588432 0.756122 0.560579 0.034 Uiso 1 1 calc R . .
C3 C 0.3247(5) 0.4932(3) 0.6145(2) 0.0301(10) Uani 1 1 d . . .
C9 C 0.4833(5) 0.7125(3) 0.4298(2) 0.0300(9) Uani 1 1 d . . .
C10 C 0.5873(5) 0.7753(3) 0.4198(2) 0.0296(9) Uani 1 1 d . . .
H10 H 0.615933 0.797639 0.380589 0.036 Uiso 1 1 calc R . .
C1 C 0.4327(5) 0.6126(3) 0.6473(2) 0.0313(10) Uani 1 1 d . . .
H1A H 0.472101 0.671467 0.649178 0.038 Uiso 1 1 calc R . .
C4 C 0.2529(5) 0.4427(3) 0.5682(2) 0.0344(10) Uani 1 1 d . . .
H4 H 0.222148 0.382671 0.575687 0.041 Uiso 1 1 calc R . .
C8 C 0.3914(5) 0.6593(3) 0.3907(2) 0.0327(10) Uani 1 1 d . . .
H8 H 0.394374 0.663926 0.346953 0.039 Uiso 1 1 calc R . .
C5 C 0.1563(5) 0.4328(3) 0.4670(2) 0.0337(10) Uani 1 1 d . . .
H5A H 0.056187 0.453058 0.465910 0.040 Uiso 1 1 calc R . .
H5B H 0.156771 0.367434 0.476260 0.040 Uiso 1 1 calc R . .
C2 C 0.3721(6) 0.4757(3) 0.6733(2) 0.0354(11) Uani 1 1 d . . .
H2 H 0.360201 0.420888 0.695341 0.042 Uiso 1 1 calc R . .
C7 C 0.2116(6) 0.5469(3) 0.3821(2) 0.0386(11) Uani 1 1 d . . .
H7A H 0.238838 0.549885 0.338000 0.046 Uiso 1 1 calc R . .
H7B H 0.112387 0.568259 0.385883 0.046 Uiso 1 1 calc R . .
C6 C 0.2219(6) 0.4479(3) 0.4050(2) 0.0404(12) Uani 1 1 d . . .
H6A H 0.174728 0.408110 0.374638 0.049 Uiso 1 1 calc R . .
H6B H 0.323198 0.430366 0.406938 0.049 Uiso 1 1 calc R . .
O1 O 0.5801(7) 0.8708(6) 0.7892(4) 0.153(4) Uani 1 1 d . . .
O2 O 0.5948(6) 0.7676(5) 0.7171(4) 0.156(4) Uani 1 1 d . . .
loop_
_atom_site_aniso_label
_atom_site_aniso_U_11
_atom_site_aniso_U_22
_atom_site_aniso_U_33
_atom_site_aniso_U_23
_atom_site_aniso_U_13
_atom_site_aniso_U_12
Cu1 0.0366(4) 0.0165(4) 0.0288(4) 0.0005(2) -0.0030(3) -0.0019(2)
Cl1 0.0576(12) 0.0256(8) 0.0893(16) 0.000 -0.0136(11) 0.000
N5 0.035(2) 0.0177(16) 0.0282(19) 0.0020(13) -0.0023(15) 0.0010(15)
N6 0.036(2) 0.0191(17) 0.0264(18) 0.0023(13) 0.0027(15) -0.0034(15)
N3 0.039(2) 0.0172(17) 0.033(2) -0.0039(14) -0.0025(17) -0.0010(15)
N2 0.037(2) 0.0165(16) 0.033(2) 0.0023(14) -0.0002(16) 0.0008(15)
N4 0.039(2) 0.026(2) 0.032(2) -0.0013(15) -0.0024(17) -0.0001(16)
N1 0.053(3) 0.0266(19) 0.0251(19) 0.0022(14) -0.0014(17) 0.0015(17)
C11 0.039(3) 0.0176(19) 0.029(2) 0.0011(15) -0.0019(19) 0.0007(18)
C3 0.042(3) 0.0136(18) 0.034(2) 0.0028(16) -0.0032(19) 0.0009(17)
C9 0.040(3) 0.0223(19) 0.028(2) -0.0026(16) 0.0026(19) 0.0011(18)
C10 0.039(2) 0.023(2) 0.027(2) 0.0021(16) 0.0032(18) -0.0009(18)
C1 0.039(3) 0.025(2) 0.030(2) 0.0026(16) -0.0052(19) -0.0007(18)
C4 0.042(3) 0.019(2) 0.042(3) 0.0000(18) -0.002(2) 0.0013(19)
C8 0.044(3) 0.027(2) 0.028(2) -0.0041(17) -0.001(2) -0.002(2)
C5 0.042(3) 0.020(2) 0.039(3) -0.0074(18) -0.005(2) -0.0039(18)
C2 0.052(3) 0.021(2) 0.033(2) 0.0027(17) 0.000(2) 0.001(2)
C7 0.054(3) 0.032(2) 0.030(2) -0.0057(19) -0.011(2) -0.009(2)
C6 0.046(3) 0.028(2) 0.047(3) -0.007(2) -0.006(2) -0.003(2)
O1 0.089(5) 0.197(7) 0.173(7) -0.122(6) -0.005(4) -0.046(5)
O2 0.066(3) 0.146(6) 0.257(9) -0.145(6) -0.018(4) 0.017(4)
loop_
_atom_type_symbol
_atom_type_description
_atom_type_scat_dispersion_real
_atom_type_scat_dispersion_imag
_atom_type_scat_source
C C 0.0181 0.0091 'International Tables Vol C Tables 4.2.6.8 and 6.1.1.4'
H H 0.0000 0.0000 'International Tables Vol C Tables 4.2.6.8 and 6.1.1.4'
Cl Cl 0.3639 0.7018 'International Tables Vol C Tables 4.2.6.8 and 6.1.1.4'
Cu Cu -1.9646 0.5888 'International Tables Vol C Tables 4.2.6.8 and 6.1.1.4'
N N 0.0311 0.0180 'International Tables Vol C Tables 4.2.6.8 and 6.1.1.4'
O O 0.0492 0.0322 'International Tables Vol C Tables 4.2.6.8 and 6.1.1.4'
loop_
_geom_angle_atom_site_label_1
_geom_angle_atom_site_label_2
_geom_angle_atom_site_label_3
_geom_angle
_geom_angle_site_symmetry_1
_geom_angle_site_symmetry_3
N5 Cu1 N6 99.64(14) . 4_466
N5 Cu1 N3 154.32(15) . .
N3 Cu1 N6 105.59(15) . 4_466
N2 Cu1 N5 99.31(15) . .
N2 Cu1 N6 99.45(14) . 4_466
N2 Cu1 N3 81.41(15) . .
N2 Cu1 N4 163.86(15) . .
N4 Cu1 N5 81.78(14) . .
N4 Cu1 N6 96.21(14) . 4_466
N4 Cu1 N3 90.69(15) . .
O1 Cl1 O1 113.4(9) 3_656 .
O1 Cl1 O2 110.3(6) 3_656 .
O1 Cl1 O2 105.9(4) 3_656 3_656
O1 Cl1 O2 105.9(4) . .
O1 Cl1 O2 110.3(6) . 3_656
O2 Cl1 O2 111.0(8) . 3_656
C11 N5 Cu1 144.9(3) . .
C11 N5 C9 104.2(4) . .
C9 N5 Cu1 110.8(3) . .
C11 N6 Cu1 128.4(3) . 4_566
C11 N6 C10 105.3(4) . .
C10 N6 Cu1 126.2(3) . 4_566
C4 N3 Cu1 112.8(3) . .
C4 N3 C5 120.2(4) . .
C5 N3 Cu1 126.9(3) . .
C3 N2 Cu1 111.5(3) . .
C1 N2 Cu1 142.4(3) . .
C1 N2 C3 105.7(4) . .
C8 N4 Cu1 114.5(3) . .
C8 N4 C7 119.8(4) . .
C7 N4 Cu1 125.6(3) . .
C1 N1 H1 127.1 . .
C1 N1 C2 105.8(4) . .
C2 N1 H1 127.1 . .
N5 C11 N6 113.1(4) . .
N5 C11 H11 123.4 . .
N6 C11 H11 123.4 . .
N2 C3 C4 116.3(4) . .
C2 C3 N2 108.6(4) . .
C2 C3 C4 135.1(4) . .
N5 C9 C8 116.3(4) . .
C10 C9 N5 108.7(4) . .
C10 C9 C8 135.0(4) . .
N6 C10 C9 108.8(4) . .
N6 C10 H10 125.6 . .
C9 C10 H10 125.6 . .
N2 C1 N1 112.2(4) . .
N2 C1 H1A 123.9 . .
N1 C1 H1A 123.9 . .
N3 C4 C3 117.7(4) . .
N3 C4 H4 121.1 . .
C3 C4 H4 121.1 . .
N4 C8 C9 116.4(4) . .
N4 C8 H8 121.8 . .
C9 C8 H8 121.8 . .
N3 C5 H5A 109.1 . .
N3 C5 H5B 109.1 . .
N3 C5 C6 112.3(4) . .
H5A C5 H5B 107.9 . .
C6 C5 H5A 109.1 . .
C6 C5 H5B 109.1 . .
N1 C2 C3 107.7(4) . .
N1 C2 H2 126.2 . .
C3 C2 H2 126.2 . .
N4 C7 H7A 109.6 . .
N4 C7 H7B 109.6 . .
N4 C7 C6 110.3(4) . .
H7A C7 H7B 108.1 . .
C6 C7 H7A 109.6 . .
C6 C7 H7B 109.6 . .
C5 C6 C7 113.8(4) . .
C5 C6 H6A 108.8 . .
C5 C6 H6B 108.8 . .
C7 C6 H6A 108.8 . .
C7 C6 H6B 108.8 . .
H6A C6 H6B 107.7 . .
loop_
_geom_bond_atom_site_label_1
_geom_bond_atom_site_label_2
_geom_bond_distance
_geom_bond_site_symmetry_2
Cu1 N5 2.014(4) .
Cu1 N6 2.160(4) 4_466
Cu1 N3 2.053(4) .
Cu1 N2 1.991(4) .
Cu1 N4 2.011(4) .
Cl1 O1 1.360(6) .
Cl1 O1 1.360(5) 3_656
Cl1 O2 1.386(6) .
Cl1 O2 1.386(6) 3_656
N5 C11 1.346(5) .
N5 C9 1.383(5) .
N6 C11 1.349(5) .
N6 C10 1.357(6) .
N3 C4 1.281(6) .
N3 C5 1.461(6) .
N2 C3 1.387(5) .
N2 C1 1.324(6) .
N4 C8 1.291(6) .
N4 C7 1.463(6) .
N1 H1 0.8800 .
N1 C1 1.365(5) .
N1 C2 1.372(6) .
C11 H11 0.9500 .
C3 C4 1.425(6) .
C3 C2 1.373(6) .
C9 C10 1.369(6) .
C9 C8 1.446(6) .
C10 H10 0.9500 .
C1 H1A 0.9500 .
C4 H4 0.9500 .
C8 H8 0.9500 .
C5 H5A 0.9900 .
C5 H5B 0.9900 .
C5 C6 1.494(7) .
C2 H2 0.9500 .
C7 H7A 0.9900 .
C7 H7B 0.9900 .
C7 C6 1.553(6) .
C6 H6A 0.9900 .
C6 H6B 0.9900 .
loop_
_platon_squeeze_void_nr
_platon_squeeze_void_average_x
_platon_squeeze_void_average_y
_platon_squeeze_void_average_z
_platon_squeeze_void_volume
_platon_squeeze_void_count_electrons
_platon_squeeze_void_content
1 0.000 0.356 0.250 95 39 ' '
2 0.000 0.644 0.750 94 39 ' '
3 0.500 0.144 0.750 94 39 ' '
4 0.500 0.856 0.250 95 39 ' '
