#------------------------------------------------------------------------------
#$Date: 2019-11-05 11:18:54 +0200 (Tue, 05 Nov 2019) $
#$Revision: 223300 $
#$URL: file:///home/coder/svn-repositories/cod/cif/7/70/15/7701561.cif $
#------------------------------------------------------------------------------
#
# This file is available in the Crystallography Open Database (COD),
# http://www.crystallography.net/
#
# All data on this site have been placed in the public domain by the
# contributors.
#
data_7701561
loop_
_publ_author_name
'Gharib, Maniya'
'Esrafili, Leili'
'Morsali, Ali'
'Retailleau, Pascal'
_publ_section_title
;
 Solvent-assisted ligand exchange (SALE) for the enhancement of epoxide
 ring-opening reaction catalysis based on three amide-functionalized
 metal-organic frameworks.
;
_journal_issue                   24
_journal_name_full
'Dalton transactions (Cambridge, England : 2003)'
_journal_page_first              8803
_journal_page_last               8814
_journal_paper_doi               10.1039/c9dt00941h
_journal_volume                  48
_journal_year                    2019
_chemical_formula_sum            'C58 H58 Co2 N8 O16'
_chemical_formula_weight         1240.98
_space_group_crystal_system      monoclinic
_space_group_IT_number           14
_space_group_name_Hall           '-P 2yn'
_space_group_name_H-M_alt        'P 1 21/n 1'
_atom_sites_solution_hydrogens   mixed
_audit_creation_method           SHELXL-2018/3
_audit_update_record
;
2019-04-18 deposited with the CCDC.	2019-04-24 downloaded from the CCDC.
;
_cell_angle_alpha                90
_cell_angle_beta                 90.051(2)
_cell_angle_gamma                90
_cell_formula_units_Z            4
_cell_length_a                   15.2997(12)
_cell_length_b                   16.1519(13)
_cell_length_c                   25.122(2)
_cell_measurement_reflns_used    9995
_cell_measurement_temperature    193(2)
_cell_measurement_theta_max      55.5
_cell_measurement_theta_min      2.6
_cell_volume                     6208.1(9)
_computing_structure_refinement  'SHELXL-2018/3 (Sheldrick, 2018)'
_diffrn_ambient_temperature      193(2)
_diffrn_measured_fraction_theta_full 0.998
_diffrn_measured_fraction_theta_max 0.998
_diffrn_measurement_device_type  'Bruker APEX-II CCD'
_diffrn_radiation_type           MoK\a
_diffrn_radiation_wavelength     0.71073
_diffrn_reflns_av_R_equivalents  0.0642
_diffrn_reflns_av_unetI/netI     0.0323
_diffrn_reflns_Laue_measured_fraction_full 0.998
_diffrn_reflns_Laue_measured_fraction_max 0.998
_diffrn_reflns_limit_h_max       18
_diffrn_reflns_limit_h_min       -18
_diffrn_reflns_limit_k_max       19
_diffrn_reflns_limit_k_min       -19
_diffrn_reflns_limit_l_max       29
_diffrn_reflns_limit_l_min       -29
_diffrn_reflns_number            116292
_diffrn_reflns_point_group_measured_fraction_full 0.998
_diffrn_reflns_point_group_measured_fraction_max 0.998
_diffrn_reflns_theta_full        24.999
_diffrn_reflns_theta_max         24.999
_diffrn_reflns_theta_min         2.097
_exptl_absorpt_coefficient_mu    0.606
_exptl_crystal_colour            pink
_exptl_crystal_density_diffrn    1.328
_exptl_crystal_description       Prism
_exptl_crystal_F_000             2576
_exptl_crystal_size_max          0.180
_exptl_crystal_size_mid          0.150
_exptl_crystal_size_min          0.120
_refine_ls_extinction_method     none
_refine_ls_goodness_of_fit_ref   1.070
_refine_ls_hydrogen_treatment    mixed
_refine_ls_matrix_type           full
_refine_ls_number_parameters     807
_refine_ls_number_reflns         10910
_refine_ls_number_restraints     710
_refine_ls_restrained_S_all      1.101
_refine_ls_R_factor_all          0.0636
_refine_ls_R_factor_gt           0.0515
_refine_ls_shift/su_max          0.001
_refine_ls_shift/su_mean         0.000
_refine_ls_structure_factor_coef Fsqd
_refine_ls_weighting_details
'w=1/[\s^2^(Fo^2^)+(0.0760P)^2^+7.0034P] where P=(Fo^2^+2Fc^2^)/3'
_refine_ls_weighting_scheme      calc
_refine_ls_wR_factor_gt          0.1354
_refine_ls_wR_factor_ref         0.1439
_reflns_Friedel_coverage         0.000
_reflns_number_gt                9405
_reflns_number_total             10910
_reflns_threshold_expression     'I > 2\s(I)'
_cod_data_source_file            c9dt00941h2.cif
_cod_data_source_block           TMU-50
_cod_original_cell_volume        6208.0(9)
_cod_original_sg_symbol_H-M      'P 21/n'
_cod_database_code               7701561
_shelx_shelxl_version_number     2018/3
_shelx_space_group_comment
;
The symmetry employed for this shelxl refinement is uniquely defined
by the following loop, which should always be used as a source of
symmetry information in preference to the above space-group names.
They are only intended as comments.
;
_shelx_estimated_absorpt_t_min   0.899
_shelx_estimated_absorpt_t_max   0.931
_shelx_res_file
;
TITL p in P2(1)/n
    p.res
    created by SHELXL-2018/3 at 21:27:05 on 18-Mar-2019
CELL 0.71073 15.2997 16.1519 25.1216 90 90.051 90
ZERR 4 0.0012 0.0013 0.002 0 0.002 0
LATT 1
SYMM 0.5-X,0.5+Y,0.5-Z
SFAC C Co H N O
UNIT 238 8 246 34 66
DFIX 0.87 N3 H3 N2 H2

L.S. 6
PLAN  14
SIZE 0.12 0.15 0.18
TEMP -80.14
BOND
BOND $H
CONF
fmap 2
acta
list 8
ABIN
TWIN 1 0 0 0 -1 0 0 0 -1 2
OMIT -1 50
OMIT 2 0 0
OMIT 0 2 0
OMIT 1 0 3
OMIT -1 0 3
OMIT 3 1 1
OMIT -3 1 1
OMIT 0 2 4
OMIT 1 3 0
OMIT -1 2 3
OMIT -1 3 3
REM <olex2.extras>
REM <HklSrc "%.\\p_sq.hkl">
REM </olex2.extras>

WGHT    0.069800    3.379900
BASF   0.35959
FVAR       0.06867
CO1   2    0.317324    0.692722    0.156569    11.00000    0.02676    0.02663 =
         0.02131   -0.00223    0.00070    0.00970
CO2   2    0.198166    0.815743    0.156143    11.00000    0.02537    0.02500 =
         0.02201    0.00118    0.00011    0.00728
O1    5    0.237876    0.644902    0.100114    11.00000    0.03727    0.03993 =
         0.03107   -0.00733   -0.01182    0.01270
O2    5    0.137518    0.745131    0.099518    11.00000    0.04121    0.03466 =
         0.03492   -0.00809   -0.00917    0.00780
O3    5   -0.125822    0.738548   -0.285671    11.00000    0.04449    0.04557 =
         0.03138    0.01183   -0.00321   -0.00694
O4    5   -0.223774    0.635754   -0.285710    11.00000    0.04340    0.04162 =
         0.03305    0.00023   -0.00857    0.00019
O5    5    0.239364    0.645207    0.214228    11.00000    0.04320    0.04478 =
         0.03379    0.00107    0.00928   -0.00074
O6    5    0.141136    0.747530    0.213706    11.00000    0.04463    0.04327 =
         0.03437    0.00857    0.00592   -0.00045
O7    5   -0.123755    0.738458    0.598851    11.00000    0.04500    0.03515 =
         0.03286   -0.00072    0.01131   -0.00794
O8    5   -0.224224    0.638474    0.597929    11.00000    0.03543    0.03435 =
         0.03013   -0.00478    0.00871   -0.00498
O9    5    0.009996    0.521225   -0.092977    11.00000    0.10707    0.03429 =
         0.04997    0.00255   -0.04872   -0.00184
O10   5   -0.001468    0.524170    0.401157    11.00000    0.09148    0.03314 =
         0.04194   -0.00002    0.03450    0.00244
O11   5    0.577802    0.385326    0.034698    11.00000    0.09043    0.09067 =
         0.03224   -0.01605   -0.02012    0.06684
O12   5    0.905050    0.096355    0.034702    11.00000    0.17855    0.14815 =
         0.02935   -0.00798   -0.00824    0.14123
N1    4    0.404590    0.598403    0.145871    11.00000    0.03802    0.03269 =
         0.02516   -0.00359   -0.00020    0.01534
N2    4    0.592384    0.412983    0.123001    11.00000    0.05212    0.05059 =
         0.02220   -0.00164   -0.00915    0.03357
H2    3    0.622556    0.405653    0.150882    11.00000    0.02783
N3    4    0.923721    0.098092    0.123735    11.00000    0.05364    0.04808 =
         0.02848   -0.00133   -0.00024    0.03284
H3    3    0.907632    0.123812    0.153477    11.00000    0.06074
N4    4    1.110641   -0.088590    0.146211    11.00000    0.03645    0.03593 =
         0.02125    0.00146    0.00088    0.01359
C1    1    0.168811    0.677612    0.083190    11.00000    0.03495    0.03767 =
         0.02585    0.00135   -0.00211    0.00376
C2    1    0.122149    0.635009    0.037993    11.00000    0.04120    0.03146 =
         0.02409    0.00084   -0.00944    0.00354
C3    1    0.159430    0.565545    0.014943    11.00000    0.05381    0.03574 =
         0.03605    0.00091   -0.01390    0.00552
AFIX  43
H3A   3    0.211391    0.542759    0.029599    11.00000   -1.20000
AFIX   0
C4    1    0.122082    0.529664   -0.028615    11.00000    0.07521    0.03144 =
         0.04238   -0.00488   -0.01967    0.01176
AFIX  43
H4    3    0.147928    0.482102   -0.044321    11.00000   -1.20000
AFIX   0
C5    1    0.046412    0.562872   -0.049792    11.00000    0.07131    0.03461 =
         0.03309   -0.00008   -0.02229   -0.00701
C6    1    0.007700    0.630509   -0.026915    11.00000    0.05064    0.04397 =
         0.04420    0.00433   -0.02434    0.00156
AFIX  43
H6    3   -0.045113    0.652194   -0.041126    11.00000   -1.20000
AFIX   0
C7    1    0.046046    0.666844    0.016913    11.00000    0.04129    0.04092 =
         0.03712   -0.00105   -0.01097    0.00845
AFIX  43
H7    3    0.019835    0.714161    0.032701    11.00000   -1.20000
AFIX   0
C8    1   -0.032575    0.564369   -0.132736    11.00000    0.06858    0.03192 =
         0.03475   -0.00346   -0.02267   -0.00326
C9    1   -0.003252    0.639323   -0.151255    11.00000    0.05545    0.03938 =
         0.04302   -0.00425   -0.01853   -0.00845
AFIX  43
H9    3    0.044279    0.666611   -0.134369    11.00000   -1.20000
AFIX   0
C10   1   -0.044278    0.674686   -0.195163    11.00000    0.05419    0.03322 =
         0.03687    0.00235   -0.01023   -0.00916
AFIX  43
H10   3   -0.023972    0.726200   -0.208574    11.00000   -1.20000
AFIX   0
C11   1   -0.114629    0.635627   -0.219690    11.00000    0.04347    0.03276 =
         0.02273   -0.00359   -0.00311   -0.00092
C12   1   -0.144624    0.561211   -0.198411    11.00000    0.05119    0.03764 =
         0.03021   -0.00035   -0.01209   -0.01076
AFIX  43
H12   3   -0.194133    0.534838   -0.213714    11.00000   -1.20000
AFIX   0
C13   1   -0.103291    0.525433   -0.155418    11.00000    0.07235    0.03447 =
         0.03388    0.00742   -0.01574   -0.01396
AFIX  43
H13   3   -0.123537    0.474194   -0.141547    11.00000   -1.20000
AFIX   0
C14   1   -0.157988    0.673023   -0.267239    11.00000    0.03733    0.03491 =
         0.02329    0.00144    0.00332    0.00483
C15   1    0.173725    0.682730    0.232325    11.00000    0.03301    0.03846 =
         0.02317   -0.00631    0.00467   -0.00080
C16   1    0.130030    0.644154    0.279494    11.00000    0.04004    0.03076 =
         0.02565   -0.00131    0.00418    0.00108
C17   1    0.164445    0.574846    0.303483    11.00000    0.04539    0.04078 =
         0.02935   -0.00119    0.00868    0.01157
AFIX  43
H17   3    0.218092    0.552465    0.291042    11.00000   -1.20000
AFIX   0
C18   1    0.121247    0.537211    0.345882    11.00000    0.06381    0.03555 =
         0.03158    0.00464    0.01104    0.00948
AFIX  43
H18   3    0.145349    0.489606    0.362561    11.00000   -1.20000
AFIX   0
C19   1    0.043761    0.569623    0.363187    11.00000    0.06176    0.03761 =
         0.02601    0.00434    0.01505    0.00530
C20   1    0.008120    0.639895    0.340393    11.00000    0.05298    0.04268 =
         0.03930    0.00445    0.01496    0.01398
AFIX  43
H20   3   -0.045302    0.662241    0.353211    11.00000   -1.20000
AFIX   0
C21   1    0.051804    0.676886    0.298620    11.00000    0.04756    0.03799 =
         0.03326    0.00609    0.00435    0.00684
AFIX  43
H21   3    0.028224    0.725332    0.282682    11.00000   -1.20000
AFIX   0
C22   1   -0.038288    0.564142    0.444303    11.00000    0.06280    0.03568 =
         0.02819    0.00437    0.01587    0.00792
C23   1    0.000170    0.633454    0.467415    11.00000    0.05272    0.04577 =
         0.03948    0.00174    0.02430   -0.01006
AFIX  43
H23   3    0.051772    0.656787    0.452701    11.00000   -1.20000
AFIX   0
C24   1   -0.037884    0.667775    0.512089    11.00000    0.03865    0.03910 =
         0.03487   -0.00386    0.00992   -0.00173
AFIX  43
H24   3   -0.012967    0.715736    0.527879    11.00000   -1.20000
AFIX   0
C25   1   -0.112063    0.632704    0.533959    11.00000    0.03792    0.03003 =
         0.02766    0.00460    0.00048   -0.00064
C26   1   -0.148867    0.563649    0.510449    11.00000    0.05153    0.03578 =
         0.02986   -0.00139    0.01161   -0.00608
AFIX  43
H26   3   -0.199779    0.539463    0.525483    11.00000   -1.20000
AFIX   0
C27   1   -0.112052    0.529335    0.465046    11.00000    0.05897    0.03553 =
         0.02849   -0.00056    0.00871   -0.00725
AFIX  43
H27   3   -0.137836    0.482290    0.448644    11.00000   -1.20000
AFIX   0
C28   1   -0.156000    0.673199    0.580689    11.00000    0.03708    0.02812 =
         0.02192    0.00231    0.00118   -0.00506
C29   1    0.430339    0.577358    0.096303    11.00000    0.06090    0.05254 =
         0.02397   -0.00352   -0.00217    0.03543
AFIX  43
H29   3    0.405162    0.606163    0.067102    11.00000   -1.20000
AFIX   0
C30   1    0.491217    0.516331    0.085525    11.00000    0.07488    0.06076 =
         0.02042    0.00269    0.00294    0.04493
AFIX  43
H30   3    0.507083    0.503427    0.049927    11.00000   -1.20000
AFIX   0
C31   1    0.528810    0.474111    0.128446    11.00000    0.04388    0.04115 =
         0.02649   -0.00434   -0.00578    0.02110
C32   1    0.502532    0.496280    0.179032    11.00000    0.05375    0.04622 =
         0.02676   -0.00422   -0.00651    0.02653
AFIX  43
H32   3    0.527179    0.469575    0.209210    11.00000   -1.20000
AFIX   0
C33   1    0.441016    0.556697    0.185596    11.00000    0.05022    0.04575 =
         0.01871   -0.00149   -0.00146    0.01805
AFIX  43
H33   3    0.423194    0.569666    0.220838    11.00000   -1.20000
AFIX   0
C34   1    0.613562    0.371837    0.077474    11.00000    0.04484    0.04716 =
         0.02969   -0.00193   -0.00197    0.02603
C35   1    0.684458    0.307223    0.081620    11.00000    0.03397    0.03657 =
         0.03071    0.00026   -0.00411    0.01433
C36   1    0.718071    0.277721    0.034349    11.00000    0.04410    0.03361 =
         0.02600   -0.00070   -0.00380    0.01645
AFIX  43
H36   3    0.695999    0.297850    0.001445    11.00000   -1.20000
AFIX   0
C37   1    0.782856    0.219778    0.034692    11.00000    0.04451    0.03523 =
         0.02736   -0.00010    0.00075    0.01700
AFIX  43
H37   3    0.806365    0.200560    0.001957    11.00000   -1.20000
AFIX   0
C38   1    0.814940    0.188460    0.082515    11.00000    0.04411    0.03777 =
         0.02891    0.00072   -0.00336    0.01800
C39   1    0.779148    0.216265    0.130402    11.00000    0.06148    0.04171 =
         0.02113    0.00012   -0.00020    0.02632
AFIX  43
H39   3    0.799399    0.194794    0.163389    11.00000   -1.20000
AFIX   0
C40   1    0.714024    0.275293    0.129213    11.00000    0.04496    0.04404 =
         0.02819   -0.00339    0.00118    0.02010
AFIX  43
H40   3    0.689203    0.294203    0.161661    11.00000   -1.20000
AFIX   0
C41   1    0.885053    0.124194    0.077787    11.00000    0.07899    0.06619 =
         0.02976    0.00345    0.00135    0.04957
C42   1    0.987351    0.036619    0.128723    11.00000    0.04595    0.03710 =
         0.03139    0.00194   -0.00054    0.02210
C43   1    1.021253   -0.008725    0.087406    11.00000    0.13719    0.11578 =
         0.02189    0.00013   -0.00285    0.10218
AFIX  43
H43   3    1.002181    0.001114    0.051968    11.00000   -1.20000
AFIX   0
C44   1    1.083370   -0.068837    0.097718    11.00000    0.10381    0.09248 =
         0.02390    0.00264    0.00600    0.08019
AFIX  43
H44   3    1.107936   -0.097659    0.068358    11.00000   -1.20000
AFIX   0
C45   1    1.079001   -0.044733    0.185291    11.00000    0.05796    0.05597 =
         0.03228   -0.00954   -0.01296    0.03128
AFIX  43
H45   3    1.099202   -0.055935    0.220328    11.00000   -1.20000
AFIX   0
C46   1    1.017328    0.017497    0.178413    11.00000    0.06416    0.05692 =
         0.02763   -0.01023   -0.00641    0.03536
AFIX  43
H46   3    0.995911    0.046889    0.208449    11.00000   -1.20000
AFIX   0

O13   5    0.690928    0.422959    0.222120    11.00000    0.06740    0.06594 =
         0.05724   -0.01237   -0.01907    0.02122
O14   5    0.599355    0.663063    0.266774    11.00000    0.05664    0.05714 =
         0.03510    0.00438    0.00059   -0.01207
O15   5    0.667615    0.165747    0.246599    11.00000    0.08875    0.19917 =
         0.09936   -0.02609    0.00660   -0.01375
N5    4    0.809077    0.456420    0.272516    11.00000    0.07188    0.06123 =
         0.06620   -0.01569   -0.01711    0.00754
N6    4    0.636486    0.678266    0.179996    11.00000    0.05738    0.06792 =
         0.03979    0.00917   -0.00060   -0.01266
N7    4    0.602729    0.216729    0.320741    11.00000    0.06638    0.07231 =
         0.08079    0.01721    0.00707   -0.00321
C47   1    0.770493    0.428089    0.229223    11.00000    0.06785    0.05365 =
         0.05469   -0.00952   -0.00982    0.01548
AFIX  43
H47   3    0.807225    0.410055    0.201044    11.00000   -1.20000
AFIX   0
C48   1    0.904587    0.465043    0.275456    11.00000    0.08493    0.08872 =
         0.11911   -0.01547   -0.02714   -0.00486
AFIX 137
H48A  3    0.930493    0.448618    0.241392    11.00000   -1.50000
H48B  3    0.927329    0.429442    0.303860    11.00000   -1.50000
H48C  3    0.919627    0.522820    0.283079    11.00000   -1.50000
AFIX   0
C49   1    0.759285    0.487692    0.316801    11.00000    0.10893    0.09647 =
         0.06260   -0.03056   -0.01414    0.01469
AFIX 137
H49A  3    0.696769    0.480543    0.309622    11.00000   -1.50000
H49B  3    0.772116    0.546630    0.321786    11.00000   -1.50000
H49C  3    0.775093    0.457181    0.349124    11.00000   -1.50000
AFIX   0

C50   1    0.637611    0.640505    0.227159    11.00000    0.06501    0.05023 =
         0.05801    0.00280   -0.01250   -0.01059
AFIX  43
H50   3    0.671512    0.591419    0.229960    11.00000   -1.20000
AFIX   0
C51   1    0.591237    0.752632    0.171620    11.00000    0.07887    0.10969 =
         0.10687    0.04996    0.01029    0.01328
AFIX 137
H51A  3    0.562628    0.751143    0.136715    11.00000   -1.50000
H51B  3    0.632434    0.799055    0.172833    11.00000   -1.50000
H51C  3    0.547026    0.759673    0.199458    11.00000   -1.50000
AFIX   0
C52   1    0.684509    0.644155    0.134459    11.00000    0.10174    0.12080 =
         0.06649   -0.02376    0.02332   -0.02872
AFIX 137
H52A  3    0.721472    0.687366    0.118885    11.00000   -1.50000
H52B  3    0.642923    0.624294    0.107654    11.00000   -1.50000
H52C  3    0.721201    0.598026    0.146428    11.00000   -1.50000
AFIX   0

C53   1    0.647745    0.224941    0.277201    11.00000    0.07919    0.15237 =
         0.09694    0.04110   -0.00528   -0.00740
AFIX  43
H53   3    0.666952    0.278910    0.267770    11.00000   -1.20000
AFIX   0
C54   1    0.587108    0.286862    0.354493    11.00000    0.12630    0.08739 =
         0.25583   -0.02971    0.04869    0.01543
AFIX 137
H54A  3    0.628917    0.286427    0.384068    11.00000   -1.50000
H54B  3    0.527465    0.284128    0.368576    11.00000   -1.50000
H54C  3    0.594276    0.337922    0.333881    11.00000   -1.50000
AFIX   0
C55   1    0.566312    0.142640    0.338846    11.00000    0.14210    0.11439 =
         0.15745    0.04914    0.03156   -0.03354
AFIX 137
H55A  3    0.503744    0.141705    0.330480    11.00000   -1.50000
H55B  3    0.574384    0.138322    0.377450    11.00000   -1.50000
H55C  3    0.595248    0.095894    0.321314    11.00000   -1.50000
AFIX   0
HKLF 4




REM  p in P2(1)/n
REM wR2 = 0.1439, GooF = S = 1.070, Restrained GooF = 1.101 for all data
REM R1 = 0.0515 for 9405 Fo > 4sig(Fo) and 0.0636 for all 10910 data
REM 807 parameters refined using 710 restraints

END

WGHT      0.0701      3.3638

REM Highest difference peak  0.726,  deepest hole -0.387,  1-sigma level  0.064
Q1    1   0.2777  0.6832  0.1348  11.00000  0.05    0.73
Q2    1   0.1578  0.7908  0.1326  11.00000  0.05    0.46
Q3    1   0.5830  0.6987  0.2206  11.00000  0.05    0.45
Q4    1   0.2407  0.8488  0.1773  11.00000  0.05    0.40
Q5    1  -0.1367  0.7652 -0.3200  11.00000  0.05    0.35
Q6    1   0.1836  0.8438  0.1892  11.00000  0.05    0.33
Q7    1   0.3047  0.6677  0.1845  11.00000  0.05    0.32
Q8    1  -0.2549  0.6521  0.6239  11.00000  0.05    0.30
Q9    1   0.3700  0.6472  0.1642  11.00000  0.05    0.30
Q10   1   0.4627  0.4613  0.1140  11.00000  0.05    0.30
Q11   1   0.2524  0.7809  0.1666  11.00000  0.05    0.29
Q12   1   0.4157  0.2005  0.3460  11.00000  0.05    0.29
Q13   1   0.3349  0.6602  0.1187  11.00000  0.05    0.28
Q14   1   1.0352  0.0342  0.1039  11.00000  0.05    0.27
;
_shelx_res_checksum              11637
_shelx_fab_file
;
    4    0    0     21.17      0.00
    6    0    0     -4.50      0.00
    8    0    0      1.04      0.00
   10    0    0      2.51      0.00
   12    0    0     -0.57      0.00
   14    0    0      1.16      0.00
   16    0    0      1.04      0.00
   18    0    0     -2.58      0.00
    2    1    0      2.34      0.00
    3    1    0    -42.21      0.00
    4    1    0      4.02      0.00
    5    1    0      5.83      0.00
    6    1    0     -6.56      0.00
    7    1    0      1.86      0.00
    8    1    0      5.84      0.00
    9    1    0     -1.82      0.00
   10    1    0     -0.65      0.00
   11    1    0      2.35      0.00
   12    1    0     -2.81      0.00
   13    1    0     -1.01      0.00
   14    1    0      1.87      0.00
   15    1    0      1.04      0.00
   16    1    0      0.46      0.00
   17    1    0     -0.80      0.00
   18    1    0      1.21      0.00
    1    2    0      3.35      0.00
    2    2    0     54.39      0.00
    3    2    0      4.90      0.00
    4    2    0    -23.22      0.00
    5    2    0     -9.44      0.00
    6    2    0      9.62      0.00
    7    2    0      8.51      0.00
    8    2    0     -2.00      0.00
    9    2    0     -1.64      0.00
   10    2    0     -1.71      0.00
   11    2    0     -1.27      0.00
   12    2    0      0.79      0.00
   13    2    0     -0.86      0.00
   14    2    0     -0.64      0.00
   15    2    0     -0.73      0.00
   16    2    0      0.40      0.00
   17    2    0      4.97      0.00
   18    2    0      0.38      0.00
    2    3    0      0.75      0.00
    3    3    0     26.99      0.00
    4    3    0     -5.50      0.00
    5    3    0     -1.01      0.00
    6    3    0      3.40      0.00
    7    3    0     -4.06      0.00
    8    3    0      2.36      0.00
    9    3    0      4.36      0.00
   10    3    0     -3.02      0.00
   11    3    0     -4.65      0.00
   12    3    0     -1.29      0.00
   13    3    0      2.50      0.00
   14    3    0      0.51      0.00
   15    3    0     -1.41      0.00
   16    3    0      0.53      0.00
   17    3    0      1.12      0.00
    0    4    0    -54.89      0.00
    1    4    0     -4.99      0.00
    2    4    0     26.68      0.00
    3    4    0     -7.23      0.00
    4    4    0      2.42      0.00
    5    4    0      7.46      0.00
    6    4    0     -4.87      0.00
    7    4    0     -3.70      0.00
    8    4    0      2.95      0.00
    9    4    0      1.81      0.00
   10    4    0     -0.24      0.00
   11    4    0     -3.19      0.00
   12    4    0      0.73      0.00
   13    4    0      1.67      0.00
   14    4    0     -2.24      0.00
   15    4    0      0.14      0.00
   16    4    0     -0.25      0.00
   17    4    0     -0.53      0.00
    1    5    0     -2.97      0.00
    2    5    0     -7.37      0.00
    3    5    0      8.38      0.00
    4    5    0      2.27      0.00
    5    5    0     -6.87      0.00
    6    5    0      2.15      0.00
    7    5    0      5.21      0.00
    8    5    0     -2.53      0.00
    9    5    0     -1.09      0.00
   10    5    0     -1.36      0.00
   11    5    0      2.03      0.00
   12    5    0      2.67      0.00
   13    5    0     -1.40      0.00
   14    5    0     -0.88      0.00
   15    5    0     -3.79      0.00
   16    5    0      2.29      0.00
   17    5    0      4.86      0.00
    0    6    0     31.98      0.00
    1    6    0      2.99      0.00
    2    6    0    -19.93      0.00
    3    6    0     -4.60      0.00
    4    6    0      5.09      0.00
    5    6    0      4.46      0.00
    6    6    0      0.63      0.00
    7    6    0     -1.02      0.00
    8    6    0     -0.06      0.00
    9    6    0     -2.74      0.00
   10    6    0      1.34      0.00
   11    6    0      1.76      0.00
   12    6    0      0.09      0.00
   13    6    0      0.42      0.00
   14    6    0     -1.36      0.00
   15    6    0      1.86      0.00
   16    6    0      0.64      0.00
   17    6    0     -0.79      0.00
    1    7    0      2.69      0.00
    2    7    0      1.71      0.00
    3    7    0     -5.63      0.00
    4    7    0     -1.59      0.00
    5    7    0      2.23      0.00
    6    7    0      3.41      0.00
    7    7    0      3.40      0.00
    8    7    0     -3.91      0.00
    9    7    0     -4.95      0.00
   10    7    0      2.10      0.00
   11    7    0      3.42      0.00
   12    7    0      0.12      0.00
   13    7    0     -2.07      0.00
   14    7    0      0.22      0.00
   15    7    0      2.71      0.00
   16    7    0     -0.72      0.00
    0    8    0      2.76      0.00
    1    8    0     -0.74      0.00
    2    8    0     -6.10      0.00
    3    8    0      4.10      0.00
    4    8    0      5.48      0.00
    5    8    0     -4.92      0.00
    6    8    0     -0.28      0.00
    7    8    0      3.91      0.00
    8    8    0     -0.19      0.00
    9    8    0     -1.42      0.00
   10    8    0     -1.94      0.00
   11    8    0      1.12      0.00
   12    8    0      0.05      0.00
   13    8    0     -0.02      0.00
   14    8    0      0.04      0.00
   15    8    0     -2.07      0.00
   16    8    0      1.81      0.00
    1    9    0     -1.04      0.00
    2    9    0      2.02      0.00
    3    9    0     -1.93      0.00
    4    9    0     -0.42      0.00
    5    9    0      8.62      0.00
    6    9    0     -2.62      0.00
    7    9    0     -8.82      0.00
    8    9    0      4.54      0.00
    9    9    0      4.67      0.00
   10    9    0     -0.91      0.00
   11    9    0     -3.68      0.00
   12    9    0     -1.61      0.00
   13    9    0      1.70      0.00
   14    9    0      0.89      0.00
   15    9    0     -0.40      0.00
   16    9    0     -1.23      0.00
    0   10    0     -7.78      0.00
    1   10    0     -0.21      0.00
    2   10    0      7.01      0.00
    3   10    0      1.22      0.00
    4   10    0     -2.37      0.00
    5   10    0     -0.51      0.00
    6   10    0     -1.20      0.00
    7   10    0     -1.58      0.00
    8   10    0      0.18      0.00
    9   10    0      4.04      0.00
   10   10    0      0.11      0.00
   11   10    0     -2.82      0.00
   12   10    0      0.35      0.00
   13   10    0      0.36      0.00
   14   10    0     -0.62      0.00
   15   10    0      0.62      0.00
    1   11    0      0.43      0.00
    2   11    0     -0.42      0.00
    3   11    0      2.38      0.00
    4   11    0      2.95      0.00
    5   11    0     -3.80      0.00
    6   11    0     -2.63      0.00
    7   11    0     -0.72      0.00
    8   11    0      1.11      0.00
    9   11    0      3.07      0.00
   10   11    0     -0.71      0.00
   11   11    0     -0.84      0.00
   12   11    0     -0.26      0.00
   13   11    0     -0.75      0.00
   14   11    0      1.05      0.00
    0   12    0      4.07      0.00
    1   12    0     -0.08      0.00
    2   12    0     -3.14      0.00
    3   12    0     -1.15      0.00
    4   12    0      2.14      0.00
    5   12    0      3.35      0.00
    6   12    0     -1.57      0.00
    7   12    0     -1.58      0.00
    8   12    0      0.39      0.00
    9   12    0     -0.20      0.00
   10   12    0      1.42      0.00
   11   12    0     -1.38      0.00
   12   12    0     -1.57      0.00
   13   12    0      0.24      0.00
   14   12    0      1.46      0.00
    1   13    0     -0.08      0.00
    2   13    0     -2.28      0.00
    3   13    0     -0.86      0.00
    4   13    0     -0.15      0.00
    5   13    0      0.06      0.00
    6   13    0      1.64      0.00
    7   13    0      2.97      0.00
    8   13    0     -0.05      0.00
    9   13    0     -3.10      0.00
   10   13    0     -0.44      0.00
   11   13    0      1.57      0.00
   12   13    0     -1.37      0.00
   13   13    0     -0.13      0.00
    0   14    0      1.20      0.00
    1   14    0     -0.39      0.00
    2   14    0     -1.26      0.00
    3   14    0     -2.31      0.00
    4   14    0     -1.01      0.00
    5   14    0     -0.50      0.00
    6   14    0      2.99      0.00
    7   14    0      1.14      0.00
    8   14    0     -1.45      0.00
    9   14    0     -0.01      0.00
   10   14    0     -0.56      0.00
   11   14    0      0.48      0.00
   12   14    0      0.60      0.00
    1   15    0      0.65      0.00
    2   15    0     -0.29      0.00
    3   15    0     -1.96      0.00
    4   15    0     -2.32      0.00
    5   15    0      2.13      0.00
    6   15    0      1.66      0.00
    7   15    0     -0.78      0.00
    8   15    0     -2.15      0.00
    9   15    0     -0.80      0.00
   10   15    0      3.08      0.00
   11   15    0      0.00      0.00
    0   16    0     -0.90      0.00
    1   16    0      0.53      0.00
    2   16    0      0.73      0.00
    3   16    0     -0.21      0.00
    4   16    0      0.64      0.00
    5   16    0     -0.54      0.00
    6   16    0     -0.59      0.00
    7   16    0      0.31      0.00
    8   16    0     -0.94      0.00
    9   16    0      0.83      0.00
   10   16    0      0.37      0.00
    1   17    0     -0.58      0.00
    2   17    0      0.93      0.00
    3   17    0      1.40      0.00
    4   17    0     -0.37      0.00
    5   17    0     -0.08      0.00
    6   17    0      1.47      0.00
    7   17    0     -1.24      0.00
    8   17    0      0.18      0.00
    0   18    0     -0.29      0.00
    1   18    0     -0.48      0.00
    2   18    0     -0.45      0.00
    3   18    0      0.43      0.00
    4   18    0      0.71      0.00
    5   18    0      1.94      0.00
    6   18    0     -0.42      0.00
    1   19    0     -0.91      0.00
    2   19    0     -0.48      0.00
  -17    0    1      0.83      0.00
  -15    0    1      0.72      0.00
  -13    0    1     -3.38      0.00
  -11    0    1      2.23      0.00
   -9    0    1      3.14      0.00
   -7    0    1     -1.94      0.00
   -5    0    1     -1.17      0.00
   -3    0    1     -8.28      0.00
    3    0    1      4.45      0.00
    5    0    1     11.36      0.00
    7    0    1    -11.45      0.00
    9    0    1      7.70      0.00
   11    0    1      0.85      0.00
   13    0    1     -3.63      0.00
   15    0    1     -0.03      0.00
   17    0    1      0.88      0.00
  -18    1    1      4.39      0.00
  -17    1    1      0.95      0.00
  -16    1    1     -2.59      0.00
  -15    1    1      1.65      0.00
  -14    1    1      0.13      0.00
  -13    1    1     -1.36      0.00
  -12    1    1     -0.56      0.00
  -11    1    1      3.11      0.00
  -10    1    1      0.20      0.00
   -9    1    1     -3.76      0.00
   -8    1    1      3.91      0.00
   -7    1    1     -2.04      0.00
   -6    1    1     -4.06      0.00
   -5    1    1     10.46      0.00
   -4    1    1     -5.04      0.00
   -2    1    1     13.81      0.00
    2    1    1    -13.20      0.00
    4    1    1     10.53      0.00
    5    1    1    -11.55      0.00
    6    1    1     -8.37      0.00
    7    1    1      6.69      0.00
    8    1    1      4.75      0.00
    9    1    1     -1.50      0.00
   10    1    1      1.69      0.00
   11    1    1     -0.63      0.00
   12    1    1     -1.28      0.00
   13    1    1      0.44      0.00
   14    1    1     -1.28      0.00
   15    1    1      0.05      0.00
   16    1    1     -1.36      0.00
   17    1    1     -1.97      0.00
   18    1    1      3.64      0.00
  -18    2    1     -3.86      0.00
  -17    2    1      1.06      0.00
  -16    2    1      4.46      0.00
  -15    2    1     -1.53      0.00
  -14    2    1     -2.16      0.00
  -13    2    1      0.90      0.00
  -12    2    1      3.64      0.00
  -11    2    1     -2.84      0.00
  -10    2    1     -4.79      0.00
   -9    2    1      1.33      0.00
   -8    2    1      4.25      0.00
   -7    2    1      2.63      0.00
   -6    2    1     -3.40      0.00
   -5    2    1     -6.11      0.00
   -4    2    1    -17.94      0.00
   -3    2    1      5.62      0.00
   -2    2    1     44.76      0.00
   -1    2    1    -16.33      0.00
    0    2    1     22.01      0.00
    1    2    1     19.74      0.00
    2    2    1    -68.29      0.00
    3    2    1     -0.80      0.00
    4    2    1     22.64      0.00
    5    2    1     -9.33      0.00
    6    2    1      0.73      0.00
    7    2    1      5.34      0.00
    8    2    1     -1.48      0.00
    9    2    1      0.79      0.00
   10    2    1      1.72      0.00
   11    2    1     -1.21      0.00
   12    2    1     -1.96      0.00
   13    2    1     -0.49      0.00
   14    2    1      1.28      0.00
   15    2    1     -0.58      0.00
   16    2    1      0.11      0.00
   17    2    1      0.34      0.00
   18    2    1     -1.30      0.00
  -17    3    1      1.02      0.00
  -16    3    1      2.28      0.00
  -15    3    1      1.42      0.00
  -14    3    1     -0.24      0.00
  -13    3    1     -1.01      0.00
  -12    3    1     -2.08      0.00
  -11    3    1     -0.42      0.00
  -10    3    1      0.76      0.00
   -9    3    1     -1.04      0.00
   -8    3    1     -2.68      0.00
   -7    3    1      5.23      0.00
   -6    3    1      4.47      0.00
   -5    3    1    -12.31      0.00
   -4    3    1      0.52      0.00
   -3    3    1      7.81      0.00
   -2    3    1    -15.23      0.00
   -1    3    1     12.06      0.00
    0    3    1      4.78      0.00
    1    3    1     -6.77      0.00
    2    3    1     21.11      0.00
    3    3    1    -13.68      0.00
    4    3    1    -20.71      0.00
    5    3    1     12.84      0.00
    6    3    1     11.01      0.00
    7    3    1     -4.13      0.00
    8    3    1     -3.57      0.00
    9    3    1     -0.30      0.00
   10    3    1      0.22      0.00
   11    3    1      0.85      0.00
   12    3    1     -2.05      0.00
   13    3    1      1.16      0.00
   14    3    1      1.55      0.00
   15    3    1     -0.18      0.00
   16    3    1      0.57      0.00
   17    3    1     -1.01      0.00
  -17    4    1      1.31      0.00
  -16    4    1      0.91      0.00
  -15    4    1     -1.00      0.00
  -14    4    1      1.41      0.00
  -13    4    1      1.87      0.00
  -12    4    1     -4.35      0.00
  -11    4    1     -1.26      0.00
  -10    4    1      3.70      0.00
   -9    4    1     -0.96      0.00
   -8    4    1     -4.21      0.00
   -7    4    1     -1.03      0.00
   -6    4    1      4.77      0.00
   -5    4    1      6.31      0.00
   -4    4    1     -6.09      0.00
   -3    4    1     -5.33      0.00
   -2    4    1      0.76      0.00
   -1    4    1     -5.33      0.00
    0    4    1     -8.59      0.00
    1    4    1      9.97      0.00
    2    4    1     11.48      0.00
    3    4    1     -1.68      0.00
    4    4    1      0.01      0.00
    5    4    1     -5.10      0.00
    6    4    1     -3.81      0.00
    7    4    1      6.91      0.00
    8    4    1      3.90      0.00
    9    4    1     -4.07      0.00
   10    4    1     -2.74      0.00
   11    4    1     -2.18      0.00
   12    4    1      3.14      0.00
   13    4    1      2.25      0.00
   14    4    1     -0.01      0.00
   15    4    1     -0.32      0.00
   16    4    1     -2.93      0.00
   17    4    1      1.72      0.00
  -17    5    1     -1.89      0.00
  -16    5    1      0.22      0.00
  -15    5    1     -0.78      0.00
  -14    5    1     -0.32      0.00
  -13    5    1      1.04      0.00
  -12    5    1      1.92      0.00
  -11    5    1     -2.20      0.00
  -10    5    1     -2.12      0.00
   -9    5    1      3.77      0.00
   -8    5    1      1.67      0.00
   -7    5    1     -3.51      0.00
   -6    5    1     -0.68      0.00
   -5    5    1     -2.92      0.00
   -4    5    1      0.89      0.00
   -3    5    1     16.54      0.00
   -2    5    1      4.42      0.00
   -1    5    1    -41.96      0.00
    0    5    1     -6.10      0.00
    1    5    1     39.47      0.00
    2    5    1     -1.02      0.00
    3    5    1    -13.41      0.00
    4    5    1      1.95      0.00
    5    5    1      0.93      0.00
    6    5    1     -0.80      0.00
    7    5    1     -0.27      0.00
    8    5    1      2.44      0.00
    9    5    1      1.42      0.00
   10    5    1     -3.99      0.00
   11    5    1      0.17      0.00
   12    5    1      1.42      0.00
   13    5    1     -0.30      0.00
   14    5    1     -0.31      0.00
   15    5    1     -0.35      0.00
   16    5    1      1.86      0.00
   17    5    1      0.09      0.00
  -17    6    1     -1.99      0.00
  -16    6    1     -5.83      0.00
  -15    6    1      1.46      0.00
  -14    6    1      2.23      0.00
  -13    6    1     -1.15      0.00
  -12    6    1     -0.50      0.00
  -11    6    1      2.76      0.00
  -10    6    1      2.53      0.00
   -9    6    1     -2.62      0.00
   -8    6    1      0.36      0.00
   -7    6    1      4.25      0.00
   -6    6    1     -5.08      0.00
   -5    6    1     -7.13      0.00
   -4    6    1      5.62      0.00
   -3    6    1      8.24      0.00
   -2    6    1     -3.71      0.00
   -1    6    1     -0.73      0.00
    0    6    1     -3.15      0.00
    1    6    1     -7.06      0.00
    2    6    1      9.25      0.00
    3    6    1     -1.70      0.00
    4    6    1     -9.13      0.00
    5    6    1      7.30      0.00
    6    6    1      4.18      0.00
    7    6    1     -3.78      0.00
    8    6    1      0.07      0.00
    9    6    1     -0.65      0.00
   10    6    1     -0.18      0.00
   11    6    1      1.84      0.00
   12    6    1     -0.11      0.00
   13    6    1     -0.53      0.00
   14    6    1     -1.70      0.00
   15    6    1      1.07      0.00
   16    6    1      3.23      0.00
   17    6    1     -1.84      0.00
  -16    7    1     -1.11      0.00
  -15    7    1     -0.34      0.00
  -14    7    1      0.95      0.00
  -13    7    1      1.05      0.00
  -12    7    1      0.32      0.00
  -11    7    1      1.31      0.00
  -10    7    1      0.07      0.00
   -9    7    1     -0.41      0.00
   -8    7    1      1.82      0.00
   -7    7    1      0.40      0.00
   -6    7    1     -3.59      0.00
   -5    7    1     -2.15      0.00
   -4    7    1      2.26      0.00
   -3    7    1     -0.68      0.00
   -2    7    1     -0.10      0.00
   -1    7    1      8.51      0.00
    0    7    1      0.76      0.00
    1    7    1     -8.31      0.00
    2    7    1     -8.98      0.00
    3    7    1      1.34      0.00
    4    7    1     10.94      0.00
    5    7    1      0.04      0.00
    6    7    1     -5.18      0.00
    7    7    1      1.82      0.00
    8    7    1     -1.43      0.00
    9    7    1      0.74      0.00
   10    7    1      2.52      0.00
   11    7    1     -0.51      0.00
   12    7    1      1.07      0.00
   13    7    1     -1.63      0.00
   14    7    1      0.44      0.00
   15    7    1      0.50      0.00
   16    7    1     -2.07      0.00
  -16    8    1      1.60      0.00
  -15    8    1      0.40      0.00
  -14    8    1     -1.83      0.00
  -13    8    1     -1.03      0.00
  -12    8    1      3.78      0.00
  -11    8    1     -0.07      0.00
  -10    8    1     -4.98      0.00
   -9    8    1      3.41      0.00
   -8    8    1      6.82      0.00
   -7    8    1     -4.16      0.00
   -6    8    1     -6.52      0.00
   -5    8    1      4.27      0.00
   -4    8    1      3.61      0.00
   -3    8    1     -3.67      0.00
   -2    8    1     -2.73      0.00
   -1    8    1      1.91      0.00
    0    8    1      5.17      0.00
    1    8    1     -3.69      0.00
    2    8    1     -5.71      0.00
    3    8    1      4.18      0.00
    4    8    1      0.04      0.00
    5    8    1      1.16      0.00
    6    8    1      7.64      0.00
    7    8    1     -6.14      0.00
    8    8    1     -6.90      0.00
    9    8    1      3.82      0.00
   10    8    1      4.57      0.00
   11    8    1      1.35      0.00
   12    8    1     -3.07      0.00
   13    8    1     -1.24      0.00
   14    8    1      0.68      0.00
   15    8    1      0.47      0.00
   16    8    1      0.48      0.00
  -16    9    1      0.98      0.00
  -15    9    1     -1.00      0.00
  -14    9    1     -0.96      0.00
  -13    9    1     -0.01      0.00
  -12    9    1     -0.93      0.00
  -11    9    1     -0.18      0.00
  -10    9    1      2.62      0.00
   -9    9    1     -0.85      0.00
   -8    9    1     -3.47      0.00
   -7    9    1      2.42      0.00
   -6    9    1      3.99      0.00
   -5    9    1      1.81      0.00
   -4    9    1     -0.99      0.00
   -3    9    1     -7.99      0.00
   -2    9    1     -1.16      0.00
   -1    9    1      7.75      0.00
    0    9    1      0.10      0.00
    1    9    1     -7.17      0.00
    2    9    1      2.29      0.00
    3    9    1      5.73      0.00
    4    9    1     -1.44      0.00
    5    9    1     -1.04      0.00
    6    9    1      0.91      0.00
    7    9    1      1.56      0.00
    8    9    1     -2.64      0.00
    9    9    1     -3.28      0.00
   10    9    1      3.78      0.00
   11    9    1      0.98      0.00
   12    9    1     -1.84      0.00
   13    9    1     -0.21      0.00
   14    9    1     -0.79      0.00
   15    9    1      0.74      0.00
   16    9    1      0.96      0.00
  -15   10    1     -0.17      0.00
  -14   10    1      0.23      0.00
  -13   10    1      0.79      0.00
  -12   10    1     -1.30      0.00
  -11   10    1     -1.72      0.00
  -10   10    1     -0.45      0.00
   -9   10    1     -0.07      0.00
   -8   10    1     -0.75      0.00
   -7   10    1     -0.82      0.00
   -6   10    1      6.23      0.00
   -5   10    1      3.68      0.00
   -4   10    1     -6.35      0.00
   -3   10    1     -1.96      0.00
   -2   10    1      1.12      0.00
   -1   10    1      0.30      0.00
    0   10    1     -0.85      0.00
    1   10    1      1.05      0.00
    2   10    1      0.61      0.00
    3   10    1     -0.53      0.00
    4   10    1      3.91      0.00
    5   10    1     -1.12      0.00
    6   10    1     -5.05      0.00
    7   10    1      2.17      0.00
    8   10    1      2.58      0.00
    9   10    1     -0.78      0.00
   10   10    1     -2.39      0.00
   11   10    1      0.20      0.00
   12   10    1      1.47      0.00
   13   10    1     -0.86      0.00
   14   10    1     -1.04      0.00
   15   10    1      0.12      0.00
  -14   11    1     -0.55      0.00
  -13   11    1      1.06      0.00
  -12   11    1     -0.20      0.00
  -11   11    1     -2.02      0.00
  -10   11    1     -1.26      0.00
   -9   11    1      1.99      0.00
   -8   11    1      1.03      0.00
   -7   11    1     -1.19      0.00
   -6   11    1      0.52      0.00
   -5   11    1     -0.97      0.00
   -4   11    1     -0.52      0.00
   -3   11    1      3.68      0.00
   -2   11    1      0.37      0.00
   -1   11    1     -5.40      0.00
    0   11    1     -0.12      0.00
    1   11    1      6.05      0.00
    2   11    1      1.95      0.00
    3   11    1     -3.66      0.00
    4   11    1     -3.78      0.00
    5   11    1      0.68      0.00
    6   11    1      2.19      0.00
    7   11    1     -0.13      0.00
    8   11    1      2.09      0.00
    9   11    1      0.12      0.00
   10   11    1     -2.02      0.00
   11   11    1     -0.04      0.00
   12   11    1      0.22      0.00
   13   11    1     -1.01      0.00
   14   11    1      0.48      0.00
  -14   12    1     -0.14      0.00
  -13   12    1     -0.85      0.00
  -12   12    1     -0.98      0.00
  -11   12    1      1.61      0.00
  -10   12    1      3.13      0.00
   -9   12    1     -1.13      0.00
   -8   12    1     -3.51      0.00
   -7   12    1      2.55      0.00
   -6   12    1     -0.76      0.00
   -5   12    1     -4.17      0.00
   -4   12    1      2.41      0.00
   -3   12    1      1.02      0.00
   -2   12    1      0.70      0.00
   -1   12    1      0.25      0.00
    0   12    1     -1.10      0.00
    1   12    1      2.09      0.00
    2   12    1      1.94      0.00
    3   12    1     -0.51      0.00
    4   12    1     -2.50      0.00
    5   12    1     -2.05      0.00
    6   12    1     -1.28      0.00
    7   12    1      2.23      0.00
    8   12    1      4.53      0.00
    9   12    1     -0.49      0.00
   10   12    1     -3.14      0.00
   11   12    1     -0.64      0.00
   12   12    1      0.23      0.00
   13   12    1      1.54      0.00
   14   12    1      0.98      0.00
  -13   13    1     -0.80      0.00
  -12   13    1      1.03      0.00
  -11   13    1      0.85      0.00
  -10   13    1     -0.74      0.00
   -9   13    1      0.23      0.00
   -8   13    1      0.89      0.00
   -7   13    1     -2.39      0.00
   -6   13    1     -2.08      0.00
   -5   13    1      2.00      0.00
   -4   13    1     -1.04      0.00
   -3   13    1      0.32      0.00
   -2   13    1      1.00      0.00
   -1   13    1     -0.05      0.00
    0   13    1      0.74      0.00
    1   13    1     -0.96      0.00
    2   13    1      0.35      0.00
    3   13    1      1.32      0.00
    4   13    1      1.39      0.00
    5   13    1     -2.95      0.00
    6   13    1     -2.22      0.00
    7   13    1      2.56      0.00
    8   13    1      0.15      0.00
    9   13    1      0.18      0.00
   10   13    1     -1.40      0.00
   11   13    1     -1.41      0.00
   12   13    1      1.71      0.00
   13   13    1      1.25      0.00
  -12   14    1      0.70      0.00
  -11   14    1      0.36      0.00
  -10   14    1     -0.69      0.00
   -9   14    1     -2.44      0.00
   -8   14    1      1.39      0.00
   -7   14    1      1.63      0.00
   -6   14    1     -1.19      0.00
   -5   14    1     -1.94      0.00
   -4   14    1      1.71      0.00
   -3   14    1      1.52      0.00
   -2   14    1     -1.82      0.00
   -1   14    1     -0.42      0.00
    0   14    1      0.15      0.00
    1   14    1     -0.57      0.00
    2   14    1     -0.26      0.00
    3   14    1      0.86      0.00
    4   14    1     -1.17      0.00
    5   14    1      0.04      0.00
    6   14    1      2.58      0.00
    7   14    1     -0.11      0.00
    8   14    1     -1.55      0.00
    9   14    1     -2.78      0.00
   10   14    1      0.97      0.00
   11   14    1      0.78      0.00
   12   14    1     -0.97      0.00
  -11   15    1     -0.01      0.00
  -10   15    1     -1.08      0.00
   -9   15    1      0.37      0.00
   -8   15    1     -0.42      0.00
   -7   15    1      1.41      0.00
   -6   15    1      0.94      0.00
   -5   15    1     -0.56      0.00
   -4   15    1      1.02      0.00
   -3   15    1     -1.50      0.00
   -2   15    1     -0.55      0.00
   -1   15    1      1.19      0.00
    0   15    1     -0.55      0.00
    1   15    1     -0.82      0.00
    2   15    1     -1.52      0.00
    3   15    1     -0.69      0.00
    4   15    1      1.23      0.00
    5   15    1      2.05      0.00
    6   15    1     -0.28      0.00
    7   15    1     -0.60      0.00
    8   15    1     -0.73      0.00
    9   15    1     -0.35      0.00
   10   15    1      0.65      0.00
   11   15    1     -0.13      0.00
  -10   16    1     -0.80      0.00
   -9   16    1      1.57      0.00
   -8   16    1      0.97      0.00
   -7   16    1     -0.61      0.00
   -6   16    1      0.62      0.00
   -5   16    1      2.17      0.00
   -4   16    1     -2.10      0.00
   -3   16    1      0.15      0.00
   -2   16    1      1.09      0.00
   -1   16    1     -1.53      0.00
    0   16    1      1.19      0.00
    1   16    1     -0.49      0.00
    2   16    1     -1.24      0.00
    3   16    1     -0.38      0.00
    4   16    1      1.06      0.00
    5   16    1      0.52      0.00
    6   16    1      0.36      0.00
    7   16    1     -0.52      0.00
    8   16    1     -1.52      0.00
    9   16    1      3.18      0.00
   10   16    1      0.38      0.00
   -8   17    1      0.53      0.00
   -7   17    1      0.04      0.00
   -6   17    1      0.83      0.00
   -5   17    1      0.03      0.00
   -4   17    1      1.39      0.00
   -3   17    1      0.36      0.00
   -2   17    1     -1.98      0.00
   -1   17    1      0.03      0.00
    0   17    1      0.35      0.00
    1   17    1      1.12      0.00
    2   17    1     -0.09      0.00
    3   17    1     -0.52      0.00
    4   17    1     -0.73      0.00
    5   17    1      0.22      0.00
    6   17    1      1.62      0.00
    7   17    1     -1.47      0.00
    8   17    1      1.37      0.00
   -6   18    1     -0.44      0.00
   -5   18    1      1.58      0.00
   -4   18    1      0.79      0.00
   -3   18    1     -1.07      0.00
   -2   18    1      0.43      0.00
   -1   18    1      0.16      0.00
    0   18    1     -1.04      0.00
    1   18    1      0.38      0.00
    2   18    1      0.67      0.00
    3   18    1     -0.24      0.00
    4   18    1      0.38      0.00
    5   18    1      1.29      0.00
    6   18    1     -1.70      0.00
   -2   19    1     -0.29      0.00
   -1   19    1     -1.00      0.00
    0   19    1      0.42      0.00
    1   19    1     -0.44      0.00
    2   19    1      0.48      0.00
  -18    0    2     -1.73      0.00
  -16    0    2     -1.73      0.00
  -14    0    2      2.62      0.00
  -12    0    2     -3.51      0.00
  -10    0    2      6.06      0.00
   -8    0    2     -3.59      0.00
   -6    0    2     -3.46      0.00
   -4    0    2     21.47      0.00
   -2    0    2   -109.94      0.00
    2    0    2    -79.86      0.00
    4    0    2     15.46      0.00
    6    0    2    -11.09      0.00
    8    0    2      6.84      0.00
   10    0    2     -1.06      0.00
   12    0    2      0.00      0.00
   14    0    2      0.03      0.00
   16    0    2      2.84      0.00
   18    0    2     -1.31      0.00
  -18    1    2     -0.12      0.00
  -17    1    2     -4.26      0.00
  -16    1    2      0.58      0.00
  -15    1    2      2.47      0.00
  -14    1    2     -2.10      0.00
  -13    1    2     -1.33      0.00
  -12    1    2      3.13      0.00
  -11    1    2      1.76      0.00
  -10    1    2     -2.40      0.00
   -9    1    2     -2.44      0.00
   -8    1    2     -0.08      0.00
   -7    1    2      4.02      0.00
   -6    1    2     -0.45      0.00
   -5    1    2     -0.20      0.00
   -4    1    2     -3.69      0.00
   -3    1    2    -19.45      0.00
   -2    1    2     35.80      0.00
   -1    1    2      1.55      0.00
    1    1    2     46.05      0.00
    2    1    2     25.87      0.00
    3    1    2    -30.47      0.00
    4    1    2     10.46      0.00
    5    1    2      3.00      0.00
    6    1    2    -14.24      0.00
    7    1    2     -0.71      0.00
    8    1    2      8.36      0.00
    9    1    2      1.58      0.00
   10    1    2     -1.63      0.00
   11    1    2     -0.29      0.00
   12    1    2     -1.73      0.00
   13    1    2     -0.89      0.00
   14    1    2      1.23      0.00
   15    1    2      0.27      0.00
   16    1    2      0.58      0.00
   17    1    2      2.29      0.00
   18    1    2      0.52      0.00
  -18    2    2      0.55      0.00
  -17    2    2     -3.28      0.00
  -16    2    2      0.00      0.00
  -15    2    2      1.75      0.00
  -14    2    2      0.01      0.00
  -13    2    2      0.22      0.00
  -12    2    2      1.23      0.00
  -11    2    2     -0.29      0.00
  -10    2    2     -3.30      0.00
   -9    2    2      0.70      0.00
   -8    2    2      0.86      0.00
   -7    2    2     -2.42      0.00
   -6    2    2      8.31      0.00
   -5    2    2     -4.19      0.00
   -4    2    2    -18.54      0.00
   -3    2    2     23.99      0.00
   -2    2    2     37.91      0.00
   -1    2    2    -17.40      0.00
    0    2    2    -53.92      0.00
    1    2    2    -25.01      0.00
    2    2    2     37.58      0.00
    3    2    2     30.36      0.00
    4    2    2    -19.77      0.00
    5    2    2    -16.42      0.00
    6    2    2      9.65      0.00
    7    2    2      9.17      0.00
    8    2    2     -3.28      0.00
    9    2    2     -0.95      0.00
   10    2    2     -0.32      0.00
   11    2    2     -1.84      0.00
   12    2    2     -0.55      0.00
   13    2    2     -1.53      0.00
   14    2    2     -0.10      0.00
   15    2    2      1.87      0.00
   16    2    2     -0.12      0.00
   17    2    2      1.26      0.00
   18    2    2      0.61      0.00
  -17    3    2      4.16      0.00
  -16    3    2     -0.55      0.00
  -15    3    2     -2.97      0.00
  -14    3    2      0.01      0.00
  -13    3    2      3.52      0.00
  -12    3    2      0.04      0.00
  -11    3    2     -4.75      0.00
  -10    3    2      1.89      0.00
   -9    3    2      4.20      0.00
   -8    3    2      0.24      0.00
   -7    3    2     -4.49      0.00
   -6    3    2     -5.36      0.00
   -5    3    2      6.92      0.00
   -4    3    2      7.19      0.00
   -3    3    2      1.70      0.00
   -2    3    2     -0.62      0.00
   -1    3    2      9.27      0.00
    0    3    2      2.59      0.00
    1    3    2    -40.59      0.00
    2    3    2     -2.83      0.00
    3    3    2     22.37      0.00
    4    3    2     -0.22      0.00
    5    3    2     -1.45      0.00
    6    3    2     -0.17      0.00
    7    3    2     -1.24      0.00
    8    3    2      4.21      0.00
    9    3    2     -0.01      0.00
   10    3    2     -1.80      0.00
   11    3    2     -1.33      0.00
   12    3    2     -2.77      0.00
   13    3    2      1.67      0.00
   14    3    2      1.07      0.00
   15    3    2     -0.03      0.00
   16    3    2      0.35      0.00
   17    3    2     -1.99      0.00
  -17    4    2     -0.03      0.00
  -16    4    2      0.75      0.00
  -15    4    2     -0.52      0.00
  -14    4    2     -2.37      0.00
  -13    4    2     -1.45      0.00
  -12    4    2      1.89      0.00
  -11    4    2      2.72      0.00
  -10    4    2     -3.25      0.00
   -9    4    2     -0.39      0.00
   -8    4    2      4.68      0.00
   -7    4    2     -0.14      0.00
   -6    4    2     -3.20      0.00
   -5    4    2      1.24      0.00
   -4    4    2     -0.98      0.00
   -3    4    2     -9.33      0.00
   -2    4    2     22.85      0.00
   -1    4    2     15.13      0.00
    0    4    2    -36.81      0.00
    1    4    2     10.09      0.00
    2    4    2     12.18      0.00
    3    4    2    -20.59      0.00
    4    4    2      2.92      0.00
    5    4    2     10.85      0.00
    6    4    2     -1.15      0.00
    7    4    2     -2.72      0.00
    8    4    2     -2.40      0.00
    9    4    2      1.65      0.00
   10    4    2      1.42      0.00
   11    4    2     -2.73      0.00
   12    4    2      1.92      0.00
   13    4    2      1.34      0.00
   14    4    2     -1.17      0.00
   15    4    2     -1.25      0.00
   16    4    2     -0.12      0.00
   17    4    2      1.71      0.00
  -17    5    2      3.27      0.00
  -16    5    2     -2.47      0.00
  -15    5    2     -2.19      0.00
  -14    5    2      1.45      0.00
  -13    5    2     -1.82      0.00
  -12    5    2     -2.48      0.00
  -11    5    2      1.56      0.00
  -10    5    2      3.46      0.00
   -9    5    2     -1.15      0.00
   -8    5    2     -4.07      0.00
   -7    5    2      4.09      0.00
   -6    5    2      6.74      0.00
   -5    5    2     -6.40      0.00
   -4    5    2     -9.13      0.00
   -3    5    2      9.89      0.00
   -2    5    2      0.20      0.00
   -1    5    2     -6.67      0.00
    0    5    2     15.69      0.00
    1    5    2     -1.00      0.00
    2    5    2     -6.44      0.00
    3    5    2      5.35      0.00
    4    5    2    -13.33      0.00
    5    5    2     -4.87      0.00
    6    5    2     15.27      0.00
    7    5    2      3.44      0.00
    8    5    2     -6.48      0.00
    9    5    2     -2.18      0.00
   10    5    2     -1.57      0.00
   11    5    2      2.63      0.00
   12    5    2      2.21      0.00
   13    5    2      0.15      0.00
   14    5    2     -0.49      0.00
   15    5    2     -2.47      0.00
   16    5    2      1.55      0.00
   17    5    2      2.39      0.00
  -17    6    2     -0.60      0.00
  -16    6    2      0.63      0.00
  -15    6    2     -0.78      0.00
  -14    6    2     -0.14      0.00
  -13    6    2      0.22      0.00
  -12    6    2     -1.19      0.00
  -11    6    2     -0.27      0.00
  -10    6    2      3.46      0.00
   -9    6    2      0.20      0.00
   -8    6    2     -3.07      0.00
   -7    6    2     -0.57      0.00
   -6    6    2     -0.24      0.00
   -5    6    2     -0.29      0.00
   -4    6    2      6.97      0.00
   -3    6    2      0.06      0.00
   -2    6    2    -14.68      0.00
   -1    6    2     -2.41      0.00
    0    6    2     20.27      0.00
    1    6    2      5.89      0.00
    2    6    2    -13.56      0.00
    3    6    2    -11.18      0.00
    4    6    2      5.85      0.00
    5    6    2      7.24      0.00
    6    6    2     -4.05      0.00
    7    6    2      0.74      0.00
    8    6    2      3.83      0.00
    9    6    2     -5.17      0.00
   10    6    2     -0.18      0.00
   11    6    2      1.47      0.00
   12    6    2      1.01      0.00
   13    6    2      1.25      0.00
   14    6    2     -1.94      0.00
   15    6    2      1.17      0.00
   16    6    2     -0.56      0.00
   17    6    2     -0.31      0.00
  -16    7    2      0.73      0.00
  -15    7    2      3.43      0.00
  -14    7    2     -0.47      0.00
  -13    7    2     -2.16      0.00
  -12    7    2      1.06      0.00
  -11    7    2      3.55      0.00
  -10    7    2     -2.60      0.00
   -9    7    2     -3.06      0.00
   -8    7    2      3.95      0.00
   -7    7    2      0.33      0.00
   -6    7    2     -8.12      0.00
   -5    7    2     -0.82      0.00
   -4    7    2     10.06      0.00
   -3    7    2      4.66      0.00
   -2    7    2     -6.43      0.00
   -1    7    2     -7.54      0.00
    0    7    2      0.43      0.00
    1    7    2      9.37      0.00
    2    7    2     -5.78      0.00
    3    7    2     -7.93      0.00
    4    7    2      9.30      0.00
    5    7    2      1.60      0.00
    6    7    2     -2.56      0.00
    7    7    2      2.72      0.00
    8    7    2     -2.33      0.00
    9    7    2     -0.58      0.00
   10    7    2      0.59      0.00
   11    7    2      1.18      0.00
   12    7    2      0.71      0.00
   13    7    2     -1.46      0.00
   14    7    2     -0.02      0.00
   15    7    2     -1.18      0.00
   16    7    2      0.17      0.00
  -16    8    2      1.32      0.00
  -15    8    2      0.74      0.00
  -14    8    2      0.09      0.00
  -13    8    2     -0.13      0.00
  -12    8    2     -0.35      0.00
  -11    8    2     -0.52      0.00
  -10    8    2      0.59      0.00
   -9    8    2      1.87      0.00
   -8    8    2     -1.85      0.00
   -7    8    2     -3.58      0.00
   -6    8    2     -1.39      0.00
   -5    8    2      1.09      0.00
   -4    8    2      4.83      0.00
   -3    8    2      2.38      0.00
   -2    8    2     -3.99      0.00
   -1    8    2     -1.86      0.00
    0    8    2      1.64      0.00
    1    8    2     -5.16      0.00
    2    8    2     -2.47      0.00
    3    8    2      9.52      0.00
    4    8    2      0.49      0.00
    5    8    2     -3.97      0.00
    6    8    2      0.53      0.00
    7    8    2     -0.32      0.00
    8    8    2      2.95      0.00
    9    8    2      0.86      0.00
   10    8    2     -1.82      0.00
   11    8    2      1.23      0.00
   12    8    2     -0.70      0.00
   13    8    2     -1.45      0.00
   14    8    2     -0.48      0.00
   15    8    2     -0.69      0.00
   16    8    2      1.10      0.00
  -16    9    2     -0.06      0.00
  -15    9    2     -0.18      0.00
  -14    9    2     -0.61      0.00
  -13    9    2      1.46      0.00
  -12    9    2      2.04      0.00
  -11    9    2     -2.63      0.00
  -10    9    2     -0.20      0.00
   -9    9    2      2.22      0.00
   -8    9    2     -0.58      0.00
   -7    9    2     -5.34      0.00
   -6    9    2     -0.85      0.00
   -5    9    2      7.02      0.00
   -4    9    2     -1.60      0.00
   -3    9    2     -6.09      0.00
   -2    9    2      2.97      0.00
   -1    9    2      4.89      0.00
    0    9    2     -3.08      0.00
    1    9    2     -4.85      0.00
    2    9    2      3.43      0.00
    3    9    2      0.65      0.00
    4    9    2      1.25      0.00
    5    9    2      4.83      0.00
    6    9    2     -5.27      0.00
    7    9    2     -5.59      0.00
    8    9    2      4.03      0.00
    9    9    2      4.99      0.00
   10    9    2      0.39      0.00
   11    9    2     -3.47      0.00
   12    9    2     -1.08      0.00
   13    9    2      1.12      0.00
   14    9    2     -0.06      0.00
   15    9    2     -0.19      0.00
   16    9    2     -0.90      0.00
  -15   10    2     -0.41      0.00
  -14   10    2      0.06      0.00
  -13   10    2      0.22      0.00
  -12   10    2      0.33      0.00
  -11   10    2      1.26      0.00
  -10   10    2     -2.12      0.00
   -9   10    2     -1.69      0.00
   -8   10    2      3.51      0.00
   -7   10    2      2.27      0.00
   -6   10    2     -1.34      0.00
   -5   10    2     -2.56      0.00
   -4   10    2     -3.41      0.00
   -3   10    2     -0.39      0.00
   -2   10    2      4.90      0.00
   -1   10    2      1.73      0.00
    0   10    2     -5.06      0.00
    1   10    2     -1.41      0.00
    2   10    2      4.93      0.00
    3   10    2      2.22      0.00
    4   10    2     -2.40      0.00
    5   10    2     -2.48      0.00
    6   10    2      1.90      0.00
    7   10    2     -0.94      0.00
    8   10    2     -2.59      0.00
    9   10    2      4.07      0.00
   10   10    2      1.81      0.00
   11   10    2     -2.73      0.00
   12   10    2     -0.44      0.00
   13   10    2     -0.13      0.00
   14   10    2     -0.50      0.00
   15   10    2      1.63      0.00
  -14   11    2     -0.48      0.00
  -13   11    2     -0.06      0.00
  -12   11    2     -1.93      0.00
  -11   11    2     -1.27      0.00
  -10   11    2      3.20      0.00
   -9   11    2      3.82      0.00
   -8   11    2     -2.72      0.00
   -7   11    2     -0.17      0.00
   -6   11    2      5.23      0.00
   -5   11    2     -3.84      0.00
   -4   11    2     -4.71      0.00
   -3   11    2      1.60      0.00
   -2   11    2      1.63      0.00
   -1   11    2      0.98      0.00
    0   11    2     -1.62      0.00
    1   11    2     -0.25      0.00
    2   11    2      1.50      0.00
    3   11    2      1.83      0.00
    4   11    2     -1.38      0.00
    5   11    2     -1.45      0.00
    6   11    2      0.49      0.00
    7   11    2     -0.71      0.00
    8   11    2      0.70      0.00
    9   11    2      0.59      0.00
   10   11    2      0.75      0.00
   11   11    2      0.12      0.00
   12   11    2     -2.95      0.00
   13   11    2     -1.01      0.00
   14   11    2      2.83      0.00
  -14   12    2      0.99      0.00
  -13   12    2     -0.79      0.00
  -12   12    2     -1.05      0.00
  -11   12    2      1.67      0.00
  -10   12    2      2.15      0.00
   -9   12    2      0.03      0.00
   -8   12    2     -0.39      0.00
   -7   12    2      0.38      0.00
   -6   12    2     -1.83      0.00
   -5   12    2      0.81      0.00
   -4   12    2      2.18      0.00
   -3   12    2     -1.28      0.00
   -2   12    2     -1.20      0.00
   -1   12    2     -0.09      0.00
    0   12    2      3.07      0.00
    1   12    2      0.92      0.00
    2   12    2     -3.04      0.00
    3   12    2     -2.84      0.00
    4   12    2      2.16      0.00
    5   12    2      3.19      0.00
    6   12    2     -1.49      0.00
    7   12    2      0.40      0.00
    8   12    2     -0.06      0.00
    9   12    2     -0.79      0.00
   10   12    2     -0.24      0.00
   11   12    2     -1.23      0.00
   12   12    2     -0.03      0.00
   13   12    2      1.04      0.00
   14   12    2      0.06      0.00
  -13   13    2     -0.88      0.00
  -12   13    2      1.43      0.00
  -11   13    2      1.49      0.00
  -10   13    2      0.45      0.00
   -9   13    2     -1.82      0.00
   -8   13    2     -0.70      0.00
   -7   13    2      0.33      0.00
   -6   13    2     -1.09      0.00
   -5   13    2      0.42      0.00
   -4   13    2      0.44      0.00
   -3   13    2      2.29      0.00
   -2   13    2      0.87      0.00
   -1   13    2     -2.00      0.00
    0   13    2      0.82      0.00
    1   13    2      1.91      0.00
    2   13    2     -1.29      0.00
    3   13    2     -2.53      0.00
    4   13    2     -0.88      0.00
    5   13    2     -0.53      0.00
    6   13    2      2.56      0.00
    7   13    2      3.04      0.00
    8   13    2     -0.15      0.00
    9   13    2     -3.54      0.00
   10   13    2     -1.71      0.00
   11   13    2      1.89      0.00
   12   13    2      0.60      0.00
   13   13    2     -0.07      0.00
  -12   14    2     -0.65      0.00
  -11   14    2      0.70      0.00
  -10   14    2      0.05      0.00
   -9   14    2      0.06      0.00
   -8   14    2     -1.15      0.00
   -7   14    2     -1.70      0.00
   -6   14    2      1.18      0.00
   -5   14    2     -1.25      0.00
   -4   14    2      1.59      0.00
   -3   14    2      2.48      0.00
   -2   14    2     -2.29      0.00
   -1   14    2      0.45      0.00
    0   14    2      0.57      0.00
    1   14    2      0.51      0.00
    2   14    2     -0.16      0.00
    3   14    2     -1.26      0.00
    4   14    2     -1.95      0.00
    5   14    2     -0.12      0.00
    6   14    2      2.60      0.00
    7   14    2      0.46      0.00
    8   14    2     -0.68      0.00
    9   14    2     -1.15      0.00
   10   14    2     -0.43      0.00
   11   14    2      1.33      0.00
   12   14    2      1.09      0.00
  -11   15    2     -0.71      0.00
  -10   15    2     -1.84      0.00
   -9   15    2      0.30      0.00
   -8   15    2      2.36      0.00
   -7   15    2     -0.29      0.00
   -6   15    2     -3.40      0.00
   -5   15    2      1.82      0.00
   -4   15    2      1.76      0.00
   -3   15    2     -3.22      0.00
   -2   15    2      1.56      0.00
   -1   15    2      0.11      0.00
    0   15    2     -0.23      0.00
    1   15    2      0.40      0.00
    2   15    2     -0.73      0.00
    3   15    2     -0.72      0.00
    4   15    2      0.12      0.00
    5   15    2      2.06      0.00
    6   15    2     -0.15      0.00
    7   15    2     -0.13      0.00
    8   15    2     -2.72      0.00
    9   15    2     -0.16      0.00
   10   15    2      3.21      0.00
   11   15    2     -0.61      0.00
   -9   16    2      0.29      0.00
   -8   16    2     -0.19      0.00
   -7   16    2      1.32      0.00
   -6   16    2      0.09      0.00
   -5   16    2     -1.68      0.00
   -4   16    2     -1.60      0.00
   -3   16    2      2.01      0.00
   -2   16    2      0.20      0.00
   -1   16    2     -0.29      0.00
    0   16    2     -0.07      0.00
    1   16    2     -1.47      0.00
    2   16    2      0.03      0.00
    3   16    2      1.04      0.00
    4   16    2      1.28      0.00
    5   16    2     -1.07      0.00
    6   16    2      0.71      0.00
    7   16    2     -0.75      0.00
    8   16    2     -0.79      0.00
    9   16    2      1.79      0.00
   -8   17    2      0.56      0.00
   -7   17    2     -0.48      0.00
   -6   17    2      0.25      0.00
   -5   17    2     -0.79      0.00
   -4   17    2     -0.13      0.00
   -3   17    2      0.50      0.00
   -2   17    2     -0.91      0.00
   -1   17    2      1.82      0.00
    0   17    2      0.04      0.00
    1   17    2     -1.71      0.00
    2   17    2     -0.64      0.00
    3   17    2      0.27      0.00
    4   17    2      0.37      0.00
    5   17    2      1.49      0.00
    6   17    2      0.21      0.00
    7   17    2     -1.79      0.00
    8   17    2      1.00      0.00
   -6   18    2      0.51      0.00
   -5   18    2      0.07      0.00
   -4   18    2     -0.28      0.00
   -3   18    2     -1.69      0.00
   -2   18    2      1.51      0.00
   -1   18    2      0.09      0.00
    0   18    2      0.24      0.00
    1   18    2      0.10      0.00
    2   18    2     -1.80      0.00
    3   18    2      0.16      0.00
    4   18    2      0.74      0.00
    5   18    2      0.90      0.00
    6   18    2     -0.94      0.00
   -2   19    2     -0.54      0.00
   -1   19    2     -0.67      0.00
    0   19    2      0.07      0.00
    1   19    2     -0.01      0.00
    2   19    2      1.12      0.00
  -17    0    3      0.52      0.00
  -15    0    3      0.80      0.00
  -13    0    3     -2.74      0.00
  -11    0    3      4.18      0.00
   -9    0    3     -1.54      0.00
   -7    0    3      1.62      0.00
   -5    0    3      0.62      0.00
   -3    0    3    -23.49      0.00
    3    0    3     -1.02      0.00
    5    0    3     14.99      0.00
    7    0    3    -13.52      0.00
    9    0    3      7.00      0.00
   11    0    3      0.29      0.00
   13    0    3     -2.23      0.00
   15    0    3      0.26      0.00
   17    0    3      0.95      0.00
  -18    1    3      1.88      0.00
  -17    1    3     -0.75      0.00
  -16    1    3     -1.53      0.00
  -15    1    3      1.49      0.00
  -14    1    3      0.31      0.00
  -13    1    3     -2.71      0.00
  -12    1    3     -0.09      0.00
  -11    1    3      4.64      0.00
  -10    1    3      0.74      0.00
   -9    1    3     -5.63      0.00
   -8    1    3      0.61      0.00
   -7    1    3     -0.31      0.00
   -6    1    3      1.07      0.00
   -5    1    3      7.50      0.00
   -4    1    3    -11.04      0.00
   -3    1    3    -31.50      0.00
   -2    1    3     15.99      0.00
   -1    1    3     74.24      0.00
    0    1    3      8.39      0.00
    1    1    3    -59.82      0.00
    2    1    3    -19.70      0.00
    3    1    3     20.67      0.00
    4    1    3     10.26      0.00
    5    1    3    -13.03      0.00
    6    1    3     -7.95      0.00
    7    1    3      9.27      0.00
    8    1    3      4.47      0.00
    9    1    3     -2.46      0.00
   10    1    3      1.31      0.00
   11    1    3      0.18      0.00
   12    1    3     -0.98      0.00
   13    1    3      0.01      0.00
   14    1    3     -1.18      0.00
   15    1    3      0.84      0.00
   16    1    3      0.45      0.00
   17    1    3     -1.84      0.00
   18    1    3      1.63      0.00
  -18    2    3     -4.78      0.00
  -17    2    3      0.71      0.00
  -16    2    3      4.31      0.00
  -15    2    3     -1.18      0.00
  -14    2    3     -2.48      0.00
  -13    2    3      0.89      0.00
  -12    2    3      1.77      0.00
  -11    2    3     -2.98      0.00
  -10    2    3     -2.35      0.00
   -9    2    3      1.93      0.00
   -8    2    3      4.61      0.00
   -7    2    3      1.37      0.00
   -6    2    3     -8.93      0.00
   -5    2    3     -5.35      0.00
   -4    2    3      3.96      0.00
   -3    2    3      9.69      0.00
   -2    2    3     -2.11      0.00
    0    2    3     37.88      0.00
    1    2    3     27.43      0.00
    2    2    3    -39.53      0.00
    3    2    3     -0.01      0.00
    4    2    3      7.36      0.00
    5    2    3    -10.65      0.00
    6    2    3     -0.87      0.00
    7    2    3      5.84      0.00
    8    2    3      3.98      0.00
    9    2    3      0.48      0.00
   10    2    3     -3.00      0.00
   11    2    3      0.00      0.00
   12    2    3     -0.52      0.00
   13    2    3     -0.70      0.00
   14    2    3      2.05      0.00
   15    2    3     -0.59      0.00
   16    2    3      0.71      0.00
   17    2    3      0.23      0.00
   18    2    3     -2.30      0.00
  -17    3    3     -0.71      0.00
  -16    3    3      1.05      0.00
  -15    3    3      1.89      0.00
  -14    3    3     -0.73      0.00
  -13    3    3     -1.19      0.00
  -12    3    3     -2.04      0.00
  -11    3    3      0.15      0.00
  -10    3    3     -0.82      0.00
   -9    3    3      0.01      0.00
   -8    3    3      2.47      0.00
   -7    3    3      4.08      0.00
   -6    3    3     -3.96      0.00
   -5    3    3     -9.07      0.00
   -4    3    3     12.16      0.00
   -3    3    3      4.22      0.00
   -2    3    3    -25.20      0.00
    0    3    3     -4.79      0.00
    1    3    3     -0.80      0.00
    2    3    3     33.31      0.00
    3    3    3    -11.73      0.00
    4    3    3    -22.60      0.00
    5    3    3      6.90      0.00
    6    3    3      9.08      0.00
    7    3    3     -0.97      0.00
    8    3    3     -2.23      0.00
    9    3    3     -1.39      0.00
   10    3    3      0.07      0.00
   11    3    3     -1.57      0.00
   12    3    3     -1.02      0.00
   13    3    3      2.51      0.00
   14    3    3      1.35      0.00
   15    3    3     -0.06      0.00
   16    3    3     -2.48      0.00
   17    3    3     -0.02      0.00
  -17    4    3      1.34      0.00
  -16    4    3      0.07      0.00
  -15    4    3     -1.15      0.00
  -14    4    3      1.96      0.00
  -13    4    3      0.51      0.00
  -12    4    3     -3.30      0.00
  -11    4    3     -2.10      0.00
  -10    4    3      2.09      0.00
   -9    4    3      2.30      0.00
   -8    4    3     -1.61      0.00
   -7    4    3     -3.40      0.00
   -6    4    3      5.94      0.00
   -5    4    3      6.06      0.00
   -4    4    3    -13.94      0.00
   -3    4    3     -1.13      0.00
   -2    4    3     17.92      0.00
   -1    4    3    -13.40      0.00
    0    4    3    -16.34      0.00
    1    4    3     10.87      0.00
    2    4    3      7.36      0.00
    3    4    3      4.94      0.00
    4    4    3      0.30      0.00
    5    4    3    -13.23      0.00
    6    4    3     -1.61      0.00
    7    4    3     10.22      0.00
    8    4    3      0.11      0.00
    9    4    3     -3.11      0.00
   10    4    3     -0.97      0.00
   11    4    3     -2.40      0.00
   12    4    3      0.97      0.00
   13    4    3      1.72      0.00
   14    4    3      0.94      0.00
   15    4    3     -0.99      0.00
   16    4    3     -1.75      0.00
   17    4    3     -0.49      0.00
  -17    5    3     -0.90      0.00
  -16    5    3      1.43      0.00
  -15    5    3     -0.61      0.00
  -14    5    3     -1.01      0.00
  -13    5    3      1.58      0.00
  -12    5    3      1.59      0.00
  -11    5    3     -4.28      0.00
  -10    5    3     -0.71      0.00
   -9    5    3      5.28      0.00
   -8    5    3      0.48      0.00
   -7    5    3     -2.10      0.00
   -6    5    3      1.36      0.00
   -5    5    3     -4.22      0.00
   -4    5    3     -2.22      0.00
   -3    5    3      9.50      0.00
   -2    5    3      8.11      0.00
   -1    5    3    -18.06      0.00
    0    5    3     -4.29      0.00
    1    5    3     14.86      0.00
    2    5    3     -3.64      0.00
    3    5    3     -7.23      0.00
    4    5    3      0.85      0.00
    5    5    3      5.18      0.00
    6    5    3      0.02      0.00
    7    5    3     -5.96      0.00
    8    5    3      2.47      0.00
    9    5    3      3.03      0.00
   10    5    3     -2.72      0.00
   11    5    3      1.04      0.00
   12    5    3      0.55      0.00
   13    5    3     -0.09      0.00
   14    5    3      0.12      0.00
   15    5    3      0.08      0.00
   16    5    3      0.28      0.00
   17    5    3     -2.08      0.00
  -17    6    3     -0.54      0.00
  -16    6    3     -3.49      0.00
  -15    6    3      1.77      0.00
  -14    6    3      1.34      0.00
  -13    6    3     -1.08      0.00
  -12    6    3     -0.50      0.00
  -11    6    3      3.72      0.00
  -10    6    3      0.25      0.00
   -9    6    3     -4.58      0.00
   -8    6    3      2.01      0.00
   -7    6    3      7.34      0.00
   -6    6    3     -2.67      0.00
   -5    6    3     -8.94      0.00
   -4    6    3      0.18      0.00
   -3    6    3      8.34      0.00
   -2    6    3      0.58      0.00
   -1    6    3      3.30      0.00
    0    6    3     -5.10      0.00
    1    6    3     -4.37      0.00
    2    6    3      7.03      0.00
    3    6    3    -12.60      0.00
    4    6    3     -5.07      0.00
    5    6    3     17.74      0.00
    6    6    3      1.92      0.00
    7    6    3     -7.50      0.00
    8    6    3     -2.09      0.00
    9    6    3      0.26      0.00
   10    6    3      2.96      0.00
   11    6    3      1.26      0.00
   12    6    3      0.85      0.00
   13    6    3      0.23      0.00
   14    6    3     -0.47      0.00
   15    6    3      0.36      0.00
   16    6    3     -0.92      0.00
   17    6    3      0.33      0.00
  -16    7    3      0.78      0.00
  -15    7    3      0.06      0.00
  -14    7    3      0.03      0.00
  -13    7    3      0.62      0.00
  -12    7    3      0.84      0.00
  -11    7    3      0.32      0.00
  -10    7    3     -0.37      0.00
   -9    7    3     -0.68      0.00
   -8    7    3      0.04      0.00
   -7    7    3      1.27      0.00
   -6    7    3      1.15      0.00
   -5    7    3      0.41      0.00
   -4    7    3     -1.72      0.00
   -3    7    3     -2.36      0.00
   -2    7    3      1.97      0.00
   -1    7    3      2.98      0.00
    0    7    3      2.87      0.00
    1    7    3     -3.82      0.00
    2    7    3    -12.59      0.00
    3    7    3      4.80      0.00
    4    7    3     11.39      0.00
    5    7    3     -5.87      0.00
    6    7    3     -0.80      0.00
    7    7    3      3.53      0.00
    8    7    3     -4.45      0.00
    9    7    3      0.47      0.00
   10    7    3      2.46      0.00
   11    7    3      0.92      0.00
   12    7    3      1.54      0.00
   13    7    3     -1.19      0.00
   14    7    3     -1.03      0.00
   15    7    3      0.23      0.00
   16    7    3      1.03      0.00
  -16    8    3      0.95      0.00
  -15    8    3     -0.36      0.00
  -14    8    3     -0.64      0.00
  -13    8    3     -0.50      0.00
  -12    8    3      2.52      0.00
  -11    8    3      0.05      0.00
  -10    8    3     -2.70      0.00
   -9    8    3      0.65      0.00
   -8    8    3      1.83      0.00
   -7    8    3     -2.32      0.00
   -6    8    3     -2.73      0.00
   -5    8    3      6.13      0.00
   -4    8    3      7.37      0.00
   -3    8    3     -7.86      0.00
   -2    8    3     -9.78      0.00
   -1    8    3      4.64      0.00
    0    8    3      8.85      0.00
    1    8    3     -5.98      0.00
    2    8    3     -5.39      0.00
    3    8    3      5.90      0.00
    4    8    3      0.26      0.00
    5    8    3      0.56      0.00
    6    8    3      2.69      0.00
    7    8    3     -4.51      0.00
    8    8    3     -1.07      0.00
    9    8    3      0.72      0.00
   10    8    3      1.36      0.00
   11    8    3      1.48      0.00
   12    8    3     -1.83      0.00
   13    8    3     -0.98      0.00
   14    8    3     -0.24      0.00
   15    8    3      0.49      0.00
   16    8    3      1.73      0.00
  -15    9    3     -0.30      0.00
  -14    9    3     -0.68      0.00
  -13    9    3      0.29      0.00
  -12    9    3     -0.20      0.00
  -11    9    3      0.65      0.00
  -10    9    3      0.14      0.00
   -9    9    3     -3.41      0.00
   -8    9    3     -1.56      0.00
   -7    9    3      2.01      0.00
   -6    9    3      2.09      0.00
   -5    9    3      2.26      0.00
   -4    9    3      0.74      0.00
   -3    9    3     -3.07      0.00
   -2    9    3     -3.53      0.00
   -1    9    3      2.22      0.00
    0    9    3      1.35      0.00
    1    9    3     -2.64      0.00
    2    9    3      1.46      0.00
    3    9    3      1.92      0.00
    4    9    3     -0.05      0.00
    5    9    3     -1.65      0.00
    6    9    3     -1.07      0.00
    7    9    3      4.38      0.00
    8    9    3     -1.39      0.00
    9    9    3     -3.04      0.00
   10    9    3      1.95      0.00
   11    9    3     -0.15      0.00
   12    9    3     -1.98      0.00
   13    9    3     -0.35      0.00
   14    9    3     -0.47      0.00
   15    9    3      0.39      0.00
  -15   10    3      0.88      0.00
  -14   10    3      0.19      0.00
  -13   10    3      0.69      0.00
  -12   10    3     -1.15      0.00
  -11   10    3     -3.24      0.00
  -10   10    3     -1.55      0.00
   -9   10    3      2.45      0.00
   -8   10    3      0.73      0.00
   -7   10    3     -3.49      0.00
   -6   10    3      2.79      0.00
   -5   10    3      3.59      0.00
   -4   10    3     -4.39      0.00
   -3   10    3     -0.14      0.00
   -2   10    3      3.06      0.00
   -1   10    3     -0.40      0.00
    0   10    3     -2.83      0.00
    1   10    3      0.26      0.00
    2   10    3      1.38      0.00
    3   10    3      2.17      0.00
    4   10    3      1.18      0.00
    5   10    3     -4.04      0.00
    6   10    3     -1.38      0.00
    7   10    3      2.49      0.00
    8   10    3      2.96      0.00
    9   10    3     -0.08      0.00
   10   10    3     -2.88      0.00
   11   10    3      0.91      0.00
   12   10    3      0.54      0.00
   13   10    3     -2.44      0.00
   14   10    3     -0.55      0.00
   15   10    3      1.32      0.00
  -14   11    3      0.52      0.00
  -13   11    3      0.21      0.00
  -12   11    3     -0.73      0.00
  -11   11    3     -1.81      0.00
  -10   11    3     -0.59      0.00
   -9   11    3      2.65      0.00
   -8   11    3      0.82      0.00
   -7   11    3     -0.84      0.00
   -6   11    3     -1.90      0.00
   -5   11    3     -2.68      0.00
   -4   11    3      2.35      0.00
   -3   11    3      2.15      0.00
   -2   11    3      0.33      0.00
   -1   11    3     -2.09      0.00
    0   11    3     -1.70      0.00
    1   11    3      3.53      0.00
    2   11    3      3.63      0.00
    3   11    3     -2.84      0.00
    4   11    3     -3.52      0.00
    5   11    3      2.19      0.00
    6   11    3      0.57      0.00
    7   11    3     -0.56      0.00
    8   11    3      2.80      0.00
    9   11    3      1.06      0.00
   10   11    3     -1.18      0.00
   11   11    3     -1.95      0.00
   12   11    3     -0.01      0.00
   13   11    3      0.41      0.00
   14   11    3      1.77      0.00
  -14   12    3      0.41      0.00
  -13   12    3     -0.32      0.00
  -12   12    3     -0.65      0.00
  -11   12    3      2.12      0.00
  -10   12    3      1.99      0.00
   -9   12    3     -2.59      0.00
   -8   12    3     -1.39      0.00
   -7   12    3      3.05      0.00
   -6   12    3     -1.18      0.00
   -5   12    3     -3.29      0.00
   -4   12    3     -0.41      0.00
   -3   12    3      1.35      0.00
   -2   12    3      2.22      0.00
   -1   12    3     -1.69      0.00
    0   12    3     -1.36      0.00
    1   12    3      2.45      0.00
    2   12    3      2.87      0.00
    3   12    3     -1.30      0.00
    4   12    3     -2.79      0.00
    5   12    3     -0.32      0.00
    6   12    3     -0.21      0.00
    7   12    3      1.13      0.00
    8   12    3      2.34      0.00
    9   12    3      0.88      0.00
   10   12    3     -2.01      0.00
   11   12    3     -2.17      0.00
   12   12    3      0.09      0.00
   13   12    3      3.18      0.00
   14   12    3      0.30      0.00
  -13   13    3      0.37      0.00
  -12   13    3      1.54      0.00
  -11   13    3      0.30      0.00
  -10   13    3     -1.22      0.00
   -9   13    3     -0.40      0.00
   -8   13    3      0.27      0.00
   -7   13    3     -1.12      0.00
   -6   13    3      1.39      0.00
   -5   13    3      0.90      0.00
   -4   13    3     -3.06      0.00
   -3   13    3      1.32      0.00
   -2   13    3      0.26      0.00
   -1   13    3     -0.35      0.00
    0   13    3      0.11      0.00
    1   13    3     -0.22      0.00
    2   13    3     -0.36      0.00
    3   13    3      0.36      0.00
    4   13    3      1.21      0.00
    5   13    3     -2.36      0.00
    6   13    3     -0.37      0.00
    7   13    3      1.02      0.00
    8   13    3     -0.36      0.00
    9   13    3     -0.17      0.00
   10   13    3     -1.20      0.00
   11   13    3      0.15      0.00
   12   13    3      1.08      0.00
   13   13    3     -0.18      0.00
  -12   14    3      1.38      0.00
  -11   14    3      0.94      0.00
  -10   14    3     -1.32      0.00
   -9   14    3     -2.70      0.00
   -8   14    3      0.40      0.00
   -7   14    3      2.36      0.00
   -6   14    3     -0.11      0.00
   -5   14    3     -1.13      0.00
   -4   14    3      3.68      0.00
   -3   14    3     -0.41      0.00
   -2   14    3     -3.18      0.00
   -1   14    3      0.25      0.00
    0   14    3      1.03      0.00
    1   14    3      0.44      0.00
    2   14    3     -1.58      0.00
    3   14    3     -1.29      0.00
    4   14    3     -0.83      0.00
    5   14    3      2.28      0.00
    6   14    3      1.49      0.00
    7   14    3     -0.75      0.00
    8   14    3     -1.42      0.00
    9   14    3     -2.87      0.00
   10   14    3      1.62      0.00
   11   14    3      0.76      0.00
   12   14    3     -1.02      0.00
  -11   15    3     -0.14      0.00
  -10   15    3     -1.04      0.00
   -9   15    3      0.65      0.00
   -8   15    3     -1.71      0.00
   -7   15    3      0.06      0.00
   -6   15    3      1.64      0.00
   -5   15    3      2.11      0.00
   -4   15    3      0.27      0.00
   -3   15    3     -2.18      0.00
   -2   15    3      0.33      0.00
   -1   15    3     -0.20      0.00
    0   15    3      1.16      0.00
    1   15    3      0.17      0.00
    2   15    3     -1.66      0.00
    3   15    3     -0.69      0.00
    4   15    3      1.11      0.00
    5   15    3      0.82      0.00
    6   15    3      0.22      0.00
    7   15    3      0.28      0.00
    8   15    3     -2.17      0.00
    9   15    3      0.69      0.00
   10   15    3      0.80      0.00
   11   15    3     -0.39      0.00
   -9   16    3      0.03      0.00
   -8   16    3      0.83      0.00
   -7   16    3     -1.59      0.00
   -6   16    3     -0.43      0.00
   -5   16    3      2.03      0.00
   -4   16    3     -1.76      0.00
   -3   16    3      1.34      0.00
   -2   16    3     -0.08      0.00
   -1   16    3     -1.01      0.00
    0   16    3      1.35      0.00
    1   16    3     -0.11      0.00
    2   16    3      0.24      0.00
    3   16    3     -0.07      0.00
    4   16    3      0.46      0.00
    5   16    3      0.35      0.00
    6   16    3      0.09      0.00
    7   16    3     -1.32      0.00
    8   16    3      0.19      0.00
    9   16    3      2.10      0.00
   -8   17    3      0.27      0.00
   -7   17    3      0.04      0.00
   -6   17    3     -1.50      0.00
   -5   17    3     -1.65      0.00
   -4   17    3      3.20      0.00
   -3   17    3     -0.29      0.00
   -2   17    3     -1.71      0.00
   -1   17    3      0.89      0.00
    0   17    3     -1.31      0.00
    1   17    3      1.13      0.00
    2   17    3      0.61      0.00
    3   17    3      0.41      0.00
    4   17    3     -0.15      0.00
    5   17    3     -0.33      0.00
    6   17    3     -0.03      0.00
    7   17    3     -0.86      0.00
    8   17    3      1.65      0.00
   -6   18    3      0.03      0.00
   -5   18    3     -0.23      0.00
   -4   18    3     -0.74      0.00
   -3   18    3      0.59      0.00
   -2   18    3      1.49      0.00
   -1   18    3     -1.13      0.00
    0   18    3     -1.59      0.00
    1   18    3     -1.17      0.00
    2   18    3      1.32      0.00
    3   18    3      1.72      0.00
    4   18    3     -0.08      0.00
    5   18    3     -0.30      0.00
    6   18    3     -1.62      0.00
   -1   19    3     -0.91      0.00
    0   19    3      0.05      0.00
    1   19    3     -0.65      0.00
  -18    0    4      1.04      0.00
  -16    0    4     -1.94      0.00
  -14    0    4      2.71      0.00
  -12    0    4     -4.42      0.00
  -10    0    4      5.33      0.00
   -8    0    4     -4.99      0.00
   -6    0    4      1.77      0.00
   -4    0    4      3.10      0.00
   -2    0    4    -31.81      0.00
    0    0    4     41.79      0.00
    2    0    4    -15.73      0.00
    4    0    4      8.03      0.00
    6    0    4    -11.61      0.00
    8    0    4      5.24      0.00
   10    0    4      0.10      0.00
   12    0    4     -0.14      0.00
   14    0    4     -0.10      0.00
   16    0    4      2.53      0.00
   18    0    4     -0.63      0.00
  -18    1    4      0.27      0.00
  -17    1    4     -2.65      0.00
  -16    1    4      0.24      0.00
  -15    1    4      1.70      0.00
  -14    1    4     -0.33      0.00
  -13    1    4     -0.34      0.00
  -12    1    4      3.56      0.00
  -11    1    4     -0.14      0.00
  -10    1    4     -2.97      0.00
   -9    1    4     -2.29      0.00
   -8    1    4      0.52      0.00
   -7    1    4      5.82      0.00
   -6    1    4      3.36      0.00
   -5    1    4     -6.73      0.00
   -4    1    4     -9.56      0.00
   -3    1    4      1.08      0.00
   -2    1    4     33.38      0.00
   -1    1    4    -11.94      0.00
    0    1    4    -42.74      0.00
    1    1    4     24.07      0.00
    2    1    4      9.29      0.00
    3    1    4     -8.89      0.00
    4    1    4     10.02      0.00
    5    1    4     -0.54      0.00
    6    1    4    -12.01      0.00
    7    1    4     -2.67      0.00
    8    1    4      7.77      0.00
    9    1    4      3.79      0.00
   10    1    4     -1.61      0.00
   11    1    4     -1.23      0.00
   12    1    4     -0.94      0.00
   13    1    4     -1.28      0.00
   14    1    4      1.10      0.00
   15    1    4      1.18      0.00
   16    1    4      0.16      0.00
   17    1    4      1.34      0.00
   18    1    4      0.16      0.00
  -17    2    4     -1.46      0.00
  -16    2    4     -0.38      0.00
  -15    2    4      1.84      0.00
  -14    2    4     -0.15      0.00
  -13    2    4      0.63      0.00
  -12    2    4      1.97      0.00
  -11    2    4      1.64      0.00
  -10    2    4     -3.57      0.00
   -9    2    4     -3.30      0.00
   -8    2    4      1.75      0.00
   -7    2    4      3.36      0.00
   -6    2    4      4.93      0.00
   -5    2    4     -6.45      0.00
   -4    2    4     -8.79      0.00
   -3    2    4     18.42      0.00
   -2    2    4      9.82      0.00
   -1    2    4     -5.71      0.00
    1    2    4    -21.73      0.00
    2    2    4     11.85      0.00
    3    2    4     17.58      0.00
    4    2    4    -10.54      0.00
    5    2    4    -10.49      0.00
    6    2    4      7.01      0.00
    7    2    4      7.86      0.00
    8    2    4     -1.83      0.00
    9    2    4     -1.39      0.00
   10    2    4      0.31      0.00
   11    2    4     -1.40      0.00
   12    2    4     -1.89      0.00
   13    2    4      0.29      0.00
   14    2    4      0.34      0.00
   15    2    4      1.38      0.00
   16    2    4     -0.37      0.00
   17    2    4     -0.35      0.00
  -17    3    4      1.51      0.00
  -16    3    4      0.33      0.00
  -15    3    4     -1.90      0.00
  -14    3    4      0.53      0.00
  -13    3    4      1.75      0.00
  -12    3    4     -0.19      0.00
  -11    3    4     -0.93      0.00
  -10    3    4      0.43      0.00
   -9    3    4      1.50      0.00
   -8    3    4      0.67      0.00
   -7    3    4     -5.39      0.00
   -6    3    4     -3.57      0.00
   -5    3    4     12.79      0.00
   -4    3    4      3.54      0.00
   -3    3    4    -16.57      0.00
   -2    3    4      1.08      0.00
   -1    3    4     23.70      0.00
    0    3    4      2.80      0.00
    1    3    4    -21.58      0.00
    2    3    4     -2.64      0.00
    3    3    4      5.20      0.00
    4    3    4     -0.79      0.00
    5    3    4      0.85      0.00
    6    3    4     -1.09      0.00
    7    3    4      3.17      0.00
    8    3    4      3.70      0.00
    9    3    4     -4.36      0.00
   10    3    4     -1.00      0.00
   11    3    4      1.22      0.00
   12    3    4     -1.20      0.00
   13    3    4      0.16      0.00
   14    3    4      0.68      0.00
   15    3    4     -0.51      0.00
   16    3    4      0.66      0.00
   17    3    4     -0.45      0.00
  -17    4    4     -2.03      0.00
  -16    4    4      0.43      0.00
  -15    4    4      0.46      0.00
  -14    4    4     -1.65      0.00
  -13    4    4     -1.77      0.00
  -12    4    4      2.41      0.00
  -11    4    4      0.81      0.00
  -10    4    4     -2.89      0.00
   -9    4    4      2.63      0.00
   -8    4    4      3.05      0.00
   -7    4    4     -4.54      0.00
   -6    4    4     -3.73      0.00
   -5    4    4      4.48      0.00
   -4    4    4      2.88      0.00
   -3    4    4    -11.83      0.00
   -2    4    4      6.03      0.00
   -1    4    4     11.38      0.00
    0    4    4     -9.66      0.00
    1    4    4     12.52      0.00
    2    4    4     -0.22      0.00
    3    4    4    -16.79      0.00
    4    4    4     -0.50      0.00
    5    4    4      5.66      0.00
    6    4    4      3.61      0.00
    7    4    4     -1.00      0.00
    8    4    4     -3.94      0.00
    9    4    4      0.89      0.00
   10    4    4     -0.69      0.00
   11    4    4     -0.90      0.00
   12    4    4      3.02      0.00
   13    4    4      0.25      0.00
   14    4    4     -1.56      0.00
   15    4    4     -0.72      0.00
   16    4    4      1.32      0.00
   17    4    4      1.17      0.00
  -17    5    4      2.74      0.00
  -16    5    4     -2.21      0.00
  -15    5    4     -1.54      0.00
  -14    5    4     -0.22      0.00
  -13    5    4     -0.73      0.00
  -12    5    4     -2.20      0.00
  -11    5    4      1.09      0.00
  -10    5    4      4.99      0.00
   -9    5    4     -0.64      0.00
   -8    5    4     -4.41      0.00
   -7    5    4      1.77      0.00
   -6    5    4      3.12      0.00
   -5    5    4     -5.81      0.00
   -4    5    4     -4.13      0.00
   -3    5    4     11.52      0.00
   -2    5    4     -4.09      0.00
   -1    5    4     -9.09      0.00
    0    5    4     13.23      0.00
    1    5    4     -1.16      0.00
    2    5    4      1.10      0.00
    3    5    4      2.58      0.00
    4    5    4    -18.78      0.00
    5    5    4     -2.24      0.00
    6    5    4     16.66      0.00
    7    5    4      0.86      0.00
    8    5    4     -5.68      0.00
    9    5    4     -1.99      0.00
   10    5    4     -1.03      0.00
   11    5    4      0.89      0.00
   12    5    4      0.82      0.00
   13    5    4      1.80      0.00
   14    5    4     -0.82      0.00
   15    5    4     -1.25      0.00
   16    5    4     -0.32      0.00
   17    5    4      0.91      0.00
  -17    6    4      0.70      0.00
  -16    6    4      0.55      0.00
  -15    6    4     -1.27      0.00
  -14    6    4      0.22      0.00
  -13    6    4     -0.53      0.00
  -12    6    4     -1.27      0.00
  -11    6    4      0.38      0.00
  -10    6    4      3.39      0.00
   -9    6    4      1.46      0.00
   -8    6    4     -2.41      0.00
   -7    6    4     -1.85      0.00
   -6    6    4     -1.35      0.00
   -5    6    4     -0.08      0.00
   -4    6    4      4.52      0.00
   -3    6    4      0.68      0.00
   -2    6    4     -2.70      0.00
   -1    6    4     -2.43      0.00
    0    6    4      2.36      0.00
    1    6    4      5.29      0.00
    2    6    4     -5.75      0.00
    3    6    4     -9.25      0.00
    4    6    4      8.57      0.00
    5    6    4      4.37      0.00
    6    6    4     -8.64      0.00
    7    6    4      3.26      0.00
    8    6    4      4.24      0.00
    9    6    4     -3.79      0.00
   10    6    4     -0.01      0.00
   11    6    4      0.54      0.00
   12    6    4      0.85      0.00
   13    6    4      0.53      0.00
   14    6    4     -1.13      0.00
   15    6    4     -2.23      0.00
   16    6    4     -1.23      0.00
   17    6    4      2.86      0.00
  -16    7    4      0.60      0.00
  -15    7    4      1.08      0.00
  -14    7    4     -0.87      0.00
  -13    7    4     -0.47      0.00
  -12    7    4      1.10      0.00
  -11    7    4      1.18      0.00
  -10    7    4     -1.76      0.00
   -9    7    4      1.17      0.00
   -8    7    4      3.47      0.00
   -7    7    4     -1.49      0.00
   -6    7    4     -6.44      0.00
   -5    7    4     -3.03      0.00
   -4    7    4      7.81      0.00
   -3    7    4      7.43      0.00
   -2    7    4     -5.52      0.00
   -1    7    4     -7.50      0.00
    0    7    4      2.43      0.00
    1    7    4      6.44      0.00
    2    7    4     -8.75      0.00
    3    7    4     -2.95      0.00
    4    7    4     10.52      0.00
    5    7    4      0.65      0.00
    6    7    4     -2.91      0.00
    7    7    4     -1.82      0.00
    8    7    4      0.10      0.00
    9    7    4      3.76      0.00
   10    7    4     -0.42      0.00
   11    7    4      0.28      0.00
   12    7    4      0.95      0.00
   13    7    4     -0.91      0.00
   14    7    4     -1.23      0.00
   15    7    4     -2.51      0.00
   16    7    4      0.75      0.00
  -16    8    4     -0.15      0.00
  -15    8    4     -0.91      0.00
  -14    8    4      0.40      0.00
  -13    8    4      0.49      0.00
  -12    8    4     -0.75      0.00
  -11    8    4      0.40      0.00
  -10    8    4      2.01      0.00
   -9    8    4     -0.91      0.00
   -8    8    4     -1.21      0.00
   -7    8    4      1.01      0.00
   -6    8    4     -1.06      0.00
   -5    8    4     -2.04      0.00
   -4    8    4     -0.51      0.00
   -3    8    4      3.14      0.00
   -2    8    4      0.67      0.00
   -1    8    4     -2.53      0.00
    0    8    4      0.16      0.00
    1    8    4     -3.24      0.00
    2    8    4      1.43      0.00
    3    8    4      5.24      0.00
    4    8    4     -3.27      0.00
    5    8    4      0.05      0.00
    6    8    4      0.74      0.00
    7    8    4     -1.72      0.00
    8    8    4      2.13      0.00
    9    8    4      1.16      0.00
   10    8    4      0.81      0.00
   11    8    4      1.02      0.00
   12    8    4     -0.54      0.00
   13    8    4     -1.51      0.00
   14    8    4     -0.33      0.00
   15    8    4      0.61      0.00
   16    8    4     -0.81      0.00
  -15    9    4      0.16      0.00
  -14    9    4      0.06      0.00
  -13    9    4      0.78      0.00
  -12    9    4      1.59      0.00
  -11    9    4     -1.27      0.00
  -10    9    4     -1.69      0.00
   -9    9    4     -0.04      0.00
   -8    9    4      1.28      0.00
   -7    9    4     -0.51      0.00
   -6    9    4     -0.01      0.00
   -5    9    4      3.32      0.00
   -4    9    4     -3.18      0.00
   -3    9    4     -7.28      0.00
   -2    9    4      3.63      0.00
   -1    9    4      6.78      0.00
    0    9    4     -3.21      0.00
    1    9    4     -4.73      0.00
    2    9    4      2.00      0.00
    3    9    4      0.92      0.00
    4    9    4      2.55      0.00
    5    9    4      0.40      0.00
    6    9    4     -4.47      0.00
    7    9    4     -0.53      0.00
    8    9    4      1.49      0.00
    9    9    4      1.75      0.00
   10    9    4      0.75      0.00
   11    9    4     -0.45      0.00
   12    9    4     -0.04      0.00
   13    9    4      0.45      0.00
   14    9    4     -0.90      0.00
   15    9    4      0.01      0.00
  -15   10    4     -0.27      0.00
  -14   10    4      0.05      0.00
  -13   10    4      0.36      0.00
  -12   10    4     -0.20      0.00
  -11   10    4      0.64      0.00
  -10   10    4     -2.09      0.00
   -9   10    4     -0.07      0.00
   -8   10    4      3.12      0.00
   -7   10    4      0.65      0.00
   -6   10    4      0.84      0.00
   -5   10    4     -1.40      0.00
   -4   10    4     -1.89      0.00
   -3   10    4     -0.60      0.00
   -2   10    4     -0.24      0.00
   -1   10    4      2.62      0.00
    0   10    4     -1.08      0.00
    1   10    4     -3.46      0.00
    2   10    4      2.16      0.00
    3   10    4      3.70      0.00
    4   10    4     -2.65      0.00
    5   10    4     -1.96      0.00
    6   10    4      3.58      0.00
    7   10    4     -1.90      0.00
    8   10    4     -2.40      0.00
    9   10    4      2.08      0.00
   10   10    4      1.45      0.00
   11   10    4     -1.61      0.00
   12   10    4     -0.51      0.00
   13   10    4     -0.34      0.00
   14   10    4      0.18      0.00
   15   10    4      1.61      0.00
  -14   11    4     -1.15      0.00
  -13   11    4     -0.59      0.00
  -12   11    4     -1.26      0.00
  -11   11    4     -1.20      0.00
  -10   11    4      4.36      0.00
   -9   11    4      2.71      0.00
   -8   11    4     -3.90      0.00
   -7   11    4      0.29      0.00
   -6   11    4      3.01      0.00
   -5   11    4     -0.97      0.00
   -4   11    4     -1.34      0.00
   -3   11    4      0.44      0.00
   -2   11    4      1.19      0.00
   -1   11    4     -1.01      0.00
    0   11    4     -1.83      0.00
    1   11    4      0.83      0.00
    2   11    4      2.03      0.00
    3   11    4      1.94      0.00
    4   11    4     -2.63      0.00
    5   11    4     -1.56      0.00
    6   11    4      1.39      0.00
    7   11    4      1.19      0.00
    8   11    4     -0.59      0.00
    9   11    4     -0.96      0.00
   10   11    4      1.15      0.00
   11   11    4     -0.10      0.00
   12   11    4     -3.43      0.00
   13   11    4      0.03      0.00
   14   11    4      2.99      0.00
  -13   12    4     -1.67      0.00
  -12   12    4     -1.11      0.00
  -11   12    4      1.49      0.00
  -10   12    4      1.23      0.00
   -9   12    4      0.52      0.00
   -8   12    4      0.09      0.00
   -7   12    4     -2.16      0.00
   -6   12    4     -1.84      0.00
   -5   12    4      3.16      0.00
   -4   12    4      1.21      0.00
   -3   12    4     -1.22      0.00
   -2   12    4      0.26      0.00
   -1   12    4      0.08      0.00
    0   12    4      0.80      0.00
    1   12    4      0.96      0.00
    2   12    4     -0.06      0.00
    3   12    4     -2.74      0.00
    4   12    4      1.25      0.00
    5   12    4      1.23      0.00
    6   12    4     -0.88      0.00
    7   12    4      1.43      0.00
    8   12    4     -0.07      0.00
    9   12    4     -0.28      0.00
   10   12    4     -1.85      0.00
   11   12    4     -0.63      0.00
   12   12    4      1.47      0.00
   13   12    4      0.44      0.00
  -13   13    4     -0.99      0.00
  -12   13    4     -0.23      0.00
  -11   13    4      0.29      0.00
  -10   13    4      0.13      0.00
   -9   13    4     -0.45      0.00
   -8   13    4      0.04      0.00
   -7   13    4     -0.56      0.00
   -6   13    4     -0.65      0.00
   -5   13    4     -1.61      0.00
   -4   13    4      0.41      0.00
   -3   13    4      3.97      0.00
   -2   13    4     -0.38      0.00
   -1   13    4     -2.05      0.00
    0   13    4      1.20      0.00
    1   13    4      2.15      0.00
    2   13    4     -0.91      0.00
    3   13    4     -2.66      0.00
    4   13    4     -0.93      0.00
    5   13    4      0.97      0.00
    6   13    4      2.07      0.00
    7   13    4      0.64      0.00
    8   13    4      1.04      0.00
    9   13    4     -1.92      0.00
   10   13    4     -1.27      0.00
   11   13    4      0.69      0.00
   12   13    4      0.84      0.00
   13   13    4     -0.03      0.00
  -12   14    4     -1.05      0.00
  -11   14    4     -0.82      0.00
  -10   14    4     -0.60      0.00
   -9   14    4      1.54      0.00
   -8   14    4      0.50      0.00
   -7   14    4     -0.75      0.00
   -6   14    4     -0.54      0.00
   -5   14    4     -1.84      0.00
   -4   14    4      2.30      0.00
   -3   14    4      0.36      0.00
   -2   14    4     -1.07      0.00
   -1   14    4      0.34      0.00
    0   14    4     -0.24      0.00
    1   14    4      0.97      0.00
    2   14    4     -1.03      0.00
    3   14    4     -0.51      0.00
    4   14    4     -0.53      0.00
    5   14    4      0.30      0.00
    6   14    4      0.71      0.00
    7   14    4      1.14      0.00
    8   14    4     -0.19      0.00
    9   14    4     -1.01      0.00
   10   14    4      0.67      0.00
   11   14    4      0.54      0.00
   12   14    4      0.16      0.00
  -11   15    4     -1.96      0.00
  -10   15    4     -0.66      0.00
   -9   15    4      1.07      0.00
   -8   15    4      1.88      0.00
   -7   15    4      0.92      0.00
   -6   15    4     -1.99      0.00
   -5   15    4      1.98      0.00
   -4   15    4     -0.86      0.00
   -3   15    4     -3.10      0.00
   -2   15    4      1.63      0.00
   -1   15    4      0.48      0.00
    0   15    4      0.49      0.00
    1   15    4     -1.20      0.00
    2   15    4     -1.11      0.00
    3   15    4     -0.22      0.00
    4   15    4      1.23      0.00
    5   15    4      1.71      0.00
    6   15    4     -0.45      0.00
    7   15    4     -1.27      0.00
    8   15    4     -1.51      0.00
    9   15    4      1.30      0.00
   10   15    4      0.85      0.00
   11   15    4      0.00      0.00
   -9   16    4     -0.25      0.00
   -8   16    4     -0.25      0.00
   -7   16    4      2.10      0.00
   -6   16    4      2.05      0.00
   -5   16    4     -2.32      0.00
   -4   16    4     -2.22      0.00
   -3   16    4      2.11      0.00
   -2   16    4     -0.83      0.00
   -1   16    4      0.71      0.00
    0   16    4      0.52      0.00
    1   16    4     -1.64      0.00
    2   16    4     -0.28      0.00
    3   16    4      0.20      0.00
    4   16    4      1.03      0.00
    5   16    4     -0.26      0.00
    6   16    4      0.31      0.00
    7   16    4     -1.41      0.00
    8   16    4     -0.31      0.00
    9   16    4      0.85      0.00
   -8   17    4      0.40      0.00
   -7   17    4     -1.62      0.00
   -6   17    4      1.02      0.00
   -5   17    4      1.26      0.00
   -4   17    4     -0.41      0.00
   -3   17    4     -1.57      0.00
   -2   17    4      0.64      0.00
   -1   17    4      2.06      0.00
    0   17    4     -0.10      0.00
    1   17    4     -0.82      0.00
    2   17    4     -1.61      0.00
    3   17    4      0.81      0.00
    4   17    4      0.65      0.00
    5   17    4     -0.36      0.00
    6   17    4     -0.50      0.00
    7   17    4      0.19      0.00
    8   17    4      0.16      0.00
   -5   18    4      0.84      0.00
   -4   18    4      0.11      0.00
   -3   18    4     -1.49      0.00
   -2   18    4      1.36      0.00
   -1   18    4      0.07      0.00
    0   18    4      0.52      0.00
    1   18    4      0.32      0.00
    2   18    4     -0.18      0.00
    3   18    4     -0.26      0.00
    4   18    4     -0.95      0.00
    5   18    4      0.22      0.00
   -1   19    4     -0.34      0.00
    0   19    4      0.07      0.00
    1   19    4      0.76      0.00
  -17    0    5     -0.20      0.00
  -15    0    5     -1.44      0.00
  -13    0    5     -2.25      0.00
  -11    0    5      3.87      0.00
   -9    0    5     -1.23      0.00
   -7    0    5     -2.35      0.00
   -5    0    5      7.91      0.00
   -3    0    5    -17.68      0.00
   -1    0    5     27.26      0.00
    1    0    5     -8.71      0.00
    3    0    5     -4.83      0.00
    5    0    5      7.60      0.00
    7    0    5    -10.85      0.00
    9    0    5      6.89      0.00
   11    0    5      0.00      0.00
   13    0    5     -1.10      0.00
   15    0    5      0.36      0.00
   17    0    5     -0.17      0.00
  -17    1    5     -0.77      0.00
  -16    1    5     -1.50      0.00
  -15    1    5      1.33      0.00
  -14    1    5     -0.28      0.00
  -13    1    5     -2.75      0.00
  -12    1    5     -0.54      0.00
  -11    1    5      3.10      0.00
  -10    1    5      2.23      0.00
   -9    1    5     -4.88      0.00
   -8    1    5     -2.11      0.00
   -7    1    5      4.29      0.00
   -6    1    5      1.94      0.00
   -5    1    5     -5.68      0.00
   -4    1    5     -4.43      0.00
   -3    1    5      1.08      0.00
   -2    1    5      4.21      0.00
   -1    1    5      5.66      0.00
    0    1    5      5.01      0.00
    1    1    5     -3.64      0.00
    2    1    5     -3.09      0.00
    3    1    5      2.27      0.00
    4    1    5      1.74      0.00
    5    1    5     -6.39      0.00
    6    1    5     -5.97      0.00
    7    1    5      5.74      0.00
    8    1    5      4.05      0.00
    9    1    5     -0.41      0.00
   10    1    5      0.75      0.00
   11    1    5      0.04      0.00
   12    1    5     -1.28      0.00
   13    1    5     -0.06      0.00
   14    1    5      0.87      0.00
   15    1    5      0.73      0.00
   16    1    5     -0.89      0.00
   17    1    5     -1.57      0.00
  -17    2    5     -0.09      0.00
  -16    2    5      2.16      0.00
  -15    2    5      0.10      0.00
  -14    2    5     -1.13      0.00
  -13    2    5      1.00      0.00
  -12    2    5     -0.92      0.00
  -11    2    5     -2.07      0.00
  -10    2    5     -1.08      0.00
   -9    2    5      0.19      0.00
   -8    2    5      4.99      0.00
   -7    2    5      2.83      0.00
   -6    2    5    -10.07      0.00
   -5    2    5     -5.18      0.00
   -4    2    5      9.00      0.00
   -3    2    5      6.59      0.00
   -2    2    5    -10.46      0.00
   -1    2    5    -13.28      0.00
    0    2    5     18.38      0.00
    1    2    5      8.52      0.00
    2    2    5    -10.50      0.00
    3    2    5      4.42      0.00
    4    2    5     -1.85      0.00
    5    2    5     -7.91      0.00
    6    2    5     -0.41      0.00
    7    2    5      3.71      0.00
    8    2    5      5.51      0.00
    9    2    5     -0.12      0.00
   10    2    5     -4.20      0.00
   11    2    5     -0.90      0.00
   12    2    5      0.60      0.00
   13    2    5      0.85      0.00
   14    2    5      1.26      0.00
   15    2    5     -0.83      0.00
   16    2    5     -0.92      0.00
   17    2    5     -0.08      0.00
  -17    3    5      0.01      0.00
  -16    3    5      0.89      0.00
  -15    3    5      0.65      0.00
  -14    3    5      0.26      0.00
  -13    3    5     -0.62      0.00
  -12    3    5     -0.32      0.00
  -11    3    5     -0.56      0.00
  -10    3    5     -4.46      0.00
   -9    3    5      0.54      0.00
   -8    3    5      6.00      0.00
   -7    3    5      3.61      0.00
   -6    3    5     -4.23      0.00
   -5    3    5     -7.72      0.00
   -4    3    5      7.73      0.00
   -3    3    5      4.73      0.00
   -2    3    5    -14.13      0.00
   -1    3    5      5.21      0.00
    0    3    5     -3.93      0.00
    1    3    5     -0.07      0.00
    2    3    5     16.08      0.00
    3    3    5     -5.69      0.00
    4    3    5     -9.81      0.00
    5    3    5      1.64      0.00
    6    3    5      4.62      0.00
    7    3    5      1.06      0.00
    8    3    5     -2.68      0.00
    9    3    5     -0.91      0.00
   10    3    5     -0.33      0.00
   11    3    5     -2.53      0.00
   12    3    5      0.31      0.00
   13    3    5      2.01      0.00
   14    3    5      0.32      0.00
   15    3    5     -1.03      0.00
   16    3    5     -1.66      0.00
   17    3    5      0.03      0.00
  -17    4    5      1.89      0.00
  -16    4    5      1.25      0.00
  -15    4    5      0.50      0.00
  -14    4    5      0.01      0.00
  -13    4    5     -0.80      0.00
  -12    4    5     -0.07      0.00
  -11    4    5     -2.68      0.00
  -10    4    5     -0.10      0.00
   -9    4    5      2.14      0.00
   -8    4    5     -0.32      0.00
   -7    4    5     -0.26      0.00
   -6    4    5      5.96      0.00
   -5    4    5      0.51      0.00
   -4    4    5    -13.50      0.00
   -3    4    5      2.56      0.00
   -2    4    5     18.95      0.00
   -1    4    5    -10.31      0.00
    0    4    5     -9.07      0.00
    1    4    5      5.76      0.00
    2    4    5     -0.90      0.00
    3    4    5      4.12      0.00
    4    4    5      2.02      0.00
    5    4    5     -9.97      0.00
    6    4    5      0.40      0.00
    7    4    5      8.08      0.00
    8    4    5     -2.57      0.00
    9    4    5     -2.68      0.00
   10    4    5      1.35      0.00
   11    4    5     -0.78      0.00
   12    4    5     -1.78      0.00
   13    4    5      0.94      0.00
   14    4    5      1.92      0.00
   15    4    5     -0.38      0.00
   16    4    5     -0.89      0.00
   17    4    5     -2.48      0.00
  -17    5    5     -1.09      0.00
  -16    5    5      2.93      0.00
  -15    5    5     -0.19      0.00
  -14    5    5     -0.99      0.00
  -13    5    5      1.96      0.00
  -12    5    5     -0.13      0.00
  -11    5    5     -2.74      0.00
  -10    5    5      0.30      0.00
   -9    5    5      2.83      0.00
   -8    5    5     -0.90      0.00
   -7    5    5     -2.03      0.00
   -6    5    5      2.22      0.00
   -5    5    5      2.10      0.00
   -4    5    5     -2.29      0.00
   -3    5    5     -1.84      0.00
   -2    5    5      5.72      0.00
   -1    5    5      2.31      0.00
    0    5    5     -2.00      0.00
    1    5    5     -0.64      0.00
    2    5    5     -2.94      0.00
    3    5    5     -4.12      0.00
    4    5    5     -1.01      0.00
    5    5    5      7.57      0.00
    6    5    5      0.57      0.00
    7    5    5     -6.20      0.00
    8    5    5      2.25      0.00
    9    5    5      1.31      0.00
   10    5    5     -0.76      0.00
   11    5    5      1.53      0.00
   12    5    5      0.52      0.00
   13    5    5     -0.20      0.00
   14    5    5      1.10      0.00
   15    5    5      1.72      0.00
   16    5    5     -2.52      0.00
   17    5    5     -1.31      0.00
  -17    6    5     -0.33      0.00
  -16    6    5     -2.24      0.00
  -15    6    5      1.01      0.00
  -14    6    5      0.70      0.00
  -13    6    5     -0.54      0.00
  -12    6    5      0.56      0.00
  -11    6    5      3.47      0.00
  -10    6    5     -1.46      0.00
   -9    6    5     -3.81      0.00
   -8    6    5      1.44      0.00
   -7    6    5      3.49      0.00
   -6    6    5     -0.52      0.00
   -5    6    5     -2.34      0.00
   -4    6    5      1.14      0.00
   -3    6    5      3.18      0.00
   -2    6    5     -2.46      0.00
   -1    6    5      2.35      0.00
    0    6    5     -1.88      0.00
    1    6    5      0.51      0.00
    2    6    5      2.67      0.00
    3    6    5    -12.78      0.00
    4    6    5     -1.05      0.00
    5    6    5     13.10      0.00
    6    6    5      1.30      0.00
    7    6    5     -5.01      0.00
    8    6    5     -3.41      0.00
    9    6    5      1.25      0.00
   10    6    5      2.18      0.00
   11    6    5      0.16      0.00
   12    6    5      1.51      0.00
   13    6    5      1.19      0.00
   14    6    5     -0.13      0.00
   15    6    5     -0.58      0.00
   16    6    5      0.72      0.00
   17    6    5      1.17      0.00
  -16    7    5      1.14      0.00
  -15    7    5     -0.59      0.00
  -14    7    5     -1.31      0.00
  -13    7    5      0.62      0.00
  -12    7    5      1.69      0.00
  -11    7    5     -0.58      0.00
  -10    7    5      1.60      0.00
   -9    7    5     -0.41      0.00
   -8    7    5     -2.99      0.00
   -7    7    5      0.35      0.00
   -6    7    5      2.30      0.00
   -5    7    5      1.83      0.00
   -4    7    5     -1.12      0.00
   -3    7    5     -2.32      0.00
   -2    7    5      2.36      0.00
   -1    7    5     -1.65      0.00
    0    7    5      0.84      0.00
    1    7    5     -1.25      0.00
    2    7    5     -6.44      0.00
    3    7    5      5.77      0.00
    4    7    5      3.79      0.00
    5    7    5     -6.90      0.00
    6    7    5      2.47      0.00
    7    7    5      2.84      0.00
    8    7    5     -3.20      0.00
    9    7    5     -1.20      0.00
   10    7    5      1.07      0.00
   11    7    5      1.16      0.00
   12    7    5      0.40      0.00
   13    7    5     -0.98      0.00
   14    7    5     -1.49      0.00
   15    7    5      1.20      0.00
   16    7    5      2.81      0.00
  -16    8    5     -0.68      0.00
  -15    8    5      0.01      0.00
  -14    8    5      0.58      0.00
  -13    8    5     -0.23      0.00
  -12    8    5      0.54      0.00
  -11    8    5      1.01      0.00
  -10    8    5     -0.34      0.00
   -9    8    5     -0.53      0.00
   -8    8    5     -1.87      0.00
   -7    8    5     -2.03      0.00
   -6    8    5     -0.22      0.00
   -5    8    5      3.45      0.00
   -4    8    5      5.61      0.00
   -3    8    5     -4.03      0.00
   -2    8    5     -7.82      0.00
   -1    8    5      3.78      0.00
    0    8    5      5.69      0.00
    1    8    5     -4.93      0.00
    2    8    5     -3.00      0.00
    3    8    5      3.30      0.00
    4    8    5      0.31      0.00
    5    8    5      1.61      0.00
    6    8    5     -1.66      0.00
    7    8    5     -2.36      0.00
    8    8    5      2.72      0.00
    9    8    5     -0.37      0.00
   10    8    5     -1.53      0.00
   11    8    5      0.65      0.00
   12    8    5     -0.37      0.00
   13    8    5     -1.43      0.00
   14    8    5     -0.73      0.00
   15    8    5      0.02      0.00
   16    8    5      1.23      0.00
  -15    9    5      0.41      0.00
  -14    9    5      0.44      0.00
  -13    9    5     -0.06      0.00
  -12    9    5     -0.02      0.00
  -11    9    5      1.17      0.00
  -10    9    5     -1.42      0.00
   -9    9    5     -3.43      0.00
   -8    9    5      1.60      0.00
   -7    9    5      0.83      0.00
   -6    9    5     -1.89      0.00
   -5    9    5      0.55      0.00
   -4    9    5      1.45      0.00
   -3    9    5      2.04      0.00
   -2    9    5     -2.82      0.00
   -1    9    5     -1.28      0.00
    0    9    5      2.86      0.00
    1    9    5      0.35      0.00
    2    9    5     -2.13      0.00
    3    9    5     -0.60      0.00
    4    9    5      2.73      0.00
    5    9    5     -1.55      0.00
    6    9    5     -0.56      0.00
    7    9    5      3.60      0.00
    8    9    5     -1.40      0.00
    9    9    5     -0.48      0.00
   10    9    5      1.29      0.00
   11    9    5     -0.26      0.00
   12    9    5     -1.91      0.00
   13    9    5     -0.54      0.00
   14    9    5     -0.53      0.00
   15    9    5     -0.55      0.00
  -15   10    5      0.48      0.00
  -14   10    5      0.96      0.00
  -13   10    5      0.09      0.00
  -12   10    5     -0.11      0.00
  -11   10    5     -2.48      0.00
  -10   10    5     -1.87      0.00
   -9   10    5      2.91      0.00
   -8   10    5      0.63      0.00
   -7   10    5     -1.31      0.00
   -6   10    5      0.69      0.00
   -5   10    5     -1.05      0.00
   -4   10    5     -2.38      0.00
   -3   10    5      1.48      0.00
   -2   10    5      4.17      0.00
   -1   10    5     -1.09      0.00
    0   10    5     -3.63      0.00
    1   10    5      1.05      0.00
    2   10    5      1.68      0.00
    3   10    5      1.77      0.00
    4   10    5      0.28      0.00
    5   10    5     -2.67      0.00
    6   10    5     -0.27      0.00
    7   10    5      1.37      0.00
    8   10    5      2.14      0.00
    9   10    5      0.18      0.00
   10   10    5      0.27      0.00
   11   10    5      0.91      0.00
   12   10    5     -0.44      0.00
   13   10    5     -2.39      0.00
   14   10    5     -0.22      0.00
   15   10    5      1.62      0.00
  -14   11    5      0.77      0.00
  -13   11    5      1.26      0.00
  -12   11    5     -0.23      0.00
  -11   11    5     -1.10      0.00
  -10   11    5     -0.66      0.00
   -9   11    5      0.55      0.00
   -8   11    5      1.28      0.00
   -7   11    5      0.23      0.00
   -6   11    5     -1.99      0.00
   -5   11    5     -1.57      0.00
   -4   11    5      1.61      0.00
   -3   11    5     -0.69      0.00
   -2   11    5     -0.51      0.00
   -1   11    5      0.77      0.00
    0   11    5     -0.70      0.00
    1   11    5      0.30      0.00
    2   11    5      3.66      0.00
    3   11    5     -0.67      0.00
    4   11    5     -3.07      0.00
    5   11    5      1.79      0.00
    6   11    5     -0.65      0.00
    7   11    5     -0.74      0.00
    8   11    5      1.59      0.00
    9   11    5      1.77      0.00
   10   11    5      0.09      0.00
   11   11    5     -1.40      0.00
   12   11    5      0.38      0.00
   13   11    5      0.68      0.00
   14   11    5      1.10      0.00
  -13   12    5      0.59      0.00
  -12   12    5     -0.05      0.00
  -11   12    5      1.60      0.00
  -10   12    5      0.77      0.00
   -9   12    5     -3.19      0.00
   -8   12    5     -0.32      0.00
   -7   12    5      1.76      0.00
   -6   12    5     -0.21      0.00
   -5   12    5      0.12      0.00
   -4   12    5     -2.12      0.00
   -3   12    5     -0.11      0.00
   -2   12    5      1.20      0.00
   -1   12    5     -1.76      0.00
    0   12    5     -0.12      0.00
    1   12    5      2.64      0.00
    2   12    5      2.12      0.00
    3   12    5     -2.38      0.00
    4   12    5     -3.46      0.00
    5   12    5      0.39      0.00
    6   12    5      2.06      0.00
    7   12    5     -0.75      0.00
    8   12    5     -0.42      0.00
    9   12    5      1.32      0.00
   10   12    5     -0.24      0.00
   11   12    5     -1.26      0.00
   12   12    5     -0.32      0.00
   13   12    5      2.39      0.00
  -13   13    5      0.22      0.00
  -12   13    5      1.97      0.00
  -11   13    5      0.41      0.00
  -10   13    5     -1.73      0.00
   -9   13    5     -0.24      0.00
   -8   13    5     -0.62      0.00
   -7   13    5     -0.13      0.00
   -6   13    5      2.75      0.00
   -5   13    5     -0.63      0.00
   -4   13    5     -1.22      0.00
   -3   13    5      1.41      0.00
   -2   13    5     -0.70      0.00
   -1   13    5     -0.03      0.00
    0   13    5     -0.94      0.00
    1   13    5      1.22      0.00
    2   13    5     -0.18      0.00
    3   13    5     -1.01      0.00
    4   13    5      0.25      0.00
    5   13    5     -1.27      0.00
    6   13    5      0.10      0.00
    7   13    5      0.14      0.00
    8   13    5      0.38      0.00
    9   13    5     -0.78      0.00
   10   13    5     -1.09      0.00
   11   13    5      0.65      0.00
   12   13    5     -0.02      0.00
   13   13    5     -1.04      0.00
  -12   14    5      0.72      0.00
  -11   14    5      0.89      0.00
  -10   14    5     -0.48      0.00
   -9   14    5     -1.29      0.00
   -8   14    5      0.11      0.00
   -7   14    5      1.09      0.00
   -6   14    5     -0.62      0.00
   -5   14    5      0.49      0.00
   -4   14    5      3.79      0.00
   -3   14    5     -0.93      0.00
   -2   14    5     -2.41      0.00
   -1   14    5     -0.17      0.00
    0   14    5      1.70      0.00
    1   14    5     -0.03      0.00
    2   14    5     -1.12      0.00
    3   14    5     -0.54      0.00
    4   14    5     -0.27      0.00
    5   14    5      1.74      0.00
    6   14    5      0.45      0.00
    7   14    5      0.08      0.00
    8   14    5     -1.12      0.00
    9   14    5     -0.81      0.00
   10   14    5      0.10      0.00
   11   14    5     -1.11      0.00
   12   14    5      0.18      0.00
  -10   15    5      1.37      0.00
   -9   15    5      1.15      0.00
   -8   15    5     -2.35      0.00
   -7   15    5     -0.71      0.00
   -6   15    5      1.31      0.00
   -5   15    5      2.23      0.00
   -4   15    5     -0.82      0.00
   -3   15    5     -1.28      0.00
   -2   15    5      1.04      0.00
   -1   15    5     -0.99      0.00
    0   15    5      0.72      0.00
    1   15    5      0.45      0.00
    2   15    5     -0.17      0.00
    3   15    5      0.03      0.00
    4   15    5      0.45      0.00
    5   15    5      0.26      0.00
    6   15    5      0.61      0.00
    7   15    5      0.56      0.00
    8   15    5     -0.69      0.00
    9   15    5     -0.08      0.00
   10   15    5      0.08      0.00
   -9   16    5     -0.48      0.00
   -8   16    5      0.97      0.00
   -7   16    5     -0.78      0.00
   -6   16    5     -1.06      0.00
   -5   16    5     -0.02      0.00
   -4   16    5     -0.82      0.00
   -3   16    5      1.05      0.00
   -2   16    5     -1.13      0.00
   -1   16    5      0.43      0.00
    0   16    5      0.17      0.00
    1   16    5      0.32      0.00
    2   16    5      0.30      0.00
    3   16    5     -0.13      0.00
    4   16    5      1.58      0.00
    5   16    5     -0.16      0.00
    6   16    5     -1.93      0.00
    7   16    5     -0.12      0.00
    8   16    5      1.98      0.00
    9   16    5      0.37      0.00
   -7   17    5      0.72      0.00
   -6   17    5     -0.93      0.00
   -5   17    5     -2.13      0.00
   -4   17    5      1.55      0.00
   -3   17    5     -0.71      0.00
   -2   17    5     -0.49      0.00
   -1   17    5      0.44      0.00
    0   17    5     -0.75      0.00
    1   17    5      0.34      0.00
    2   17    5      0.32      0.00
    3   17    5      1.10      0.00
    4   17    5     -0.67      0.00
    5   17    5     -1.14      0.00
    6   17    5      0.00      0.00
    7   17    5     -0.19      0.00
   -5   18    5     -0.53      0.00
   -4   18    5     -2.76      0.00
   -3   18    5      1.33      0.00
   -2   18    5      2.39      0.00
   -1   18    5     -1.53      0.00
    0   18    5     -1.29      0.00
    1   18    5     -1.02      0.00
    2   18    5      1.50      0.00
    3   18    5      0.85      0.00
    4   18    5     -1.46      0.00
    5   18    5     -0.12      0.00
  -16    0    6     -0.53      0.00
  -14    0    6      2.47      0.00
  -12    0    6     -1.31      0.00
  -10    0    6      2.79      0.00
   -8    0    6     -6.19      0.00
   -6    0    6     13.31      0.00
   -4    0    6    -17.27      0.00
   -2    0    6      8.68      0.00
    0    0    6     -3.04      0.00
    2    0    6      5.76      0.00
    4    0    6     -3.30      0.00
    6    0    6     -3.90      0.00
    8    0    6      2.66      0.00
   10    0    6      0.71      0.00
   12    0    6     -0.12      0.00
   14    0    6     -0.15      0.00
   16    0    6      2.01      0.00
  -17    1    6     -1.10      0.00
  -16    1    6     -0.55      0.00
  -15    1    6      1.36      0.00
  -14    1    6      0.25      0.00
  -13    1    6      0.52      0.00
  -12    1    6      3.12      0.00
  -11    1    6      0.06      0.00
  -10    1    6     -0.88      0.00
   -9    1    6     -2.46      0.00
   -8    1    6     -1.27      0.00
   -7    1    6      5.14      0.00
   -6    1    6      5.19      0.00
   -5    1    6     -4.19      0.00
   -4    1    6     -6.07      0.00
   -3    1    6     -0.21      0.00
   -2    1    6      8.31      0.00
   -1    1    6     -2.68      0.00
    0    1    6     -1.93      0.00
    1    1    6      6.47      0.00
    2    1    6     -3.51      0.00
    3    1    6     -0.34      0.00
    4    1    6      4.84      0.00
    5    1    6     -3.02      0.00
    6    1    6     -6.86      0.00
    7    1    6     -0.66      0.00
    8    1    6      6.69      0.00
    9    1    6      3.08      0.00
   10    1    6     -1.02      0.00
   11    1    6     -1.22      0.00
   12    1    6     -1.52      0.00
   13    1    6      0.01      0.00
   14    1    6      0.90      0.00
   15    1    6      0.43      0.00
   16    1    6     -0.31      0.00
   17    1    6      0.40      0.00
  -17    2    6     -1.06      0.00
  -16    2    6      0.35      0.00
  -15    2    6      0.38      0.00
  -14    2    6     -1.05      0.00
  -13    2    6      0.86      0.00
  -12    2    6      0.97      0.00
  -11    2    6      2.96      0.00
  -10    2    6     -2.31      0.00
   -9    2    6     -4.61      0.00
   -8    2    6      1.82      0.00
   -7    2    6      3.84      0.00
   -6    2    6     -1.41      0.00
   -5    2    6     -1.33      0.00
   -4    2    6      1.31      0.00
   -3    2    6      5.95      0.00
   -2    2    6     -4.42      0.00
   -1    2    6     -2.88      0.00
    0    2    6      5.87      0.00
    1    2    6     -0.97      0.00
    2    2    6      0.14      0.00
    3    2    6      1.06      0.00
    4    2    6     -1.55      0.00
    5    2    6     -3.90      0.00
    6    2    6      1.40      0.00
    7    2    6      5.64      0.00
    8    2    6      0.27      0.00
    9    2    6     -0.99      0.00
   10    2    6     -0.01      0.00
   11    2    6     -1.16      0.00
   12    2    6     -0.46      0.00
   13    2    6      0.66      0.00
   14    2    6     -0.05      0.00
   15    2    6     -0.47      0.00
   16    2    6     -1.36      0.00
   17    2    6      1.21      0.00
  -17    3    6     -0.14      0.00
  -16    3    6     -0.45      0.00
  -15    3    6     -0.73      0.00
  -14    3    6      1.16      0.00
  -13    3    6     -1.55      0.00
  -12    3    6     -0.27      0.00
  -11    3    6      0.62      0.00
  -10    3    6     -1.47      0.00
   -9    3    6      1.22      0.00
   -8    3    6      1.16      0.00
   -7    3    6     -5.40      0.00
   -6    3    6     -0.25      0.00
   -5    3    6      7.68      0.00
   -4    3    6     -0.87      0.00
   -3    3    6    -10.54      0.00
   -2    3    6      2.72      0.00
   -1    3    6     10.73      0.00
    0    3    6     -1.71      0.00
    1    3    6     -2.89      0.00
    2    3    6      2.33      0.00
    3    3    6     -2.99      0.00
    4    3    6     -3.15      0.00
    5    3    6      2.47      0.00
    6    3    6     -1.31      0.00
    7    3    6      2.32      0.00
    8    3    6      3.02      0.00
    9    3    6     -4.68      0.00
   10    3    6     -1.28      0.00
   11    3    6      2.91      0.00
   12    3    6      0.29      0.00
   13    3    6     -1.65      0.00
   14    3    6     -0.52      0.00
   15    3    6     -0.57      0.00
   16    3    6      1.21      0.00
   17    3    6      0.10      0.00
  -17    4    6     -2.54      0.00
  -16    4    6     -0.47      0.00
  -15    4    6      1.16      0.00
  -14    4    6     -1.65      0.00
  -13    4    6     -0.43      0.00
  -12    4    6      0.89      0.00
  -11    4    6     -2.38      0.00
  -10    4    6      0.16      0.00
   -9    4    6      3.60      0.00
   -8    4    6      1.83      0.00
   -7    4    6     -2.97      0.00
   -6    4    6     -7.17      0.00
   -5    4    6      1.37      0.00
   -4    4    6      8.27      0.00
   -3    4    6     -6.85      0.00
   -2    4    6     -4.02      0.00
   -1    4    6      6.82      0.00
    0    4    6      2.01      0.00
    1    4    6      4.32      0.00
    2    4    6     -2.49      0.00
    3    4    6     -6.28      0.00
    4    4    6     -1.72      0.00
    5    4    6     -0.04      0.00
    6    4    6      3.91      0.00
    7    4    6     -1.14      0.00
    8    4    6     -3.02      0.00
    9    4    6      0.45      0.00
   10    4    6     -1.32      0.00
   11    4    6      0.11      0.00
   12    4    6      1.76      0.00
   13    4    6      0.12      0.00
   14    4    6     -1.80      0.00
   15    4    6      0.01      0.00
   16    4    6      1.02      0.00
   17    4    6     -0.01      0.00
  -17    5    6      3.01      0.00
  -16    5    6     -0.71      0.00
  -15    5    6     -1.72      0.00
  -14    5    6     -0.81      0.00
  -13    5    6      0.28      0.00
  -12    5    6     -2.06      0.00
  -11    5    6      1.08      0.00
  -10    5    6      3.37      0.00
   -9    5    6      0.35      0.00
   -8    5    6     -1.05      0.00
   -7    5    6      0.29      0.00
   -6    5    6     -0.61      0.00
   -5    5    6     -4.41      0.00
   -4    5    6     -0.03      0.00
   -3    5    6     10.77      0.00
   -2    5    6     -4.30      0.00
   -1    5    6     -7.03      0.00
    0    5    6      7.74      0.00
    1    5    6     -2.35      0.00
    2    5    6      1.21      0.00
    3    5    6      1.91      0.00
    4    5    6    -10.56      0.00
    5    5    6     -0.27      0.00
    6    5    6      8.94      0.00
    7    5    6      0.04      0.00
    8    5    6     -4.34      0.00
    9    5    6     -0.72      0.00
   10    5    6      0.18      0.00
   11    5    6     -1.15      0.00
   12    5    6      0.35      0.00
   13    5    6      2.23      0.00
   14    5    6     -0.27      0.00
   15    5    6     -2.50      0.00
   16    5    6     -1.62      0.00
   17    5    6      2.51      0.00
  -16    6    6      0.97      0.00
  -15    6    6     -0.33      0.00
  -14    6    6      0.53      0.00
  -13    6    6     -2.30      0.00
  -12    6    6     -0.12      0.00
  -11    6    6      0.68      0.00
  -10    6    6      1.14      0.00
   -9    6    6      1.76      0.00
   -8    6    6     -0.36      0.00
   -7    6    6      0.14      0.00
   -6    6    6      1.20      0.00
   -5    6    6     -0.69      0.00
   -4    6    6     -1.15      0.00
   -3    6    6     -1.27      0.00
   -2    6    6      4.63      0.00
   -1    6    6      0.75      0.00
    0    6    6     -4.62      0.00
    1    6    6      2.01      0.00
    2    6    6     -2.40      0.00
    3    6    6     -3.72      0.00
    4    6    6      6.66      0.00
    5    6    6      1.05      0.00
    6    6    6     -5.30      0.00
    7    6    6      2.86      0.00
    8    6    6      2.31      0.00
    9    6    6     -1.69      0.00
   10    6    6     -0.37      0.00
   11    6    6      0.62      0.00
   12    6    6      1.07      0.00
   13    6    6      0.32      0.00
   14    6    6     -0.89      0.00
   15    6    6     -3.06      0.00
   16    6    6     -0.44      0.00
  -16    7    6     -0.24      0.00
  -15    7    6     -0.53      0.00
  -14    7    6     -0.46      0.00
  -13    7    6      1.32      0.00
  -12    7    6      0.39      0.00
  -11    7    6     -0.81      0.00
  -10    7    6     -0.52      0.00
   -9    7    6      2.32      0.00
   -8    7    6      1.97      0.00
   -7    7    6     -1.21      0.00
   -6    7    6     -1.49      0.00
   -5    7    6     -1.34      0.00
   -4    7    6      0.32      0.00
   -3    7    6      2.14      0.00
   -2    7    6     -1.53      0.00
   -1    7    6     -2.14      0.00
    0    7    6      2.10      0.00
    1    7    6      2.01      0.00
    2    7    6     -5.37      0.00
    3    7    6     -0.32      0.00
    4    7    6      4.98      0.00
    5    7    6      0.56      0.00
    6    7    6     -0.46      0.00
    7    7    6     -3.03      0.00
    8    7    6      0.44      0.00
    9    7    6      3.17      0.00
   10    7    6      0.05      0.00
   11    7    6      0.00      0.00
   12    7    6      1.57      0.00
   13    7    6      0.23      0.00
   14    7    6     -1.20      0.00
   15    7    6     -0.68      0.00
   16    7    6     -0.30      0.00
  -16    8    6     -0.32      0.00
  -15    8    6     -2.52      0.00
  -14    8    6      0.46      0.00
  -13    8    6      1.77      0.00
  -12    8    6     -1.10      0.00
  -11    8    6      1.24      0.00
  -10    8    6      2.04      0.00
   -9    8    6     -3.31      0.00
   -8    8    6     -1.24      0.00
   -7    8    6      3.39      0.00
   -6    8    6      0.17      0.00
   -5    8    6     -2.46      0.00
   -4    8    6     -2.62      0.00
   -3    8    6      2.11      0.00
   -2    8    6      1.51      0.00
   -1    8    6     -3.11      0.00
    0    8    6     -0.66      0.00
    1    8    6      0.11      0.00
    2    8    6      2.72      0.00
    3    8    6     -0.35      0.00
    4    8    6     -3.24      0.00
    5    8    6      2.75      0.00
    6    8    6     -0.25      0.00
    7    8    6     -1.18      0.00
    8    8    6     -0.02      0.00
    9    8    6      0.16      0.00
   10    8    6      1.38      0.00
   11    8    6      1.22      0.00
   12    8    6      0.02      0.00
   13    8    6     -0.68      0.00
   14    8    6      1.17      0.00
   15    8    6      0.72      0.00
   16    8    6     -1.82      0.00
  -15    9    6      0.04      0.00
  -14    9    6     -0.73      0.00
  -13    9    6      0.01      0.00
  -12    9    6      2.04      0.00
  -11    9    6      0.26      0.00
  -10    9    6     -2.36      0.00
   -9    9    6     -0.98      0.00
   -8    9    6      0.69      0.00
   -7    9    6      0.88      0.00
   -6    9    6      1.69      0.00
   -5    9    6      1.21      0.00
   -4    9    6     -1.94      0.00
   -3    9    6     -4.84      0.00
   -2    9    6      2.53      0.00
   -1    9    6      4.60      0.00
    0    9    6     -3.95      0.00
    1    9    6     -3.52      0.00
    2    9    6      1.57      0.00
    3    9    6      1.48      0.00
    4    9    6      2.04      0.00
    5    9    6     -1.56      0.00
    6    9    6     -2.13      0.00
    7    9    6      1.00      0.00
    8    9    6      0.18      0.00
    9    9    6     -1.33      0.00
   10    9    6      0.49      0.00
   11    9    6      1.56      0.00
   12    9    6     -0.43      0.00
   13    9    6      0.45      0.00
   14    9    6     -0.82      0.00
   15    9    6      0.20      0.00
  -15   10    6      0.30      0.00
  -14   10    6     -0.72      0.00
  -13   10    6      0.25      0.00
  -12   10    6      1.24      0.00
  -11   10    6     -0.11      0.00
  -10   10    6     -1.29      0.00
   -9   10    6      0.41      0.00
   -8   10    6      1.43      0.00
   -7   10    6     -0.40      0.00
   -6   10    6      0.22      0.00
   -5   10    6      0.08      0.00
   -4   10    6      1.11      0.00
   -3   10    6      0.80      0.00
   -2   10    6     -2.32      0.00
   -1   10    6      0.70      0.00
    0   10    6      0.92      0.00
    1   10    6     -3.15      0.00
    2   10    6     -0.83      0.00
    3   10    6      4.37      0.00
    4   10    6     -0.43      0.00
    5   10    6     -1.68      0.00
    6   10    6      2.17      0.00
    7   10    6     -1.69      0.00
    8   10    6     -1.22      0.00
    9   10    6      0.99      0.00
   10   10    6      0.69      0.00
   11   10    6     -1.52      0.00
   12   10    6     -0.09      0.00
   13   10    6     -0.45      0.00
   14   10    6      0.29      0.00
   15   10    6      1.13      0.00
  -14   11    6     -0.24      0.00
  -13   11    6     -0.02      0.00
  -12   11    6     -0.89      0.00
  -11   11    6     -1.50      0.00
  -10   11    6      2.70      0.00
   -9   11    6      1.33      0.00
   -8   11    6     -2.09      0.00
   -7   11    6      0.59      0.00
   -6   11    6     -1.25      0.00
   -5   11    6      0.11      0.00
   -4   11    6      2.06      0.00
   -3   11    6      0.59      0.00
   -2   11    6      0.01      0.00
   -1   11    6     -1.35      0.00
    0   11    6     -0.51      0.00
    1   11    6      0.47      0.00
    2   11    6      1.53      0.00
    3   11    6      1.68      0.00
    4   11    6     -2.00      0.00
    5   11    6     -1.83      0.00
    6   11    6      0.84      0.00
    7   11    6      2.34      0.00
    8   11    6     -0.66      0.00
    9   11    6     -0.12      0.00
   10   11    6      0.38      0.00
   11   11    6     -0.27      0.00
   12   11    6     -2.43      0.00
   13   11    6     -0.24      0.00
   14   11    6      1.86      0.00
  -13   12    6     -1.50      0.00
  -12   12    6     -1.56      0.00
  -11   12    6      0.67      0.00
  -10   12    6     -0.71      0.00
   -9   12    6      0.48      0.00
   -8   12    6      0.67      0.00
   -7   12    6     -2.72      0.00
   -6   12    6      0.54      0.00
   -5   12    6      1.71      0.00
   -4   12    6     -1.45      0.00
   -3   12    6     -0.08      0.00
   -2   12    6      1.47      0.00
   -1   12    6      1.42      0.00
    0   12    6     -0.89      0.00
    1   12    6     -0.51      0.00
    2   12    6      1.28      0.00
    3   12    6     -1.70      0.00
    4   12    6      0.75      0.00
    5   12    6      0.17      0.00
    6   12    6     -0.56      0.00
    7   12    6      0.69      0.00
    8   12    6      0.96      0.00
    9   12    6      1.21      0.00
   10   12    6     -0.64      0.00
   11   12    6     -0.72      0.00
   12   12    6      0.12      0.00
   13   12    6     -0.60      0.00
  -12   13    6     -0.46      0.00
  -11   13    6     -0.99      0.00
  -10   13    6     -0.59      0.00
   -9   13    6     -0.30      0.00
   -8   13    6      0.48      0.00
   -7   13    6      0.33      0.00
   -6   13    6     -0.13      0.00
   -5   13    6     -1.72      0.00
   -4   13    6     -0.10      0.00
   -3   13    6      2.49      0.00
   -2   13    6      0.20      0.00
   -1   13    6     -1.39      0.00
    0   13    6      1.30      0.00
    1   13    6      1.16      0.00
    2   13    6     -2.42      0.00
    3   13    6     -1.64      0.00
    4   13    6      0.59      0.00
    5   13    6      2.14      0.00
    6   13    6     -0.01      0.00
    7   13    6     -0.87      0.00
    8   13    6      1.66      0.00
    9   13    6      0.33      0.00
   10   13    6      0.48      0.00
   11   13    6     -0.91      0.00
   12   13    6     -0.09      0.00
  -11   14    6     -1.78      0.00
  -10   14    6     -0.94      0.00
   -9   14    6      2.24      0.00
   -8   14    6      0.95      0.00
   -7   14    6     -0.39      0.00
   -6   14    6     -1.02      0.00
   -5   14    6     -0.26      0.00
   -4   14    6      2.31      0.00
   -3   14    6     -1.46      0.00
   -2   14    6     -0.57      0.00
   -1   14    6      0.77      0.00
    0   14    6     -0.73      0.00
    1   14    6      0.35      0.00
    2   14    6     -0.34      0.00
    3   14    6     -0.07      0.00
    4   14    6     -0.95      0.00
    5   14    6      0.23      0.00
    6   14    6      0.80      0.00
    7   14    6      0.51      0.00
    8   14    6     -0.05      0.00
    9   14    6     -0.18      0.00
   10   14    6     -0.50      0.00
   11   14    6      0.91      0.00
  -10   15    6     -0.05      0.00
   -9   15    6      0.53      0.00
   -8   15    6      0.71      0.00
   -7   15    6      0.47      0.00
   -6   15    6      0.12      0.00
   -5   15    6      1.85      0.00
   -4   15    6     -1.76      0.00
   -3   15    6     -1.21      0.00
   -2   15    6      0.13      0.00
   -1   15    6     -0.06      0.00
    0   15    6      0.47      0.00
    1   15    6     -0.60      0.00
    2   15    6      0.42      0.00
    3   15    6     -1.06      0.00
    4   15    6      0.81      0.00
    5   15    6      1.35      0.00
    6   15    6     -0.89      0.00
    7   15    6     -1.60      0.00
    8   15    6      0.10      0.00
    9   15    6      0.17      0.00
   10   15    6     -0.49      0.00
   -9   16    6     -1.31      0.00
   -8   16    6     -0.19      0.00
   -7   16    6      1.58      0.00
   -6   16    6      1.24      0.00
   -5   16    6     -1.30      0.00
   -4   16    6     -0.84      0.00
   -3   16    6      0.56      0.00
   -2   16    6     -0.62      0.00
   -1   16    6      0.14      0.00
    0   16    6      0.60      0.00
    1   16    6     -0.04      0.00
    2   16    6     -0.54      0.00
    3   16    6      0.28      0.00
    4   16    6      0.49      0.00
    5   16    6     -0.78      0.00
    6   16    6      0.08      0.00
    7   16    6      0.23      0.00
    8   16    6     -1.03      0.00
    9   16    6     -0.33      0.00
   -7   17    6     -1.52      0.00
   -6   17    6      0.30      0.00
   -5   17    6      1.52      0.00
   -4   17    6     -0.33      0.00
   -3   17    6     -2.55      0.00
   -2   17    6      1.45      0.00
   -1   17    6      2.36      0.00
    0   17    6     -0.37      0.00
    1   17    6     -0.50      0.00
    2   17    6     -1.14      0.00
    3   17    6      1.18      0.00
    4   17    6      0.04      0.00
    5   17    6     -1.84      0.00
    6   17    6      0.27      0.00
    7   17    6      1.93      0.00
   -5   18    6     -0.29      0.00
   -4   18    6     -0.39      0.00
   -3   18    6      0.23      0.00
   -2   18    6      0.45      0.00
   -1   18    6      0.23      0.00
    0   18    6      1.16      0.00
    1   18    6      0.04      0.00
    2   18    6      0.02      0.00
    3   18    6     -1.41      0.00
    4   18    6     -0.56      0.00
    5   18    6      1.01      0.00
  -17    0    7      0.57      0.00
  -15    0    7     -0.94      0.00
  -13    0    7     -2.11      0.00
  -11    0    7      1.70      0.00
   -9    0    7      0.22      0.00
   -7    0    7     -3.30      0.00
   -5    0    7      3.68      0.00
   -3    0    7     -1.10      0.00
   -1    0    7     -6.43      0.00
    1    0    7      8.92      0.00
    3    0    7     -2.56      0.00
    5    0    7      4.24      0.00
    7    0    7     -7.43      0.00
    9    0    7      4.44      0.00
   11    0    7      1.52      0.00
   13    0    7     -0.81      0.00
   15    0    7      0.26      0.00
   17    0    7     -1.25      0.00
  -17    1    7      0.64      0.00
  -16    1    7      0.03      0.00
  -15    1    7      1.25      0.00
  -14    1    7     -1.16      0.00
  -13    1    7     -0.51      0.00
  -12    1    7     -0.22      0.00
  -11    1    7     -0.02      0.00
  -10    1    7      1.50      0.00
   -9    1    7     -2.18      0.00
   -8    1    7     -2.88      0.00
   -7    1    7      7.45      0.00
   -6    1    7      0.68      0.00
   -5    1    7    -14.70      0.00
   -4    1    7      0.89      0.00
   -3    1    7     12.44      0.00
   -2    1    7      0.32      0.00
   -1    1    7     -6.61      0.00
    0    1    7     -3.18      0.00
    1    1    7      5.01      0.00
    2    1    7      5.34      0.00
    3    1    7     -7.17      0.00
    4    1    7     -1.56      0.00
    5    1    7      2.93      0.00
    6    1    7     -2.01      0.00
    7    1    7      1.38      0.00
    8    1    7      1.55      0.00
    9    1    7      0.05      0.00
   10    1    7      0.77      0.00
   11    1    7     -1.10      0.00
   12    1    7     -0.30      0.00
   13    1    7      0.84      0.00
   14    1    7      0.60      0.00
   15    1    7      1.24      0.00
   16    1    7     -1.70      0.00
   17    1    7     -1.62      0.00
  -17    2    7      0.44      0.00
  -16    2    7      1.38      0.00
  -15    2    7     -0.68      0.00
  -14    2    7      0.42      0.00
  -13    2    7      1.19      0.00
  -12    2    7     -1.46      0.00
  -11    2    7      0.18      0.00
  -10    2    7     -1.21      0.00
   -9    2    7     -2.77      0.00
   -8    2    7      4.36      0.00
   -7    2    7      1.46      0.00
   -6    2    7     -4.70      0.00
   -5    2    7      1.37      0.00
   -4    2    7     -0.45      0.00
   -3    2    7     -1.67      0.00
   -2    2    7      0.48      0.00
   -1    2    7      1.79      0.00
    0    2    7      2.49      0.00
    1    2    7     -2.61      0.00
    2    2    7     -0.24      0.00
    3    2    7      4.26      0.00
    4    2    7     -5.22      0.00
    5    2    7     -4.62      0.00
    6    2    7      3.29      0.00
    7    2    7      2.29      0.00
    8    2    7      2.74      0.00
    9    2    7     -0.29      0.00
   10    2    7     -3.86      0.00
   11    2    7     -1.47      0.00
   12    2    7      1.47      0.00
   13    2    7      1.17      0.00
   14    2    7     -0.12      0.00
   15    2    7     -1.30      0.00
   16    2    7     -0.39      0.00
   17    2    7      0.08      0.00
  -17    3    7      0.61      0.00
  -16    3    7     -1.05      0.00
  -15    3    7      0.16      0.00
  -14    3    7      0.78      0.00
  -13    3    7     -0.52      0.00
  -12    3    7      1.82      0.00
  -11    3    7     -1.75      0.00
  -10    3    7     -4.14      0.00
   -9    3    7      1.56      0.00
   -8    3    7      2.66      0.00
   -7    3    7      3.00      0.00
   -6    3    7      0.89      0.00
   -5    3    7     -6.13      0.00
   -4    3    7      1.94      0.00
   -3    3    7      2.95      0.00
   -2    3    7     -7.13      0.00
   -1    3    7      2.52      0.00
    0    3    7      4.39      0.00
    1    3    7      0.02      0.00
    2    3    7      1.30      0.00
    3    3    7     -1.21      0.00
    4    3    7     -1.88      0.00
    5    3    7     -1.59      0.00
    6    3    7      1.44      0.00
    7    3    7      2.92      0.00
    8    3    7     -1.47      0.00
    9    3    7     -0.99      0.00
   10    3    7     -0.77      0.00
   11    3    7     -1.01      0.00
   12    3    7     -0.41      0.00
   13    3    7     -0.07      0.00
   14    3    7      0.79      0.00
   15    3    7     -1.04      0.00
   16    3    7     -0.28      0.00
   17    3    7      0.25      0.00
  -17    4    7      0.24      0.00
  -16    4    7      1.54      0.00
  -15    4    7      0.99      0.00
  -14    4    7     -1.65      0.00
  -13    4    7      0.04      0.00
  -12    4    7      0.24      0.00
  -11    4    7     -1.79      0.00
  -10    4    7      0.02      0.00
   -9    4    7      0.88      0.00
   -8    4    7      0.34      0.00
   -7    4    7      1.22      0.00
   -6    4    7      2.49      0.00
   -5    4    7     -1.25      0.00
   -4    4    7     -6.48      0.00
   -3    4    7      3.31      0.00
   -2    4    7      9.69      0.00
   -1    4    7     -6.63      0.00
    0    4    7     -0.41      0.00
    1    4    7      5.62      0.00
    2    4    7     -4.43      0.00
    3    4    7     -1.09      0.00
    4    4    7      2.36      0.00
    5    4    7     -3.72      0.00
    6    4    7     -0.08      0.00
    7    4    7      5.01      0.00
    8    4    7     -1.43      0.00
    9    4    7     -2.18      0.00
   10    4    7      2.63      0.00
   11    4    7     -0.66      0.00
   12    4    7     -2.71      0.00
   13    4    7      0.50      0.00
   14    4    7      1.58      0.00
   15    4    7      1.20      0.00
   16    4    7     -1.30      0.00
   17    4    7     -1.25      0.00
  -17    5    7     -0.92      0.00
  -16    5    7      2.76      0.00
  -15    5    7     -0.76      0.00
  -14    5    7      0.17      0.00
  -13    5    7      0.64      0.00
  -12    5    7     -1.97      0.00
  -11    5    7      0.58      0.00
  -10    5    7      1.19      0.00
   -9    5    7     -0.56      0.00
   -8    5    7     -1.11      0.00
   -7    5    7     -2.26      0.00
   -6    5    7      1.54      0.00
   -5    5    7      6.95      0.00
   -4    5    7     -0.34      0.00
   -3    5    7     -6.39      0.00
   -2    5    7      1.47      0.00
   -1    5    7      7.22      0.00
    0    5    7     -1.44      0.00
    1    5    7     -3.35      0.00
    2    5    7     -0.53      0.00
    3    5    7     -1.82      0.00
    4    5    7     -1.45      0.00
    5    5    7      3.24      0.00
    6    5    7      0.15      0.00
    7    5    7     -2.64      0.00
    8    5    7      1.33      0.00
    9    5    7      0.71      0.00
   10    5    7      0.13      0.00
   11    5    7      0.90      0.00
   12    5    7     -0.22      0.00
   13    5    7     -0.08      0.00
   14    5    7      1.25      0.00
   15    5    7      0.84      0.00
   16    5    7     -0.88      0.00
   17    5    7      0.71      0.00
  -16    6    7     -0.51      0.00
  -15    6    7      0.16      0.00
  -14    6    7     -0.89      0.00
  -13    6    7     -1.24      0.00
  -12    6    7      1.97      0.00
  -11    6    7      1.74      0.00
  -10    6    7     -1.62      0.00
   -9    6    7     -0.76      0.00
   -8    6    7      0.59      0.00
   -7    6    7      0.87      0.00
   -6    6    7     -0.24      0.00
   -5    6    7      0.07      0.00
   -4    6    7      3.28      0.00
   -3    6    7     -1.18      0.00
   -2    6    7     -4.21      0.00
   -1    6    7      2.76      0.00
    0    6    7      0.34      0.00
    1    6    7     -1.34      0.00
    2    6    7      0.48      0.00
    3    6    7     -4.88      0.00
    4    6    7      0.52      0.00
    5    6    7      4.88      0.00
    6    6    7      0.05      0.00
    7    6    7     -3.03      0.00
    8    6    7     -1.76      0.00
    9    6    7      0.88      0.00
   10    6    7      0.36      0.00
   11    6    7     -0.01      0.00
   12    6    7      0.93      0.00
   13    6    7      0.57      0.00
   14    6    7     -1.03      0.00
   15    6    7      0.07      0.00
   16    6    7      2.89      0.00
  -16    7    7      1.27      0.00
  -15    7    7      0.17      0.00
  -14    7    7     -3.32      0.00
  -13    7    7      0.49      0.00
  -12    7    7      1.42      0.00
  -11    7    7     -0.91      0.00
  -10    7    7      2.71      0.00
   -9    7    7      0.81      0.00
   -8    7    7     -1.66      0.00
   -7    7    7     -0.98      0.00
   -6    7    7      0.04      0.00
   -5    7    7     -0.07      0.00
   -4    7    7     -2.04      0.00
   -3    7    7      0.84      0.00
   -2    7    7      4.05      0.00
   -1    7    7     -2.90      0.00
    0    7    7     -1.18      0.00
    1    7    7     -0.43      0.00
    2    7    7     -2.13      0.00
    3    7    7      3.21      0.00
    4    7    7     -0.60      0.00
    5    7    7     -2.71      0.00
    6    7    7      2.85      0.00
    7    7    7      0.48      0.00
    8    7    7     -2.34      0.00
    9    7    7     -1.31      0.00
   10    7    7      0.69      0.00
   11    7    7      0.68      0.00
   12    7    7     -0.12      0.00
   13    7    7     -1.55      0.00
   14    7    7     -0.87      0.00
   15    7    7      1.41      0.00
   16    7    7      0.88      0.00
  -15    8    7      0.58      0.00
  -14    8    7      1.81      0.00
  -13    8    7     -1.63      0.00
  -12    8    7     -1.03      0.00
  -11    8    7      2.71      0.00
  -10    8    7      0.79      0.00
   -9    8    7     -0.94      0.00
   -8    8    7     -2.45      0.00
   -7    8    7     -0.64      0.00
   -6    8    7      0.00      0.00
   -5    8    7     -1.00      0.00
   -4    8    7      2.19      0.00
   -3    8    7      0.45      0.00
   -2    8    7     -2.81      0.00
   -1    8    7      3.00      0.00
    0    8    7      2.01      0.00
    1    8    7     -2.81      0.00
    2    8    7     -1.20      0.00
    3    8    7      0.47      0.00
    4    8    7      0.40      0.00
    5    8    7      1.78      0.00
    6    8    7     -2.35      0.00
    7    8    7     -1.12      0.00
    8    8    7      2.58      0.00
    9    8    7      0.44      0.00
   10    8    7     -1.84      0.00
   11    8    7      0.97      0.00
   12    8    7      0.44      0.00
   13    8    7     -1.07      0.00
   14    8    7     -0.70      0.00
   15    8    7     -1.25      0.00
  -15    9    7      0.08      0.00
  -14    9    7      1.35      0.00
  -13    9    7     -0.75      0.00
  -12    9    7      1.01      0.00
  -11    9    7      1.25      0.00
  -10    9    7     -2.26      0.00
   -9    9    7     -1.67      0.00
   -8    9    7      2.49      0.00
   -7    9    7      0.05      0.00
   -6    9    7     -2.27      0.00
   -5    9    7     -0.82      0.00
   -4    9    7      0.17      0.00
   -3    9    7      2.42      0.00
   -2    9    7     -0.24      0.00
   -1    9    7     -1.53      0.00
    0    9    7      1.97      0.00
    1    9    7      2.08      0.00
    2    9    7     -2.12      0.00
    3    9    7     -2.31      0.00
    4    9    7      3.30      0.00
    5    9    7     -0.39      0.00
    6    9    7     -0.57      0.00
    7    9    7      0.96      0.00
    8    9    7     -0.91      0.00
    9    9    7      0.87      0.00
   10    9    7      1.92      0.00
   11    9    7      0.29      0.00
   12    9    7     -0.67      0.00
   13    9    7      0.25      0.00
   14    9    7     -0.72      0.00
   15    9    7     -1.09      0.00
  -14   10    7      0.85      0.00
  -13   10    7      2.11      0.00
  -12   10    7      0.53      0.00
  -11   10    7     -2.16      0.00
  -10   10    7     -1.10      0.00
   -9   10    7      1.29      0.00
   -8   10    7      0.13      0.00
   -7   10    7      1.14      0.00
   -6   10    7     -0.12      0.00
   -5   10    7     -2.96      0.00
   -4   10    7     -0.84      0.00
   -3   10    7      1.92      0.00
   -2   10    7      1.97      0.00
   -1   10    7     -2.83      0.00
    0   10    7     -1.28      0.00
    1   10    7      2.21      0.00
    2   10    7      0.74      0.00
    3   10    7      1.31      0.00
    4   10    7     -0.52      0.00
    5   10    7     -1.09      0.00
    6   10    7     -0.02      0.00
    7   10    7     -0.07      0.00
    8   10    7      0.09      0.00
    9   10    7      0.80      0.00
   10   10    7      2.29      0.00
   11   10    7      0.17      0.00
   12   10    7      0.54      0.00
   13   10    7     -0.94      0.00
   14   10    7     -0.67      0.00
  -14   11    7      1.19      0.00
  -13   11    7      2.05      0.00
  -12   11    7     -0.59      0.00
  -11   11    7     -0.69      0.00
  -10   11    7     -0.36      0.00
   -9   11    7     -0.75      0.00
   -8   11    7      1.04      0.00
   -7   11    7     -0.84      0.00
   -6   11    7     -1.17      0.00
   -5   11    7      1.75      0.00
   -4   11    7      0.55      0.00
   -3   11    7     -2.41      0.00
   -2   11    7     -1.49      0.00
   -1   11    7      1.44      0.00
    0   11    7     -0.08      0.00
    1   11    7     -1.34      0.00
    2   11    7      2.61      0.00
    3   11    7      0.67      0.00
    4   11    7     -2.14      0.00
    5   11    7      0.56      0.00
    6   11    7     -0.79      0.00
    7   11    7     -0.67      0.00
    8   11    7      0.32      0.00
    9   11    7      0.74      0.00
   10   11    7      0.45      0.00
   11   11    7      1.02      0.00
   12   11    7     -0.25      0.00
   13   11    7      0.03      0.00
   14   11    7      0.85      0.00
  -13   12    7     -0.23      0.00
  -12   12    7     -0.17      0.00
  -11   12    7      0.58      0.00
  -10   12    7      0.46      0.00
   -9   12    7     -1.38      0.00
   -8   12    7     -0.54      0.00
   -7   12    7      0.26      0.00
   -6   12    7      0.19      0.00
   -5   12    7      1.02      0.00
   -4   12    7     -0.94      0.00
   -3   12    7     -0.57      0.00
   -2   12    7      0.59      0.00
   -1   12    7     -0.99      0.00
    0   12    7     -0.98      0.00
    1   12    7      2.02      0.00
    2   12    7      1.57      0.00
    3   12    7     -2.32      0.00
    4   12    7     -2.50      0.00
    5   12    7      0.77      0.00
    6   12    7      2.62      0.00
    7   12    7     -1.59      0.00
    8   12    7     -1.15      0.00
    9   12    7      0.87      0.00
   10   12    7      0.33      0.00
   11   12    7     -1.09      0.00
   12   12    7     -0.59      0.00
   13   12    7      1.42      0.00
  -12   13    7      0.95      0.00
  -11   13    7     -0.22      0.00
  -10   13    7     -1.42      0.00
   -9   13    7      0.16      0.00
   -8   13    7      0.35      0.00
   -7   13    7      1.34      0.00
   -6   13    7      1.09      0.00
   -5   13    7     -2.33      0.00
   -4   13    7      0.87      0.00
   -3   13    7      2.19      0.00
   -2   13    7     -1.04      0.00
   -1   13    7     -0.53      0.00
    0   13    7     -0.97      0.00
    1   13    7      0.34      0.00
    2   13    7      0.50      0.00
    3   13    7      1.18      0.00
    4   13    7     -0.09      0.00
    5   13    7     -2.13      0.00
    6   13    7      0.11      0.00
    7   13    7      1.45      0.00
    8   13    7      0.36      0.00
    9   13    7     -0.16      0.00
   10   13    7     -1.34      0.00
   11   13    7     -1.34      0.00
   12   13    7     -0.21      0.00
  -11   14    7      0.16      0.00
  -10   14    7      0.22      0.00
   -9   14    7     -0.10      0.00
   -8   14    7      0.76      0.00
   -7   14    7      0.28      0.00
   -6   14    7     -0.53      0.00
   -5   14    7      1.28      0.00
   -4   14    7      1.59      0.00
   -3   14    7     -0.48      0.00
   -2   14    7     -0.75      0.00
   -1   14    7     -0.56      0.00
    0   14    7      0.55      0.00
    1   14    7     -0.92      0.00
    2   14    7      0.78      0.00
    3   14    7      0.65      0.00
    4   14    7      0.09      0.00
    5   14    7      1.04      0.00
    6   14    7     -0.60      0.00
    7   14    7     -0.18      0.00
    8   14    7      0.93      0.00
    9   14    7      0.43      0.00
   10   14    7     -1.57      0.00
   11   14    7     -0.89      0.00
  -10   15    7      1.69      0.00
   -9   15    7      1.37      0.00
   -8   15    7     -2.18      0.00
   -7   15    7     -0.36      0.00
   -6   15    7      1.67      0.00
   -5   15    7      1.09      0.00
   -4   15    7     -0.98      0.00
   -3   15    7     -1.24      0.00
   -2   15    7      0.90      0.00
   -1   15    7     -0.62      0.00
    0   15    7     -0.47      0.00
    1   15    7      1.63      0.00
    2   15    7      0.18      0.00
    3   15    7     -1.04      0.00
    4   15    7      0.35      0.00
    5   15    7      0.56      0.00
    6   15    7     -0.28      0.00
    7   15    7      0.50      0.00
    8   15    7      0.67      0.00
    9   15    7     -0.89      0.00
   10   15    7      0.93      0.00
   -9   16    7     -0.16      0.00
   -8   16    7      0.68      0.00
   -7   16    7      0.04      0.00
   -6   16    7     -0.20      0.00
   -5   16    7     -0.66      0.00
   -4   16    7     -0.20      0.00
   -3   16    7      0.01      0.00
   -2   16    7     -2.42      0.00
   -1   16    7      1.17      0.00
    0   16    7      1.31      0.00
    1   16    7      0.67      0.00
    2   16    7     -0.47      0.00
    3   16    7     -0.76      0.00
    4   16    7      0.89      0.00
    5   16    7     -0.64      0.00
    6   16    7     -1.90      0.00
    7   16    7      0.82      0.00
    8   16    7      1.42      0.00
    9   16    7      0.32      0.00
   -7   17    7      0.25      0.00
   -6   17    7     -0.43      0.00
   -5   17    7     -0.06      0.00
   -4   17    7     -0.58      0.00
   -3   17    7     -1.11      0.00
   -2   17    7      1.16      0.00
   -1   17    7     -0.54      0.00
    0   17    7      0.14      0.00
    1   17    7      0.55      0.00
    2   17    7      0.35      0.00
    3   17    7      0.00      0.00
    4   17    7     -1.44      0.00
    5   17    7     -0.33      0.00
    6   17    7      0.98      0.00
    7   17    7     -0.19      0.00
   -4   18    7     -2.08      0.00
   -3   18    7      1.13      0.00
   -2   18    7      2.11      0.00
   -1   18    7     -0.68      0.00
    0   18    7     -1.09      0.00
    1   18    7     -0.56      0.00
    2   18    7      0.30      0.00
    3   18    7      0.57      0.00
    4   18    7     -0.69      0.00
  -16    0    8      0.85      0.00
  -14    0    8      0.99      0.00
  -12    0    8      1.98      0.00
  -10    0    8     -0.75      0.00
   -8    0    8     -3.10      0.00
   -6    0    8     14.66      0.00
   -4    0    8    -16.32      0.00
   -2    0    8      6.37      0.00
    0    0    8     -0.09      0.00
    2    0    8      8.61      0.00
    4    0    8     -9.69      0.00
    6    0    8      1.31      0.00
    8    0    8      1.42      0.00
   10    0    8      2.15      0.00
   12    0    8     -2.20      0.00
   14    0    8      0.03      0.00
   16    0    8      1.99      0.00
  -17    1    8     -0.29      0.00
  -16    1    8      0.02      0.00
  -15    1    8      0.88      0.00
  -14    1    8     -1.16      0.00
  -13    1    8      0.72      0.00
  -12    1    8      0.98      0.00
  -11    1    8      0.01      0.00
  -10    1    8      1.72      0.00
   -9    1    8     -1.73      0.00
   -8    1    8     -3.33      0.00
   -7    1    8      2.71      0.00
   -6    1    8      0.70      0.00
   -5    1    8      1.94      0.00
   -4    1    8      3.58      0.00
   -3    1    8     -5.49      0.00
   -2    1    8     -6.25      0.00
   -1    1    8      2.25      0.00
    0    1    8      8.66      0.00
    1    1    8      1.88      0.00
    2    1    8     -4.16      0.00
    3    1    8      1.95      0.00
    4    1    8      4.45      0.00
    5    1    8     -4.39      0.00
    6    1    8     -5.09      0.00
    7    1    8      0.76      0.00
    8    1    8      3.71      0.00
    9    1    8      2.66      0.00
   10    1    8      0.71      0.00
   11    1    8     -1.21      0.00
   12    1    8     -1.33      0.00
   13    1    8      0.29      0.00
   14    1    8      0.36      0.00
   15    1    8     -0.08      0.00
   16    1    8     -0.99      0.00
   17    1    8     -0.03      0.00
  -17    2    8      0.67      0.00
  -16    2    8     -0.16      0.00
  -15    2    8     -1.39      0.00
  -14    2    8     -0.22      0.00
  -13    2    8     -0.22      0.00
  -12    2    8     -0.60      0.00
  -11    2    8      1.92      0.00
  -10    2    8     -1.76      0.00
   -9    2    8     -2.83      0.00
   -8    2    8      0.68      0.00
   -7    2    8      0.52      0.00
   -6    2    8     -2.31      0.00
   -5    2    8      2.79      0.00
   -4    2    8      3.09      0.00
   -3    2    8     -0.32      0.00
   -2    2    8     -4.32      0.00
   -1    2    8     -3.45      0.00
    0    2    8      2.81      0.00
    1    2    8      5.76      0.00
    2    2    8     -3.22      0.00
    3    2    8     -2.17      0.00
    4    2    8      4.43      0.00
    5    2    8      0.85      0.00
    6    2    8     -3.01      0.00
    7    2    8      0.45      0.00
    8    2    8      1.14      0.00
    9    2    8      0.59      0.00
   10    2    8     -0.73      0.00
   11    2    8      0.01      0.00
   12    2    8      1.48      0.00
   13    2    8     -1.31      0.00
   14    2    8     -0.35      0.00
   15    2    8     -0.13      0.00
   16    2    8     -2.20      0.00
   17    2    8      1.07      0.00
  -17    3    8     -1.52      0.00
  -16    3    8     -1.03      0.00
  -15    3    8      0.92      0.00
  -14    3    8      0.37      0.00
  -13    3    8     -1.94      0.00
  -12    3    8      0.42      0.00
  -11    3    8     -0.53      0.00
  -10    3    8     -2.18      0.00
   -9    3    8      0.05      0.00
   -8    3    8      0.73      0.00
   -7    3    8     -1.49      0.00
   -6    3    8      3.51      0.00
   -5    3    8     -1.26      0.00
   -4    3    8     -4.81      0.00
   -3    3    8     -0.18      0.00
   -2    3    8      4.03      0.00
   -1    3    8      0.47      0.00
    0    3    8     -2.89      0.00
    1    3    8      2.02      0.00
    2    3    8      3.15      0.00
    3    3    8     -4.49      0.00
    4    3    8     -2.87      0.00
    5    3    8      4.27      0.00
    6    3    8      0.10      0.00
    7    3    8     -0.80      0.00
    8    3    8      1.30      0.00
    9    3    8     -3.76      0.00
   10    3    8     -0.57      0.00
   11    3    8      3.04      0.00
   12    3    8     -0.32      0.00
   13    3    8     -0.84      0.00
   14    3    8     -1.25      0.00
   15    3    8     -0.69      0.00
   16    3    8      1.58      0.00
   17    3    8     -0.71      0.00
  -17    4    8     -2.41      0.00
  -16    4    8      0.65      0.00
  -15    4    8      1.48      0.00
  -14    4    8     -0.90      0.00
  -13    4    8      1.10      0.00
  -12    4    8     -1.26      0.00
  -11    4    8     -2.81      0.00
  -10    4    8      2.94      0.00
   -9    4    8      1.28      0.00
   -8    4    8     -0.07      0.00
   -7    4    8      1.36      0.00
   -6    4    8     -6.68      0.00
   -5    4    8     -0.44      0.00
   -4    4    8      6.79      0.00
   -3    4    8     -3.02      0.00
   -2    4    8     -2.53      0.00
   -1    4    8      4.91      0.00
    0    4    8      2.01      0.00
    1    4    8     -1.24      0.00
    2    4    8     -1.15      0.00
    3    4    8     -1.99      0.00
    4    4    8     -0.66      0.00
    5    4    8     -0.17      0.00
    6    4    8      2.21      0.00
    7    4    8     -0.18      0.00
    8    4    8     -2.17      0.00
    9    4    8     -0.58      0.00
   10    4    8     -1.31      0.00
   11    4    8      0.45      0.00
   12    4    8      0.86      0.00
   13    4    8     -0.19      0.00
   14    4    8     -0.10      0.00
   15    4    8     -0.16      0.00
   16    4    8     -0.62      0.00
   17    4    8      0.88      0.00
  -16    5    8      0.26      0.00
  -15    5    8     -0.83      0.00
  -14    5    8      0.80      0.00
  -13    5    8     -0.61      0.00
  -12    5    8     -1.84      0.00
  -11    5    8      2.34      0.00
  -10    5    8     -0.16      0.00
   -9    5    8      0.85      0.00
   -8    5    8      1.21      0.00
   -7    5    8     -0.64      0.00
   -6    5    8      1.44      0.00
   -5    5    8     -2.52      0.00
   -4    5    8     -0.13      0.00
   -3    5    8      6.74      0.00
   -2    5    8     -4.16      0.00
   -1    5    8     -2.34      0.00
    0    5    8      6.20      0.00
    1    5    8     -2.38      0.00
    2    5    8     -2.79      0.00
    3    5    8      1.58      0.00
    4    5    8     -3.13      0.00
    5    5    8      0.36      0.00
    6    5    8      4.97      0.00
    7    5    8      0.06      0.00
    8    5    8     -3.22      0.00
    9    5    8      0.55      0.00
   10    5    8     -0.25      0.00
   11    5    8     -2.19      0.00
   12    5    8      0.64      0.00
   13    5    8      2.10      0.00
   14    5    8     -0.07      0.00
   15    5    8     -1.92      0.00
   16    5    8     -0.04      0.00
  -16    6    8     -1.06      0.00
  -15    6    8      0.02      0.00
  -14    6    8      0.54      0.00
  -13    6    8     -2.24      0.00
  -12    6    8      1.43      0.00
  -11    6    8     -0.33      0.00
  -10    6    8     -0.20      0.00
   -9    6    8      0.26      0.00
   -8    6    8      2.17      0.00
   -7    6    8      2.83      0.00
   -6    6    8      0.56      0.00
   -5    6    8     -0.54      0.00
   -4    6    8     -3.86      0.00
   -3    6    8     -3.66      0.00
   -2    6    8      5.91      0.00
   -1    6    8      1.85      0.00
    0    6    8     -4.30      0.00
    1    6    8      1.17      0.00
    2    6    8      0.04      0.00
    3    6    8     -1.49      0.00
    4    6    8      1.41      0.00
    5    6    8     -0.78      0.00
    6    6    8     -0.59      0.00
    7    6    8      2.84      0.00
    8    6    8      0.90      0.00
    9    6    8     -1.97      0.00
   10    6    8     -0.17      0.00
   11    6    8      0.15      0.00
   12    6    8      0.45      0.00
   13    6    8      0.67      0.00
   14    6    8     -0.08      0.00
   15    6    8     -0.39      0.00
   16    6    8     -0.18      0.00
  -16    7    8     -0.51      0.00
  -15    7    8     -2.67      0.00
  -14    7    8     -0.33      0.00
  -13    7    8      2.88      0.00
  -12    7    8     -0.74      0.00
  -11    7    8     -0.72      0.00
  -10    7    8      1.14      0.00
   -9    7    8      2.39      0.00
   -8    7    8     -0.47      0.00
   -7    7    8     -1.57      0.00
   -6    7    8      0.95      0.00
   -5    7    8     -0.54      0.00
   -4    7    8     -2.75      0.00
   -3    7    8     -0.26      0.00
   -2    7    8      0.85      0.00
   -1    7    8      0.39      0.00
    0    7    8     -0.44      0.00
    1    7    8     -1.05      0.00
    2    7    8     -0.59      0.00
    3    7    8      1.57      0.00
    4    7    8      0.84      0.00
    5    7    8     -0.57      0.00
    6    7    8     -0.14      0.00
    7    7    8     -1.79      0.00
    8    7    8     -0.24      0.00
    9    7    8      1.63      0.00
   10    7    8      0.00      0.00
   11    7    8     -0.60      0.00
   12    7    8      1.05      0.00
   13    7    8      0.81      0.00
   14    7    8      0.57      0.00
   15    7    8      0.49      0.00
   16    7    8     -0.85      0.00
  -15    8    8     -2.50      0.00
  -14    8    8     -0.41      0.00
  -13    8    8      1.19      0.00
  -12    8    8     -0.07      0.00
  -11    8    8      3.22      0.00
  -10    8    8      0.92      0.00
   -9    8    8     -3.65      0.00
   -8    8    8     -0.75      0.00
   -7    8    8      1.46      0.00
   -6    8    8     -0.20      0.00
   -5    8    8     -0.64      0.00
   -4    8    8     -0.16      0.00
   -3    8    8      1.25      0.00
   -2    8    8      0.02      0.00
   -1    8    8     -1.65      0.00
    0    8    8     -1.03      0.00
    1    8    8     -0.82      0.00
    2    8    8      1.70      0.00
    3    8    8     -0.64      0.00
    4    8    8     -1.33      0.00
    5    8    8      2.51      0.00
    6    8    8     -0.51      0.00
    7    8    8     -1.22      0.00
    8    8    8     -0.86      0.00
    9    8    8     -0.05      0.00
   10    8    8      0.52      0.00
   11    8    8      0.50      0.00
   12    8    8     -0.39      0.00
   13    8    8      0.51      0.00
   14    8    8      1.35      0.00
   15    8    8      0.14      0.00
  -15    9    8      0.17      0.00
  -14    9    8     -2.40      0.00
  -13    9    8     -0.41      0.00
  -12    9    8      4.63      0.00
  -11    9    8     -0.12      0.00
  -10    9    8     -1.98      0.00
   -9    9    8     -0.52      0.00
   -8    9    8     -0.72      0.00
   -7    9    8      0.83      0.00
   -6    9    8      1.38      0.00
   -5    9    8      0.44      0.00
   -4    9    8     -0.28      0.00
   -3    9    8     -1.14      0.00
   -2    9    8      3.14      0.00
   -1    9    8      0.87      0.00
    0    9    8     -4.34      0.00
    1    9    8     -0.75      0.00
    2    9    8      0.14      0.00
    3    9    8      0.18      0.00
    4    9    8      2.08      0.00
    5    9    8     -1.70      0.00
    6    9    8     -0.88      0.00
    7    9    8      1.94      0.00
    8    9    8      0.38      0.00
    9    9    8     -2.48      0.00
   10    9    8      0.75      0.00
   11    9    8      1.38      0.00
   12    9    8     -0.86      0.00
   13    9    8      0.15      0.00
   14    9    8     -0.85      0.00
   15    9    8      0.11      0.00
  -14   10    8     -0.97      0.00
  -13   10    8      1.44      0.00
  -12   10    8      0.91      0.00
  -11   10    8     -0.63      0.00
  -10   10    8     -0.32      0.00
   -9   10    8      0.12      0.00
   -8   10    8      0.06      0.00
   -7   10    8     -0.66      0.00
   -6   10    8     -0.75      0.00
   -5   10    8      0.24      0.00
   -4   10    8      2.16      0.00
   -3   10    8      1.60      0.00
   -2   10    8     -1.75      0.00
   -1   10    8      0.41      0.00
    0   10    8      1.49      0.00
    1   10    8     -2.75      0.00
    2   10    8     -2.22      0.00
    3   10    8      3.19      0.00
    4   10    8      0.62      0.00
    5   10    8     -1.00      0.00
    6   10    8      0.32      0.00
    7   10    8     -1.18      0.00
    8   10    8      0.70      0.00
    9   10    8      1.65      0.00
   10   10    8     -0.61      0.00
   11   10    8     -0.30      0.00
   12   10    8      0.61      0.00
   13   10    8     -1.84      0.00
   14   10    8     -0.04      0.00
  -14   11    8      1.21      0.00
  -13   11    8     -0.56      0.00
  -12   11    8     -0.93      0.00
  -11   11    8     -0.66      0.00
  -10   11    8     -0.09      0.00
   -9   11    8      0.24      0.00
   -8   11    8     -0.29      0.00
   -7   11    8     -0.20      0.00
   -6   11    8     -1.47      0.00
   -5   11    8      0.53      0.00
   -4   11    8      1.44      0.00
   -3   11    8      0.11      0.00
   -2   11    8     -0.82      0.00
   -1   11    8      0.40      0.00
    0   11    8      0.86      0.00
    1   11    8     -1.17      0.00
    2   11    8      0.88      0.00
    3   11    8      0.90      0.00
    4   11    8     -0.92      0.00
    5   11    8     -1.04      0.00
    6   11    8     -0.13      0.00
    7   11    8      1.66      0.00
    8   11    8     -0.05      0.00
    9   11    8      1.10      0.00
   10   11    8      0.68      0.00
   11   11    8     -0.10      0.00
   12   11    8     -1.51      0.00
   13   11    8     -0.88      0.00
   14   11    8      0.38      0.00
  -13   12    8     -0.93      0.00
  -12   12    8     -0.61      0.00
  -11   12    8      0.22      0.00
  -10   12    8     -1.00      0.00
   -9   12    8     -0.94      0.00
   -8   12    8     -0.69      0.00
   -7   12    8     -0.55      0.00
   -6   12    8      2.57      0.00
   -5   12    8     -0.23      0.00
   -4   12    8     -2.25      0.00
   -3   12    8      0.65      0.00
   -2   12    8      1.59      0.00
   -1   12    8      0.05      0.00
    0   12    8     -1.02      0.00
    1   12    8      0.21      0.00
    2   12    8      0.24      0.00
    3   12    8     -0.35      0.00
    4   12    8      1.43      0.00
    5   12    8     -0.25      0.00
    6   12    8     -1.55      0.00
    7   12    8      0.07      0.00
    8   12    8      1.80      0.00
    9   12    8      0.84      0.00
   10   12    8      1.37      0.00
   11   12    8     -0.72      0.00
   12   12    8     -1.31      0.00
   13   12    8     -0.42      0.00
  -12   13    8     -0.09      0.00
  -11   13    8     -0.44      0.00
  -10   13    8     -0.29      0.00
   -9   13    8     -0.84      0.00
   -8   13    8      0.13      0.00
   -7   13    8      0.32      0.00
   -6   13    8     -0.51      0.00
   -5   13    8      0.08      0.00
   -4   13    8      0.59      0.00
   -3   13    8      0.80      0.00
   -2   13    8     -0.04      0.00
   -1   13    8     -1.00      0.00
    0   13    8      0.73      0.00
    1   13    8      0.43      0.00
    2   13    8     -1.00      0.00
    3   13    8     -0.25      0.00
    4   13    8      0.12      0.00
    5   13    8      1.50      0.00
    6   13    8     -0.18      0.00
    7   13    8     -1.82      0.00
    8   13    8      0.56      0.00
    9   13    8      2.34      0.00
   10   13    8     -0.50      0.00
   11   13    8     -1.00      0.00
   12   13    8      0.91      0.00
  -11   14    8     -0.51      0.00
  -10   14    8     -0.84      0.00
   -9   14    8      1.80      0.00
   -8   14    8      1.44      0.00
   -7   14    8     -1.40      0.00
   -6   14    8     -1.52      0.00
   -5   14    8      1.07      0.00
   -4   14    8      2.11      0.00
   -3   14    8     -1.50      0.00
   -2   14    8     -1.22      0.00
   -1   14    8      1.16      0.00
    0   14    8     -1.07      0.00
    1   14    8      0.21      0.00
    2   14    8      2.34      0.00
    3   14    8     -0.15      0.00
    4   14    8     -2.58      0.00
    5   14    8     -0.13      0.00
    6   14    8      1.03      0.00
    7   14    8     -0.32      0.00
    8   14    8      0.13      0.00
    9   14    8     -0.56      0.00
   10   14    8     -0.65      0.00
   11   14    8      1.22      0.00
  -10   15    8      0.15      0.00
   -9   15    8      0.27      0.00
   -8   15    8     -0.16      0.00
   -7   15    8      0.34      0.00
   -6   15    8      0.90      0.00
   -5   15    8      0.22      0.00
   -4   15    8     -1.43      0.00
   -3   15    8      0.40      0.00
   -2   15    8     -0.34      0.00
   -1   15    8     -1.78      0.00
    0   15    8      0.38      0.00
    1   15    8      1.46      0.00
    2   15    8      0.51      0.00
    3   15    8     -0.79      0.00
    4   15    8      0.64      0.00
    5   15    8     -0.48      0.00
    6   15    8     -1.57      0.00
    7   15    8      0.07      0.00
    8   15    8      1.02      0.00
    9   15    8     -0.78      0.00
   10   15    8      0.06      0.00
   -8   16    8      0.02      0.00
   -7   16    8      1.87      0.00
   -6   16    8     -0.38      0.00
   -5   16    8     -0.85      0.00
   -4   16    8      0.31      0.00
   -3   16    8     -1.17      0.00
   -2   16    8      0.13      0.00
   -1   16    8      0.58      0.00
    0   16    8      0.37      0.00
    1   16    8     -0.13      0.00
    2   16    8     -0.84      0.00
    3   16    8      0.33      0.00
    4   16    8      0.02      0.00
    5   16    8     -0.64      0.00
    6   16    8      0.42      0.00
    7   16    8      1.10      0.00
    8   16    8     -0.76      0.00
   -6   17    8      0.50      0.00
   -5   17    8      0.86      0.00
   -4   17    8     -1.09      0.00
   -3   17    8     -1.52      0.00
   -2   17    8      1.26      0.00
   -1   17    8      2.28      0.00
    0   17    8      0.00      0.00
    1   17    8     -0.41      0.00
    2   17    8     -1.80      0.00
    3   17    8     -0.33      0.00
    4   17    8      1.21      0.00
    5   17    8     -0.93      0.00
    6   17    8      0.24      0.00
   -4   18    8     -0.72      0.00
   -3   18    8      1.01      0.00
   -2   18    8     -0.23      0.00
   -1   18    8     -0.11      0.00
    0   18    8      1.74      0.00
    1   18    8     -0.47      0.00
    2   18    8     -0.77      0.00
    3   18    8     -0.72      0.00
    4   18    8      0.12      0.00
  -17    0    9      1.15      0.00
  -15    0    9      1.50      0.00
  -13    0    9     -1.31      0.00
  -11    0    9     -0.97      0.00
   -9    0    9      4.14      0.00
   -7    0    9     -4.79      0.00
   -5    0    9     -1.97      0.00
   -3    0    9      6.42      0.00
   -1    0    9     -9.35      0.00
    1    0    9      7.06      0.00
    3    0    9     -5.55      0.00
    5    0    9      5.74      0.00
    7    0    9     -3.42      0.00
    9    0    9      0.93      0.00
   11    0    9      1.25      0.00
   13    0    9      0.78      0.00
   15    0    9      0.35      0.00
   17    0    9     -1.23      0.00
  -17    1    9      1.03      0.00
  -16    1    9      1.23      0.00
  -15    1    9      0.20      0.00
  -14    1    9     -0.37      0.00
  -13    1    9      0.91      0.00
  -12    1    9     -0.61      0.00
  -11    1    9     -1.40      0.00
  -10    1    9      1.13      0.00
   -9    1    9      0.17      0.00
   -8    1    9     -1.98      0.00
   -7    1    9      4.53      0.00
   -6    1    9     -1.34      0.00
   -5    1    9     -8.67      0.00
   -4    1    9      3.20      0.00
   -3    1    9      3.98      0.00
   -2    1    9     -2.04      0.00
   -1    1    9      2.18      0.00
    0    1    9     -1.55      0.00
    1    1    9      1.16      0.00
    2    1    9      2.59      0.00
    3    1    9     -8.14      0.00
    4    1    9     -2.51      0.00
    5    1    9      4.86      0.00
    6    1    9      1.79      0.00
    7    1    9     -0.38      0.00
    8    1    9     -0.22      0.00
    9    1    9      1.53      0.00
   10    1    9      0.26      0.00
   11    1    9     -3.38      0.00
   12    1    9      0.92      0.00
   13    1    9      1.86      0.00
   14    1    9     -0.45      0.00
   15    1    9      1.66      0.00
   16    1    9     -0.96      0.00
   17    1    9     -1.86      0.00
  -17    2    9      0.59      0.00
  -16    2    9     -0.08      0.00
  -15    2    9     -1.00      0.00
  -14    2    9      0.56      0.00
  -13    2    9      0.06      0.00
  -12    2    9     -0.49      0.00
  -11    2    9      1.42      0.00
  -10    2    9     -0.55      0.00
   -9    2    9     -3.75      0.00
   -8    2    9      1.49      0.00
   -7    2    9     -0.11      0.00
   -6    2    9      2.44      0.00
   -5    2    9      5.84      0.00
   -4    2    9     -8.02      0.00
   -3    2    9     -5.86      0.00
   -2    2    9      5.50      0.00
   -1    2    9      3.56      0.00
    0    2    9     -0.07      0.00
    1    2    9     -1.50      0.00
    2    2    9      0.90      0.00
    3    2    9      3.36      0.00
    4    2    9     -5.31      0.00
    5    2    9     -4.99      0.00
    6    2    9      3.35      0.00
    7    2    9      2.44      0.00
    8    2    9      2.69      0.00
    9    2    9      0.32      0.00
   10    2    9     -3.61      0.00
   11    2    9     -0.62      0.00
   12    2    9      0.40      0.00
   13    2    9     -0.05      0.00
   14    2    9      1.13      0.00
   15    2    9     -1.90      0.00
   16    2    9     -0.48      0.00
   17    2    9      0.81      0.00
  -17    3    9     -0.12      0.00
  -16    3    9     -1.07      0.00
  -15    3    9      0.55      0.00
  -14    3    9     -0.62      0.00
  -13    3    9     -0.18      0.00
  -12    3    9      2.21      0.00
  -11    3    9     -2.52      0.00
  -10    3    9     -2.40      0.00
   -9    3    9      2.41      0.00
   -8    3    9     -0.51      0.00
   -7    3    9      2.97      0.00
   -6    3    9      3.19      0.00
   -5    3    9     -4.45      0.00
   -4    3    9     -0.86      0.00
   -3    3    9     -0.48      0.00
   -2    3    9     -1.83      0.00
   -1    3    9      3.26      0.00
    0    3    9      3.40      0.00
    1    3    9     -1.49      0.00
    2    3    9      0.85      0.00
    3    3    9      2.21      0.00
    4    3    9     -1.08      0.00
    5    3    9     -2.87      0.00
    6    3    9     -1.54      0.00
    7    3    9      2.68      0.00
    8    3    9      1.25      0.00
    9    3    9      0.02      0.00
   10    3    9     -0.47      0.00
   11    3    9     -1.00      0.00
   12    3    9     -0.93      0.00
   13    3    9     -0.66      0.00
   14    3    9      0.41      0.00
   15    3    9     -0.06      0.00
   16    3    9     -0.28      0.00
   17    3    9      0.44      0.00
  -16    4    9      2.03      0.00
  -15    4    9     -0.42      0.00
  -14    4    9     -1.69      0.00
  -13    4    9      1.59      0.00
  -12    4    9     -1.70      0.00
  -11    4    9     -0.42      0.00
  -10    4    9      0.54      0.00
   -9    4    9     -1.26      0.00
   -8    4    9      2.42      0.00
   -7    4    9      1.66      0.00
   -6    4    9     -1.11      0.00
   -5    4    9     -0.97      0.00
   -4    4    9     -1.11      0.00
   -3    4    9      3.41      0.00
   -2    4    9      1.58      0.00
   -1    4    9     -3.75      0.00
    0    4    9      2.81      0.00
    1    4    9      3.42      0.00
    2    4    9     -4.04      0.00
    3    4    9     -0.83      0.00
    4    4    9      3.32      0.00
    5    4    9     -2.28      0.00
    6    4    9     -1.76      0.00
    7    4    9      3.05      0.00
    8    4    9     -0.87      0.00
    9    4    9     -1.08      0.00
   10    4    9      3.12      0.00
   11    4    9     -0.71      0.00
   12    4    9     -2.52      0.00
   13    4    9      0.11      0.00
   14    4    9      0.28      0.00
   15    4    9      0.97      0.00
   16    4    9     -0.30      0.00
  -16    5    9      2.22      0.00
  -15    5    9     -2.03      0.00
  -14    5    9      0.22      0.00
  -13    5    9     -1.61      0.00
  -12    5    9     -0.84      0.00
  -11    5    9      1.52      0.00
  -10    5    9      0.62      0.00
   -9    5    9     -1.66      0.00
   -8    5    9     -0.82      0.00
   -7    5    9      1.03      0.00
   -6    5    9      1.25      0.00
   -5    5    9      3.19      0.00
   -4    5    9      0.42      0.00
   -3    5    9     -3.48      0.00
   -2    5    9      0.26      0.00
   -1    5    9      3.20      0.00
    0    5    9     -1.75      0.00
    1    5    9     -1.33      0.00
    2    5    9     -0.26      0.00
    3    5    9     -0.32      0.00
    4    5    9      0.79      0.00
    5    5    9      0.47      0.00
    6    5    9     -1.13      0.00
    7    5    9     -1.60      0.00
    8    5    9      1.48      0.00
    9    5    9     -0.06      0.00
   10    5    9     -0.55      0.00
   11    5    9      1.54      0.00
   12    5    9     -0.71      0.00
   13    5    9     -0.56      0.00
   14    5    9      0.78      0.00
   15    5    9     -0.20      0.00
   16    5    9      0.50      0.00
  -16    6    9      0.38      0.00
  -15    6    9      0.76      0.00
  -14    6    9     -2.17      0.00
  -13    6    9     -1.77      0.00
  -12    6    9      1.33      0.00
  -11    6    9     -0.01      0.00
  -10    6    9     -1.10      0.00
   -9    6    9      2.34      0.00
   -8    6    9      1.44      0.00
   -7    6    9     -0.58      0.00
   -6    6    9     -0.93      0.00
   -5    6    9     -0.47      0.00
   -4    6    9      2.02      0.00
   -3    6    9     -2.28      0.00
   -2    6    9     -1.60      0.00
   -1    6    9      3.89      0.00
    0    6    9      0.54      0.00
    1    6    9     -3.64      0.00
    2    6    9     -1.18      0.00
    3    6    9     -1.10      0.00
    4    6    9      1.41      0.00
    5    6    9      3.10      0.00
    6    6    9     -0.40      0.00
    7    6    9     -2.29      0.00
    8    6    9     -1.52      0.00
    9    6    9     -0.14      0.00
   10    6    9      0.17      0.00
   11    6    9     -0.34      0.00
   12    6    9      0.94      0.00
   13    6    9      0.22      0.00
   14    6    9     -0.64      0.00
   15    6    9      0.40      0.00
   16    6    9      0.68      0.00
  -16    7    9     -0.28      0.00
  -15    7    9      2.01      0.00
  -14    7    9     -1.82      0.00
  -13    7    9      0.02      0.00
  -12    7    9     -1.46      0.00
  -11    7    9     -0.19      0.00
  -10    7    9      3.69      0.00
   -9    7    9      0.83      0.00
   -8    7    9      0.09      0.00
   -7    7    9     -2.06      0.00
   -6    7    9     -1.94      0.00
   -5    7    9     -0.84      0.00
   -4    7    9     -1.71      0.00
   -3    7    9      3.18      0.00
   -2    7    9      2.39      0.00
   -1    7    9     -2.36      0.00
    0    7    9      0.94      0.00
    1    7    9      0.95      0.00
    2    7    9     -2.37      0.00
    3    7    9     -0.20      0.00
    4    7    9     -0.88      0.00
    5    7    9      0.19      0.00
    6    7    9      2.60      0.00
    7    7    9     -0.34      0.00
    8    7    9     -2.71      0.00
    9    7    9     -0.65      0.00
   10    7    9      0.73      0.00
   11    7    9      0.76      0.00
   12    7    9     -0.13      0.00
   13    7    9     -0.27      0.00
   14    7    9      0.25      0.00
   15    7    9     -0.38      0.00
   16    7    9     -0.71      0.00
  -15    8    9      0.45      0.00
  -14    8    9      3.01      0.00
  -13    8    9     -3.41      0.00
  -12    8    9      0.31      0.00
  -11    8    9      3.34      0.00
  -10    8    9     -0.95      0.00
   -9    8    9     -0.28      0.00
   -8    8    9     -1.81      0.00
   -7    8    9      0.17      0.00
   -6    8    9     -0.39      0.00
   -5    8    9     -1.80      0.00
   -4    8    9      1.42      0.00
   -3    8    9      0.02      0.00
   -2    8    9     -0.16      0.00
   -1    8    9      2.63      0.00
    0    8    9     -1.00      0.00
    1    8    9     -0.47      0.00
    2    8    9      2.48      0.00
    3    8    9     -1.27      0.00
    4    8    9     -1.43      0.00
    5    8    9      1.63      0.00
    6    8    9     -1.86      0.00
    7    8    9     -1.67      0.00
    8    8    9      2.38      0.00
    9    8    9      0.80      0.00
   10    8    9     -1.71      0.00
   11    8    9      1.19      0.00
   12    8    9      1.94      0.00
   13    8    9      0.15      0.00
   14    8    9     -1.03      0.00
   15    8    9     -0.95      0.00
  -15    9    9      0.59      0.00
  -14    9    9     -0.13      0.00
  -13    9    9      1.28      0.00
  -12    9    9      2.06      0.00
  -11    9    9     -0.74      0.00
  -10    9    9     -1.82      0.00
   -9    9    9     -0.35      0.00
   -8    9    9      1.99      0.00
   -7    9    9     -0.66      0.00
   -6    9    9     -0.64      0.00
   -5    9    9     -0.37      0.00
   -4    9    9     -1.22      0.00
   -3    9    9      1.22      0.00
   -2    9    9      0.42      0.00
   -1    9    9     -1.73      0.00
    0    9    9      1.04      0.00
    1    9    9      1.84      0.00
    2    9    9     -1.27      0.00
    3    9    9     -1.09      0.00
    4    9    9      2.43      0.00
    5    9    9     -0.38      0.00
    6    9    9      0.20      0.00
    7    9    9     -0.71      0.00
    8    9    9     -2.07      0.00
    9    9    9      1.27      0.00
   10    9    9      1.93      0.00
   11    9    9     -0.18      0.00
   12    9    9      1.15      0.00
   13    9    9      0.74      0.00
   14    9    9     -0.52      0.00
   15    9    9     -0.61      0.00
  -14   10    9      1.75      0.00
  -13   10    9      3.25      0.00
  -12   10    9     -1.09      0.00
  -11   10    9     -1.11      0.00
  -10   10    9      0.30      0.00
   -9   10    9     -0.68      0.00
   -8   10    9     -0.15      0.00
   -7   10    9      1.75      0.00
   -6   10    9     -0.78      0.00
   -5   10    9     -1.62      0.00
   -4   10    9      0.22      0.00
   -3   10    9      1.46      0.00
   -2   10    9     -0.13      0.00
   -1   10    9     -3.51      0.00
    0   10    9      0.17      0.00
    1   10    9      0.98      0.00
    2   10    9     -0.68      0.00
    3   10    9      1.66      0.00
    4   10    9     -0.57      0.00
    5   10    9      0.35      0.00
    6   10    9      0.54      0.00
    7   10    9     -0.49      0.00
    8   10    9     -1.09      0.00
    9   10    9      0.06      0.00
   10   10    9      1.96      0.00
   11   10    9      0.06      0.00
   12   10    9     -0.03      0.00
   13   10    9      0.22      0.00
   14   10    9     -0.37      0.00
  -13   11    9      0.67      0.00
  -12   11    9     -0.34      0.00
  -11   11    9     -0.33      0.00
  -10   11    9     -0.33      0.00
   -9   11    9      0.09      0.00
   -8   11    9     -0.26      0.00
   -7   11    9     -1.48      0.00
   -6   11    9      0.80      0.00
   -5   11    9      1.76      0.00
   -4   11    9     -0.75      0.00
   -3   11    9     -1.42      0.00
   -2   11    9      0.22      0.00
   -1   11    9      1.02      0.00
    0   11    9     -2.47      0.00
    1   11    9     -1.43      0.00
    2   11    9      2.00      0.00
    3   11    9      0.46      0.00
    4   11    9     -0.49      0.00
    5   11    9      0.41      0.00
    6   11    9     -0.14      0.00
    7   11    9     -0.76      0.00
    8   11    9      0.54      0.00
    9   11    9     -0.14      0.00
   10   11    9     -0.34      0.00
   11   11    9      1.69      0.00
   12   11    9     -1.36      0.00
   13   11    9     -0.37      0.00
  -13   12    9     -0.08      0.00
  -12   12    9      0.14      0.00
  -11   12    9     -1.19      0.00
  -10   12    9      0.52      0.00
   -9   12    9      0.21      0.00
   -8   12    9     -0.17      0.00
   -7   12    9      0.60      0.00
   -6   12    9     -0.18      0.00
   -5   12    9     -0.15      0.00
   -4   12    9      0.18      0.00
   -3   12    9     -0.35      0.00
   -2   12    9      0.33      0.00
   -1   12    9      0.04      0.00
    0   12    9     -0.73      0.00
    1   12    9      0.12      0.00
    2   12    9      0.78      0.00
    3   12    9     -0.17      0.00
    4   12    9     -0.46      0.00
    5   12    9     -0.38      0.00
    6   12    9      1.36      0.00
    7   12    9      0.34      0.00
    8   12    9     -1.80      0.00
    9   12    9      0.39      0.00
   10   12    9      1.23      0.00
   11   12    9     -2.06      0.00
   12   12    9     -0.40      0.00
   13   12    9      0.71      0.00
  -12   13    9     -0.42      0.00
  -11   13    9     -0.44      0.00
  -10   13    9     -1.28      0.00
   -9   13    9     -0.53      0.00
   -8   13    9      1.74      0.00
   -7   13    9      2.32      0.00
   -6   13    9     -0.58      0.00
   -5   13    9     -1.65      0.00
   -4   13    9      1.17      0.00
   -3   13    9      1.47      0.00
   -2   13    9     -1.72      0.00
   -1   13    9     -0.73      0.00
    0   13    9      1.12      0.00
    1   13    9     -0.48      0.00
    2   13    9      0.46      0.00
    3   13    9      2.33      0.00
    4   13    9     -0.65      0.00
    5   13    9     -1.98      0.00
    6   13    9      0.05      0.00
    7   13    9      1.37      0.00
    8   13    9      0.50      0.00
    9   13    9     -0.22      0.00
   10   13    9     -1.26      0.00
   11   13    9     -0.40      0.00
   12   13    9     -0.26      0.00
  -11   14    9     -0.36      0.00
  -10   14    9     -0.56      0.00
   -9   14    9      0.35      0.00
   -8   14    9      0.50      0.00
   -7   14    9     -0.62      0.00
   -6   14    9      1.12      0.00
   -5   14    9      1.55      0.00
   -4   14    9     -0.11      0.00
   -3   14    9     -0.92      0.00
   -2   14    9      0.19      0.00
   -1   14    9      0.20      0.00
    0   14    9     -1.18      0.00
    1   14    9      0.72      0.00
    2   14    9      1.38      0.00
    3   14    9     -1.34      0.00
    4   14    9      0.35      0.00
    5   14    9      0.91      0.00
    6   14    9     -1.42      0.00
    7   14    9     -0.87      0.00
    8   14    9      2.45      0.00
    9   14    9      0.17      0.00
   10   14    9     -1.46      0.00
   11   14    9      0.72      0.00
   -9   15    9      1.35      0.00
   -8   15    9     -1.80      0.00
   -7   15    9     -0.34      0.00
   -6   15    9      1.60      0.00
   -5   15    9      0.17      0.00
   -4   15    9     -0.20      0.00
   -3   15    9     -0.77      0.00
   -2   15    9      0.03      0.00
   -1   15    9     -0.21      0.00
    0   15    9      0.47      0.00
    1   15    9      1.96      0.00
    2   15    9     -0.47      0.00
    3   15    9     -1.92      0.00
    4   15    9     -0.78      0.00
    5   15    9      0.13      0.00
    6   15    9     -0.41      0.00
    7   15    9      1.40      0.00
    8   15    9      0.34      0.00
    9   15    9     -0.20      0.00
   -8   16    9      1.07      0.00
   -7   16    9      0.34      0.00
   -6   16    9     -1.46      0.00
   -5   16    9      0.08      0.00
   -4   16    9      0.44      0.00
   -3   16    9     -0.42      0.00
   -2   16    9     -1.77      0.00
   -1   16    9      0.89      0.00
    0   16    9      1.93      0.00
    1   16    9      0.64      0.00
    2   16    9     -0.14      0.00
    3   16    9     -1.39      0.00
    4   16    9     -0.95      0.00
    5   16    9     -0.01      0.00
    6   16    9     -0.06      0.00
    7   16    9      0.94      0.00
    8   16    9      1.14      0.00
   -6   17    9     -0.50      0.00
   -5   17    9      0.44      0.00
   -4   17    9     -0.83      0.00
   -3   17    9     -0.16      0.00
   -2   17    9      1.39      0.00
   -1   17    9     -0.90      0.00
    0   17    9      0.06      0.00
    1   17    9      0.30      0.00
    2   17    9     -0.18      0.00
    3   17    9      0.22      0.00
    4   17    9     -0.03      0.00
    5   17    9     -0.22      0.00
    6   17    9      1.38      0.00
   -3   18    9      0.40      0.00
   -2   18    9      0.73      0.00
   -1   18    9      0.27      0.00
    0   18    9     -0.75      0.00
    1   18    9     -1.14      0.00
    2   18    9     -0.48      0.00
    3   18    9      1.70      0.00
  -16    0   10      0.79      0.00
  -14    0   10      0.49      0.00
  -12    0   10      1.53      0.00
  -10    0   10     -1.12      0.00
   -8    0   10     -2.04      0.00
   -6    0   10      7.35      0.00
   -4    0   10     -2.75      0.00
   -2    0   10     -5.60      0.00
    0    0   10      6.39      0.00
    2    0   10      3.67      0.00
    4    0   10     -5.01      0.00
    6    0   10      0.88      0.00
    8    0   10     -1.45      0.00
   10    0   10      4.95      0.00
   12    0   10     -3.97      0.00
   14    0   10     -0.02      0.00
   16    0   10      2.06      0.00
  -17    1   10      0.21      0.00
  -16    1   10      0.57      0.00
  -15    1   10      0.81      0.00
  -14    1   10     -2.19      0.00
  -13    1   10     -0.18      0.00
  -12    1   10     -0.84      0.00
  -11    1   10      0.17      0.00
  -10    1   10      2.92      0.00
   -9    1   10     -0.91      0.00
   -8    1   10     -5.80      0.00
   -7    1   10     -0.66      0.00
   -6    1   10      0.31      0.00
   -5    1   10      5.74      0.00
   -4    1   10      4.70      0.00
   -3    1   10     -6.30      0.00
   -2    1   10     -5.29      0.00
   -1    1   10      1.70      0.00
    0    1   10      3.72      0.00
    1    1   10      1.33      0.00
    2    1   10     -4.38      0.00
    3    1   10      1.48      0.00
    4    1   10      6.53      0.00
    5    1   10     -2.12      0.00
    6    1   10     -3.76      0.00
    7    1   10     -1.10      0.00
    8    1   10      0.99      0.00
    9    1   10      2.92      0.00
   10    1   10      0.33      0.00
   11    1   10     -0.80      0.00
   12    1   10      1.03      0.00
   13    1   10     -1.08      0.00
   14    1   10     -0.47      0.00
   15    1   10      1.14      0.00
   16    1   10     -1.86      0.00
   17    1   10     -0.80      0.00
  -17    2   10      0.21      0.00
  -16    2   10     -0.31      0.00
  -15    2   10     -0.41      0.00
  -14    2   10      0.12      0.00
  -13    2   10     -2.15      0.00
  -12    2   10     -0.39      0.00
  -11    2   10      1.73      0.00
  -10    2   10     -1.45      0.00
   -9    2   10     -2.43      0.00
   -8    2   10     -0.29      0.00
   -7    2   10     -0.98      0.00
   -6    2   10      0.08      0.00
   -5    2   10      3.69      0.00
   -4    2   10      0.57      0.00
   -3    2   10     -4.15      0.00
   -2    2   10     -1.18      0.00
   -1    2   10      2.21      0.00
    0    2   10      0.56      0.00
    1    2   10     -0.69      0.00
    2    2   10     -3.62      0.00
    3    2   10      0.04      0.00
    4    2   10      4.13      0.00
    5    2   10      2.91      0.00
    6    2   10     -2.20      0.00
    7    2   10     -1.52      0.00
    8    2   10      1.14      0.00
    9    2   10      0.17      0.00
   10    2   10     -1.02      0.00
   11    2   10      0.76      0.00
   12    2   10      0.88      0.00
   13    2   10     -0.90      0.00
   14    2   10      0.34      0.00
   15    2   10     -0.85      0.00
   16    2   10     -1.54      0.00
   17    2   10      0.40      0.00
  -16    3   10     -0.21      0.00
  -15    3   10      1.23      0.00
  -14    3   10     -0.93      0.00
  -13    3   10     -0.24      0.00
  -12    3   10      1.10      0.00
  -11    3   10     -1.73      0.00
  -10    3   10     -0.63      0.00
   -9    3   10     -0.65      0.00
   -8    3   10     -0.70      0.00
   -7    3   10      1.87      0.00
   -6    3   10      3.91      0.00
   -5    3   10     -5.44      0.00
   -4    3   10     -4.58      0.00
   -3    3   10      5.26      0.00
   -2    3   10      2.87      0.00
   -1    3   10     -3.22      0.00
    0    3   10      0.95      0.00
    1    3   10      2.31      0.00
    2    3   10     -0.46      0.00
    3    3   10     -4.48      0.00
    4    3   10     -1.52      0.00
    5    3   10      4.02      0.00
    6    3   10      1.33      0.00
    7    3   10      0.33      0.00
    8    3   10      1.14      0.00
    9    3   10     -3.55      0.00
   10    3   10     -0.94      0.00
   11    3   10      2.01      0.00
   12    3   10     -0.30      0.00
   13    3   10      0.48      0.00
   14    3   10     -1.28      0.00
   15    3   10     -0.79      0.00
   16    3   10      1.28      0.00
  -16    4   10      2.06      0.00
  -15    4   10     -0.13      0.00
  -14    4   10      0.03      0.00
  -13    4   10      1.64      0.00
  -12    4   10     -2.37      0.00
  -11    4   10     -1.36      0.00
  -10    4   10      2.46      0.00
   -9    4   10      0.65      0.00
   -8    4   10     -0.82      0.00
   -7    4   10      1.33      0.00
   -6    4   10     -2.55      0.00
   -5    4   10     -0.02      0.00
   -4    4   10      0.61      0.00
   -3    4   10     -0.29      0.00
   -2    4   10      3.68      0.00
   -1    4   10      2.06      0.00
    0    4   10     -3.32      0.00
    1    4   10      0.82      0.00
    2    4   10      2.93      0.00
    3    4   10     -3.67      0.00
    4    4   10     -2.39      0.00
    5    4   10      0.69      0.00
    6    4   10      2.49      0.00
    7    4   10      1.11      0.00
    8    4   10     -0.88      0.00
    9    4   10      0.43      0.00
   10    4   10     -2.34      0.00
   11    4   10     -0.81      0.00
   12    4   10      1.42      0.00
   13    4   10     -0.33      0.00
   14    4   10      0.81      0.00
   15    4   10      0.52      0.00
   16    4   10     -0.63      0.00
  -16    5   10     -1.02      0.00
  -15    5   10     -0.45      0.00
  -14    5   10      2.45      0.00
  -13    5   10     -0.61      0.00
  -12    5   10     -1.70      0.00
  -11    5   10      1.93      0.00
  -10    5   10     -1.97      0.00
   -9    5   10      0.38      0.00
   -8    5   10      2.91      0.00
   -7    5   10     -0.25      0.00
   -6    5   10      0.33      0.00
   -5    5   10     -1.61      0.00
   -4    5   10      1.19      0.00
   -3    5   10      1.56      0.00
   -2    5   10     -3.96      0.00
   -1    5   10      1.80      0.00
    0    5   10      3.99      0.00
    1    5   10     -2.46      0.00
    2    5   10     -0.98      0.00
    3    5   10      2.17      0.00
    4    5   10     -3.89      0.00
    5    5   10     -1.11      0.00
    6    5   10      4.12      0.00
    7    5   10      1.12      0.00
    8    5   10     -1.13      0.00
    9    5   10     -0.37      0.00
   10    5   10     -0.13      0.00
   11    5   10     -2.04      0.00
   12    5   10     -0.70      0.00
   13    5   10      1.62      0.00
   14    5   10      0.84      0.00
   15    5   10      0.16      0.00
   16    5   10      0.57      0.00
  -16    6   10     -3.87      0.00
  -15    6   10     -0.60      0.00
  -14    6   10      0.78      0.00
  -13    6   10      0.14      0.00
  -12    6   10      1.80      0.00
  -11    6   10     -2.29      0.00
  -10    6   10      0.95      0.00
   -9    6   10      0.23      0.00
   -8    6   10      2.40      0.00
   -7    6   10      2.28      0.00
   -6    6   10     -2.11      0.00
   -5    6   10     -0.37      0.00
   -4    6   10     -2.21      0.00
   -3    6   10     -1.62      0.00
   -2    6   10      3.22      0.00
   -1    6   10     -1.35      0.00
    0    6   10     -1.86      0.00
    1    6   10      1.89      0.00
    2    6   10      0.38      0.00
    3    6   10     -0.31      0.00
    4    6   10      0.44      0.00
    5    6   10     -2.02      0.00
    6    6   10     -0.54      0.00
    7    6   10      2.97      0.00
    8    6   10      0.01      0.00
    9    6   10     -2.33      0.00
   10    6   10      0.14      0.00
   11    6   10      0.20      0.00
   12    6   10     -0.51      0.00
   13    6   10      0.04      0.00
   14    6   10      0.65      0.00
   15    6   10      0.29      0.00
   16    6   10     -0.41      0.00
  -15    7   10     -2.65      0.00
  -14    7   10     -0.24      0.00
  -13    7   10      1.21      0.00
  -12    7   10     -1.35      0.00
  -11    7   10      2.99      0.00
  -10    7   10      1.35      0.00
   -9    7   10      1.12      0.00
   -8    7   10     -1.70      0.00
   -7    7   10     -1.35      0.00
   -6    7   10      1.79      0.00
   -5    7   10     -1.04      0.00
   -4    7   10     -1.33      0.00
   -3    7   10      0.42      0.00
   -2    7   10      0.59      0.00
   -1    7   10      1.20      0.00
    0    7   10     -1.89      0.00
    1    7   10     -3.65      0.00
    2    7   10      0.62      0.00
    3    7   10      3.71      0.00
    4    7   10      0.53      0.00
    5    7   10     -1.29      0.00
    6    7   10      0.14      0.00
    7    7   10     -2.15      0.00
    8    7   10     -1.42      0.00
    9    7   10      2.23      0.00
   10    7   10     -0.06      0.00
   11    7   10     -1.40      0.00
   12    7   10      0.57      0.00
   13    7   10      1.07      0.00
   14    7   10     -0.49      0.00
   15    7   10     -0.29      0.00
  -15    8   10     -0.01      0.00
  -14    8   10     -1.83      0.00
  -13    8   10     -1.33      0.00
  -12    8   10      2.14      0.00
  -11    8   10      3.27      0.00
  -10    8   10      0.33      0.00
   -9    8   10     -2.38      0.00
   -8    8   10     -0.56      0.00
   -7    8   10     -0.06      0.00
   -6    8   10      0.03      0.00
   -5    8   10      1.84      0.00
   -4    8   10      0.60      0.00
   -3    8   10     -0.79      0.00
   -2    8   10      0.35      0.00
   -1    8   10      0.68      0.00
    0    8   10     -0.56      0.00
    1    8   10     -1.48      0.00
    2    8   10     -0.64      0.00
    3    8   10     -0.93      0.00
    4    8   10      0.61      0.00
    5    8   10      1.36      0.00
    6    8   10     -1.07      0.00
    7    8   10      0.54      0.00
    8    8   10     -0.10      0.00
    9    8   10     -1.28      0.00
   10    8   10      1.15      0.00
   11    8   10      0.35      0.00
   12    8   10     -0.87      0.00
   13    8   10      0.03      0.00
   14    8   10      0.28      0.00
   15    8   10      0.03      0.00
  -14    9   10     -2.84      0.00
  -13    9   10      0.77      0.00
  -12    9   10      3.47      0.00
  -11    9   10     -2.33      0.00
  -10    9   10     -0.07      0.00
   -9    9   10      1.19      0.00
   -8    9   10     -1.70      0.00
   -7    9   10     -0.40      0.00
   -6    9   10      0.97      0.00
   -5    9   10      0.61      0.00
   -4    9   10     -0.17      0.00
   -3    9   10      0.02      0.00
   -2    9   10      2.68      0.00
   -1    9   10     -0.21      0.00
    0    9   10     -1.83      0.00
    1    9   10      1.46      0.00
    2    9   10     -1.90      0.00
    3    9   10     -1.74      0.00
    4    9   10      1.45      0.00
    5    9   10     -1.10      0.00
    6    9   10     -0.53      0.00
    7    9   10      1.46      0.00
    8    9   10      1.44      0.00
    9    9   10     -0.93      0.00
   10    9   10     -0.07      0.00
   11    9   10      1.96      0.00
   12    9   10     -0.51      0.00
   13    9   10     -1.47      0.00
   14    9   10     -0.31      0.00
  -14   10   10      0.12      0.00
  -13   10   10      0.78      0.00
  -12   10   10     -1.63      0.00
  -11   10   10      0.62      0.00
  -10   10   10     -0.20      0.00
   -9   10   10     -0.41      0.00
   -8   10   10      0.22      0.00
   -7   10   10     -1.40      0.00
   -6   10   10     -0.99      0.00
   -5   10   10      0.70      0.00
   -4   10   10      1.25      0.00
   -3   10   10      0.28      0.00
   -2   10   10     -1.36      0.00
   -1   10   10      1.65      0.00
    0   10   10      1.40      0.00
    1   10   10     -2.91      0.00
    2   10   10     -0.80      0.00
    3   10   10      2.04      0.00
    4   10   10     -0.06      0.00
    5   10   10     -0.34      0.00
    6   10   10     -0.36      0.00
    7   10   10     -1.41      0.00
    8   10   10      0.85      0.00
    9   10   10      2.56      0.00
   10   10   10     -0.59      0.00
   11   10   10     -0.24      0.00
   12   10   10      0.81      0.00
   13   10   10     -1.15      0.00
   14   10   10     -0.27      0.00
  -13   11   10     -2.12      0.00
  -12   11   10      1.18      0.00
  -11   11   10      0.16      0.00
  -10   11   10     -1.44      0.00
   -9   11   10     -0.10      0.00
   -8   11   10     -0.34      0.00
   -7   11   10     -0.20      0.00
   -6   11   10     -0.25      0.00
   -5   11   10     -0.13      0.00
   -4   11   10      0.71      0.00
   -3   11   10      0.46      0.00
   -2   11   10     -1.44      0.00
   -1   11   10     -0.60      0.00
    0   11   10      0.79      0.00
    1   11   10     -0.22      0.00
    2   11   10      0.83      0.00
    3   11   10      0.35      0.00
    4   11   10      0.72      0.00
    5   11   10      0.40      0.00
    6   11   10     -2.07      0.00
    7   11   10      0.46      0.00
    8   11   10      1.27      0.00
    9   11   10     -0.24      0.00
   10   11   10      0.47      0.00
   11   11   10     -0.01      0.00
   12   11   10     -0.30      0.00
   13   11   10     -0.22      0.00
  -12   12   10     -0.24      0.00
  -11   12   10      0.44      0.00
  -10   12   10      0.53      0.00
   -9   12   10     -1.49      0.00
   -8   12   10     -1.43      0.00
   -7   12   10      0.88      0.00
   -6   12   10      1.47      0.00
   -5   12   10     -1.14      0.00
   -4   12   10     -0.61      0.00
   -3   12   10      1.34      0.00
   -2   12   10      1.17      0.00
   -1   12   10     -2.33      0.00
    0   12   10     -1.16      0.00
    1   12   10      1.60      0.00
    2   12   10      0.31      0.00
    3   12   10      1.36      0.00
    4   12   10      0.75      0.00
    5   12   10     -0.68      0.00
    6   12   10     -0.87      0.00
    7   12   10     -0.98      0.00
    8   12   10      1.07      0.00
    9   12   10      0.95      0.00
   10   12   10      0.38      0.00
   11   12   10     -0.71      0.00
   12   12   10     -0.44      0.00
  -11   13   10      0.56      0.00
  -10   13   10      0.64      0.00
   -9   13   10     -0.86      0.00
   -8   13   10      0.04      0.00
   -7   13   10     -0.36      0.00
   -6   13   10     -0.89      0.00
   -5   13   10      0.75      0.00
   -4   13   10      0.17      0.00
   -3   13   10      0.29      0.00
   -2   13   10     -0.30      0.00
   -1   13   10      0.81      0.00
    0   13   10     -0.30      0.00
    1   13   10     -1.07      0.00
    2   13   10      2.02      0.00
    3   13   10      0.20      0.00
    4   13   10     -0.91      0.00
    5   13   10      0.29      0.00
    6   13   10      0.20      0.00
    7   13   10     -1.95      0.00
    8   13   10     -0.71      0.00
    9   13   10      3.15      0.00
   10   13   10     -0.95      0.00
   11   13   10     -0.70      0.00
  -10   14   10     -0.94      0.00
   -9   14   10      1.00      0.00
   -8   14   10      1.29      0.00
   -7   14   10     -1.49      0.00
   -6   14   10     -0.48      0.00
   -5   14   10      0.56      0.00
   -4   14   10      0.06      0.00
   -3   14   10     -1.15      0.00
   -2   14   10     -0.30      0.00
   -1   14   10      1.08      0.00
    0   14   10     -0.65      0.00
    1   14   10      0.31      0.00
    2   14   10      1.50      0.00
    3   14   10     -0.06      0.00
    4   14   10     -1.68      0.00
    5   14   10     -0.26      0.00
    6   14   10     -0.61      0.00
    7   14   10     -0.20      0.00
    8   14   10      0.85      0.00
    9   14   10     -1.27      0.00
   10   14   10      1.74      0.00
   -9   15   10     -0.22      0.00
   -8   15   10     -1.11      0.00
   -7   15   10      1.95      0.00
   -6   15   10      0.89      0.00
   -5   15   10     -1.36      0.00
   -4   15   10     -0.54      0.00
   -3   15   10      0.01      0.00
   -2   15   10      0.26      0.00
   -1   15   10     -1.71      0.00
    0   15   10      0.49      0.00
    1   15   10      1.32      0.00
    2   15   10     -1.23      0.00
    3   15   10      0.31      0.00
    4   15   10      0.39      0.00
    5   15   10     -1.91      0.00
    6   15   10     -0.06      0.00
    7   15   10      1.48      0.00
    8   15   10      0.25      0.00
    9   15   10      0.17      0.00
   -8   16   10      0.38      0.00
   -7   16   10      0.74      0.00
   -6   16   10     -0.36      0.00
   -5   16   10      0.57      0.00
   -4   16   10      0.02      0.00
   -3   16   10     -0.68      0.00
   -2   16   10      0.27      0.00
   -1   16   10      0.83      0.00
    0   16   10      0.31      0.00
    1   16   10     -0.90      0.00
    2   16   10     -1.21      0.00
    3   16   10     -1.07      0.00
    4   16   10      0.56      0.00
    5   16   10      0.70      0.00
    6   16   10      0.77      0.00
    7   16   10      1.53      0.00
    8   16   10     -0.52      0.00
   -5   17   10      1.07      0.00
   -4   17   10      0.05      0.00
   -3   17   10     -0.29      0.00
   -2   17   10      0.27      0.00
   -1   17   10      1.31      0.00
    0   17   10     -0.08      0.00
    1   17   10     -0.10      0.00
    2   17   10     -1.80      0.00
    3   17   10     -0.91      0.00
    4   17   10      1.59      0.00
    5   17   10      0.50      0.00
   -1   18   10     -0.19      0.00
    0   18   10      0.88      0.00
    1   18   10     -0.59      0.00
  -15    0   11      3.19      0.00
  -13    0   11     -1.06      0.00
  -11    0   11     -1.65      0.00
   -9    0   11      4.81      0.00
   -7    0   11     -5.69      0.00
   -5    0   11     -0.49      0.00
   -3    0   11      3.07      0.00
   -1    0   11     -3.55      0.00
    1    0   11      5.03      0.00
    3    0   11     -6.97      0.00
    5    0   11      3.26      0.00
    7    0   11     -0.68      0.00
    9    0   11      1.43      0.00
   11    0   11     -1.46      0.00
   13    0   11      2.50      0.00
   15    0   11      0.97      0.00
  -16    1   11      1.05      0.00
  -15    1   11     -0.05      0.00
  -14    1   11      0.74      0.00
  -13    1   11      0.17      0.00
  -12    1   11     -1.10      0.00
  -11    1   11     -0.44      0.00
  -10    1   11      1.32      0.00
   -9    1   11     -0.65      0.00
   -8    1   11     -1.45      0.00
   -7    1   11      2.90      0.00
   -6    1   11     -1.54      0.00
   -5    1   11     -2.07      0.00
   -4    1   11      3.49      0.00
   -3    1   11     -3.36      0.00
   -2    1   11     -4.65      0.00
   -1    1   11      5.98      0.00
    0    1   11      3.31      0.00
    1    1   11     -1.61      0.00
    2    1   11     -0.44      0.00
    3    1   11     -2.52      0.00
    4    1   11     -2.25      0.00
    5    1   11      0.86      0.00
    6    1   11      0.78      0.00
    7    1   11     -1.30      0.00
    8    1   11      1.07      0.00
    9    1   11      3.54      0.00
   10    1   11     -0.32      0.00
   11    1   11     -3.56      0.00
   12    1   11      0.59      0.00
   13    1   11      0.38      0.00
   14    1   11      0.83      0.00
   15    1   11      1.38      0.00
   16    1   11     -1.36      0.00
  -16    2   11     -0.23      0.00
  -15    2   11     -1.22      0.00
  -14    2   11     -0.38      0.00
  -13    2   11     -0.29      0.00
  -12    2   11      0.91      0.00
  -11    2   11      1.22      0.00
  -10    2   11     -1.17      0.00
   -9    2   11     -2.30      0.00
   -8    2   11      0.17      0.00
   -7    2   11      0.11      0.00
   -6    2   11      4.85      0.00
   -5    2   11      3.67      0.00
   -4    2   11     -8.88      0.00
   -3    2   11     -3.60      0.00
   -2    2   11      5.79      0.00
   -1    2   11      0.18      0.00
    0    2   11     -0.52      0.00
    1    2   11      1.22      0.00
    2    2   11      0.66      0.00
    3    2   11      2.92      0.00
    4    2   11     -2.57      0.00
    5    2   11     -4.39      0.00
    6    2   11     -0.23      0.00
    7    2   11      1.00      0.00
    8    2   11      3.51      0.00
    9    2   11      0.99      0.00
   10    2   11     -2.32      0.00
   11    2   11      0.06      0.00
   12    2   11     -0.85      0.00
   13    2   11     -0.11      0.00
   14    2   11      1.38      0.00
   15    2   11     -2.03      0.00
   16    2   11     -0.56      0.00
  -16    3   11      0.61      0.00
  -15    3   11      1.01      0.00
  -14    3   11     -2.67      0.00
  -13    3   11      0.87      0.00
  -12    3   11      2.46      0.00
  -11    3   11     -2.26      0.00
  -10    3   11     -2.04      0.00
   -9    3   11      1.17      0.00
   -8    3   11      0.18      0.00
   -7    3   11      2.08      0.00
   -6    3   11      1.82      0.00
   -5    3   11     -0.33      0.00
   -4    3   11     -2.13      0.00
   -3    3   11     -4.51      0.00
   -2    3   11      2.57      0.00
   -1    3   11      6.44      0.00
    0    3   11     -2.34      0.00
    1    3   11     -5.43      0.00
    2    3   11      3.95      0.00
    3    3   11      4.68      0.00
    4    3   11     -0.93      0.00
    5    3   11     -2.62      0.00
    6    3   11     -2.09      0.00
    7    3   11      1.71      0.00
    8    3   11      0.34      0.00
    9    3   11      0.38      0.00
   10    3   11      0.95      0.00
   11    3   11     -1.55      0.00
   12    3   11     -0.75      0.00
   13    3   11      0.57      0.00
   14    3   11     -0.92      0.00
   15    3   11      0.12      0.00
   16    3   11      0.38      0.00
  -16    4   11      0.92      0.00
  -15    4   11     -2.07      0.00
  -14    4   11     -0.58      0.00
  -13    4   11      2.08      0.00
  -12    4   11     -2.21      0.00
  -11    4   11     -0.03      0.00
  -10    4   11      1.15      0.00
   -9    4   11     -2.50      0.00
   -8    4   11      1.11      0.00
   -7    4   11      2.93      0.00
   -6    4   11     -0.39      0.00
   -5    4   11     -2.62      0.00
   -4    4   11      2.21      0.00
   -3    4   11      3.71      0.00
   -2    4   11     -4.13      0.00
   -1    4   11     -1.22      0.00
    0    4   11      4.59      0.00
    1    4   11     -1.24      0.00
    2    4   11     -4.56      0.00
    3    4   11      2.55      0.00
    4    4   11      4.31      0.00
    5    4   11     -2.33      0.00
    6    4   11     -1.31      0.00
    7    4   11      1.49      0.00
    8    4   11     -0.37      0.00
    9    4   11     -1.10      0.00
   10    4   11      0.92      0.00
   11    4   11      0.73      0.00
   12    4   11     -0.93      0.00
   13    4   11     -1.31      0.00
   14    4   11      0.12      0.00
   15    4   11      1.04      0.00
   16    4   11     -0.21      0.00
  -16    5   11      0.34      0.00
  -15    5   11     -2.77      0.00
  -14    5   11      0.40      0.00
  -13    5   11     -2.95      0.00
  -12    5   11      0.12      0.00
  -11    5   11      0.66      0.00
  -10    5   11     -0.32      0.00
   -9    5   11     -0.06      0.00
   -8    5   11     -0.15      0.00
   -7    5   11      1.61      0.00
   -6    5   11      0.43      0.00
   -5    5   11      0.02      0.00
   -4    5   11      0.05      0.00
   -3    5   11      1.42      0.00
   -2    5   11      1.80      0.00
   -1    5   11     -3.22      0.00
    0    5   11     -1.76      0.00
    1    5   11      3.65      0.00
    2    5   11     -1.49      0.00
    3    5   11     -3.81      0.00
    4    5   11      2.20      0.00
    5    5   11      2.92      0.00
    6    5   11     -1.13      0.00
    7    5   11     -1.13      0.00
    8    5   11      1.78      0.00
    9    5   11     -1.54      0.00
   10    5   11     -1.83      0.00
   11    5   11      1.66      0.00
   12    5   11      0.63      0.00
   13    5   11      0.04      0.00
   14    5   11      0.19      0.00
   15    5   11     -1.18      0.00
   16    5   11     -0.50      0.00
  -15    6   11      2.61      0.00
  -14    6   11     -1.44      0.00
  -13    6   11     -1.64      0.00
  -12    6   11     -2.11      0.00
  -11    6   11     -0.42      0.00
  -10    6   11      0.52      0.00
   -9    6   11      2.55      0.00
   -8    6   11      1.26      0.00
   -7    6   11     -1.96      0.00
   -6    6   11     -0.63      0.00
   -5    6   11      1.07      0.00
   -4    6   11      0.44      0.00
   -3    6   11     -2.18      0.00
   -2    6   11      0.31      0.00
   -1    6   11      3.47      0.00
    0    6   11      0.36      0.00
    1    6   11     -1.92      0.00
    2    6   11     -0.90      0.00
    3    6   11     -2.20      0.00
    4    6   11      0.29      0.00
    5    6   11      2.92      0.00
    6    6   11      1.00      0.00
    7    6   11     -0.05      0.00
    8    6   11     -3.22      0.00
    9    6   11     -0.86      0.00
   10    6   11      1.30      0.00
   11    6   11     -0.91      0.00
   12    6   11      0.68      0.00
   13    6   11      1.61      0.00
   14    6   11     -0.06      0.00
   15    6   11     -1.28      0.00
  -15    7   11      2.72      0.00
  -14    7   11      1.15      0.00
  -13    7   11     -0.68      0.00
  -12    7   11     -2.43      0.00
  -11    7   11      0.35      0.00
  -10    7   11      2.16      0.00
   -9    7   11      0.12      0.00
   -8    7   11      0.78      0.00
   -7    7   11     -1.58      0.00
   -6    7   11     -1.91      0.00
   -5    7   11     -0.30      0.00
   -4    7   11      0.87      0.00
   -3    7   11      1.56      0.00
   -2    7   11     -1.72      0.00
   -1    7   11     -0.68      0.00
    0    7   11      2.71      0.00
    1    7   11      1.20      0.00
    2    7   11     -1.07      0.00
    3    7   11     -0.28      0.00
    4    7   11     -1.37      0.00
    5    7   11      0.19      0.00
    6    7   11      1.19      0.00
    7    7   11     -1.56      0.00
    8    7   11     -0.09      0.00
    9    7   11      0.02      0.00
   10    7   11     -0.63      0.00
   11    7   11      1.15      0.00
   12    7   11     -0.06      0.00
   13    7   11     -0.13      0.00
   14    7   11      0.09      0.00
   15    7   11      0.43      0.00
  -15    8   11      0.52      0.00
  -14    8   11      1.62      0.00
  -13    8   11     -2.17      0.00
  -12    8   11      3.54      0.00
  -11    8   11      1.06      0.00
  -10    8   11     -3.09      0.00
   -9    8   11      0.67      0.00
   -8    8   11      0.51      0.00
   -7    8   11      0.66      0.00
   -6    8   11     -1.74      0.00
   -5    8   11     -1.11      0.00
   -4    8   11      0.85      0.00
   -3    8   11     -0.70      0.00
   -2    8   11      0.74      0.00
   -1    8   11      0.27      0.00
    0    8   11     -2.41      0.00
    1    8   11      1.41      0.00
    2    8   11      3.88      0.00
    3    8   11     -1.66      0.00
    4    8   11     -1.86      0.00
    5    8   11      0.95      0.00
    6    8   11     -0.86      0.00
    7    8   11     -1.57      0.00
    8    8   11      0.77      0.00
    9    8   11      1.44      0.00
   10    8   11     -1.09      0.00
   11    8   11     -0.44      0.00
   12    8   11      2.24      0.00
   13    8   11     -0.38      0.00
   14    8   11     -0.48      0.00
   15    8   11      0.74      0.00
  -14    9   11     -1.04      0.00
  -13    9   11      3.41      0.00
  -12    9   11      0.31      0.00
  -11    9   11     -1.11      0.00
  -10    9   11      0.40      0.00
   -9    9   11     -0.78      0.00
   -8    9   11      0.73      0.00
   -7    9   11      0.28      0.00
   -6    9   11      0.56      0.00
   -5    9   11     -1.21      0.00
   -4    9   11     -1.89      0.00
   -3    9   11      1.21      0.00
   -2    9   11      0.43      0.00
   -1    9   11     -1.40      0.00
    0    9   11      0.82      0.00
    1    9   11     -0.55      0.00
    2    9   11     -2.37      0.00
    3    9   11      0.80      0.00
    4    9   11      1.61      0.00
    5    9   11     -0.40      0.00
    6    9   11      1.53      0.00
    7    9   11      0.06      0.00
    8    9   11     -2.79      0.00
    9    9   11      0.33      0.00
   10    9   11      1.95      0.00
   11    9   11     -0.74      0.00
   12    9   11     -0.85      0.00
   13    9   11      0.98      0.00
   14    9   11      1.08      0.00
  -14   10   11      1.96      0.00
  -13   10   11     -0.32      0.00
  -12   10   11     -1.79      0.00
  -11   10   11      1.31      0.00
  -10   10   11      0.92      0.00
   -9   10   11     -0.45      0.00
   -8   10   11     -1.04      0.00
   -7   10   11      0.45      0.00
   -6   10   11      0.61      0.00
   -5   10   11     -0.10      0.00
   -4   10   11     -0.84      0.00
   -3   10   11      0.44      0.00
   -2   10   11      0.92      0.00
   -1   10   11     -0.92      0.00
    0   10   11     -0.90      0.00
    1   10   11     -1.71      0.00
    2   10   11     -1.15      0.00
    3   10   11      1.41      0.00
    4   10   11     -0.21      0.00
    5   10   11      1.45      0.00
    6   10   11      1.02      0.00
    7   10   11     -0.87      0.00
    8   10   11      0.27      0.00
    9   10   11     -0.03      0.00
   10   10   11      0.06      0.00
   11   10   11     -0.38      0.00
   12   10   11     -0.83      0.00
   13   10   11      0.86      0.00
   14   10   11     -0.06      0.00
  -13   11   11     -0.67      0.00
  -12   11   11      0.61      0.00
  -11   11   11     -0.43      0.00
  -10   11   11     -0.11      0.00
   -9   11   11      0.81      0.00
   -8   11   11     -0.41      0.00
   -7   11   11     -1.13      0.00
   -6   11   11      1.47      0.00
   -5   11   11      0.95      0.00
   -4   11   11     -1.26      0.00
   -3   11   11     -0.98      0.00
   -2   11   11      1.25      0.00
   -1   11   11      1.49      0.00
    0   11   11     -2.42      0.00
    1   11   11     -0.80      0.00
    2   11   11      0.74      0.00
    3   11   11      0.10      0.00
    4   11   11      0.96      0.00
    5   11   11     -0.42      0.00
    6   11   11      0.31      0.00
    7   11   11      0.33      0.00
    8   11   11     -0.31      0.00
    9   11   11     -0.32      0.00
   10   11   11     -0.43      0.00
   11   11   11      0.94      0.00
   12   11   11     -0.13      0.00
   13   11   11     -0.55      0.00
  -12   12   11      0.50      0.00
  -11   12   11     -1.92      0.00
  -10   12   11      0.75      0.00
   -9   12   11      0.56      0.00
   -8   12   11     -0.78      0.00
   -7   12   11      0.77      0.00
   -6   12   11     -0.12      0.00
   -5   12   11      0.24      0.00
   -4   12   11      0.60      0.00
   -3   12   11     -1.16      0.00
   -2   12   11     -0.89      0.00
   -1   12   11      0.28      0.00
    0   12   11      2.04      0.00
    1   12   11     -0.40      0.00
    2   12   11     -0.01      0.00
    3   12   11      1.05      0.00
    4   12   11     -0.06      0.00
    5   12   11     -1.22      0.00
    6   12   11     -0.34      0.00
    7   12   11      1.99      0.00
    8   12   11     -1.75      0.00
    9   12   11     -1.16      0.00
   10   12   11      1.60      0.00
   11   12   11     -0.42      0.00
   12   12   11      0.34      0.00
  -11   13   11      0.93      0.00
  -10   13   11     -0.87      0.00
   -9   13   11     -1.46      0.00
   -8   13   11      1.30      0.00
   -7   13   11      0.60      0.00
   -6   13   11     -1.02      0.00
   -5   13   11      0.46      0.00
   -4   13   11      0.98      0.00
   -3   13   11      0.46      0.00
   -2   13   11     -1.95      0.00
   -1   13   11     -0.56      0.00
    0   13   11      1.39      0.00
    1   13   11      0.86      0.00
    2   13   11      0.82      0.00
    3   13   11     -0.04      0.00
    4   13   11     -1.26      0.00
    5   13   11     -0.25      0.00
    6   13   11     -0.58      0.00
    7   13   11     -0.79      0.00
    8   13   11      2.14      0.00
    9   13   11     -0.75      0.00
   10   13   11     -1.81      0.00
   11   13   11      1.95      0.00
  -10   14   11     -0.80      0.00
   -9   14   11      0.29      0.00
   -8   14   11     -0.46      0.00
   -7   14   11     -0.68      0.00
   -6   14   11      1.20      0.00
   -5   14   11     -0.40      0.00
   -4   14   11      0.48      0.00
   -3   14   11     -0.14      0.00
   -2   14   11      0.55      0.00
   -1   14   11      0.58      0.00
    0   14   11     -1.90      0.00
    1   14   11      2.12      0.00
    2   14   11      0.23      0.00
    3   14   11     -2.13      0.00
    4   14   11      0.92      0.00
    5   14   11     -0.98      0.00
    6   14   11     -1.87      0.00
    7   14   11      0.82      0.00
    8   14   11      1.93      0.00
    9   14   11     -0.05      0.00
   10   14   11     -0.35      0.00
   -9   15   11      0.60      0.00
   -8   15   11     -0.26      0.00
   -7   15   11      0.18      0.00
   -6   15   11     -0.33      0.00
   -5   15   11     -0.56      0.00
   -4   15   11     -0.33      0.00
   -3   15   11      0.64      0.00
   -2   15   11      0.83      0.00
   -1   15   11     -0.54      0.00
    0   15   11      1.15      0.00
    1   15   11      0.44      0.00
    2   15   11      0.08      0.00
    3   15   11     -1.16      0.00
    4   15   11     -2.01      0.00
    5   15   11      0.27      0.00
    6   15   11     -0.05      0.00
    7   15   11      1.56      0.00
    8   15   11      0.62      0.00
    9   15   11      0.78      0.00
   -7   16   11      0.43      0.00
   -6   16   11     -1.93      0.00
   -5   16   11     -0.26      0.00
   -4   16   11      0.26      0.00
   -3   16   11      0.56      0.00
   -2   16   11     -0.61      0.00
   -1   16   11      0.66      0.00
    0   16   11      0.88      0.00
    1   16   11     -0.52      0.00
    2   16   11      0.46      0.00
    3   16   11     -0.43      0.00
    4   16   11     -1.33      0.00
    5   16   11      0.69      0.00
    6   16   11      2.35      0.00
    7   16   11     -0.12      0.00
   -5   17   11     -0.34      0.00
   -4   17   11      0.01      0.00
   -3   17   11      0.08      0.00
   -2   17   11      0.12      0.00
   -1   17   11     -0.53      0.00
    0   17   11     -0.32      0.00
    1   17   11     -0.12      0.00
    2   17   11     -0.72      0.00
    3   17   11      0.96      0.00
    4   17   11      1.39      0.00
    5   17   11      0.19      0.00
  -16    0   12     -0.32      0.00
  -14    0   12     -0.05      0.00
  -12    0   12     -0.09      0.00
  -10    0   12      0.14      0.00
   -8    0   12     -2.90      0.00
   -6    0   12      3.41      0.00
   -4    0   12      2.17      0.00
   -2    0   12     -8.01      0.00
    0    0   12      7.49      0.00
    2    0   12     -2.04      0.00
    4    0   12      0.19      0.00
    6    0   12      0.62      0.00
    8    0   12     -3.42      0.00
   10    0   12      4.78      0.00
   12    0   12     -2.09      0.00
   14    0   12     -1.16      0.00
   16    0   12      0.35      0.00
  -16    1   12      1.26      0.00
  -15    1   12      0.38      0.00
  -14    1   12     -2.39      0.00
  -13    1   12     -0.37      0.00
  -12    1   12     -1.08      0.00
  -11    1   12      0.53      0.00
  -10    1   12      1.42      0.00
   -9    1   12     -0.93      0.00
   -8    1   12     -3.80      0.00
   -7    1   12     -1.40      0.00
   -6    1   12      0.53      0.00
   -5    1   12      4.49      0.00
   -4    1   12      2.11      0.00
   -3    1   12     -4.55      0.00
   -2    1   12     -1.95      0.00
   -1    1   12      1.48      0.00
    0    1   12      1.95      0.00
    1    1   12      1.37      0.00
    2    1   12     -4.72      0.00
    3    1   12     -0.85      0.00
    4    1   12      3.91      0.00
    5    1   12      0.45      0.00
    6    1   12     -0.67      0.00
    7    1   12     -1.75      0.00
    8    1   12      1.15      0.00
    9    1   12      1.89      0.00
   10    1   12     -1.39      0.00
   11    1   12      0.02      0.00
   12    1   12      1.22      0.00
   13    1   12     -1.32      0.00
   14    1   12      0.56      0.00
   15    1   12      0.43      0.00
   16    1   12     -1.72      0.00
  -16    2   12     -0.65      0.00
  -15    2   12      1.01      0.00
  -14    2   12      1.00      0.00
  -13    2   12     -2.96      0.00
  -12    2   12      0.76      0.00
  -11    2   12      1.51      0.00
  -10    2   12     -0.95      0.00
   -9    2   12     -2.39      0.00
   -8    2   12     -0.20      0.00
   -7    2   12     -0.56      0.00
   -6    2   12     -0.86      0.00
   -5    2   12      2.94      0.00
   -4    2   12      1.53      0.00
   -3    2   12     -4.99      0.00
   -2    2   12     -1.01      0.00
   -1    2   12      6.13      0.00
    0    2   12      1.65      0.00
    1    2   12     -4.36      0.00
    2    2   12     -2.72      0.00
    3    2   12      0.22      0.00
    4    2   12      1.35      0.00
    5    2   12      1.38      0.00
    6    2   12     -0.89      0.00
    7    2   12      1.32      0.00
    8    2   12      1.97      0.00
    9    2   12     -0.81      0.00
   10    2   12     -1.06      0.00
   11    2   12      0.41      0.00
   12    2   12     -0.72      0.00
   13    2   12      0.40      0.00
   14    2   12      0.99      0.00
   15    2   12     -1.53      0.00
   16    2   12     -0.27      0.00
  -16    3   12      0.44      0.00
  -15    3   12      0.73      0.00
  -14    3   12     -0.81      0.00
  -13    3   12      1.11      0.00
  -12    3   12      0.70      0.00
  -11    3   12     -2.22      0.00
  -10    3   12      0.19      0.00
   -9    3   12      0.91      0.00
   -8    3   12     -1.75      0.00
   -7    3   12      0.07      0.00
   -6    3   12      3.81      0.00
   -5    3   12     -4.38      0.00
   -4    3   12     -4.04      0.00
   -3    3   12      7.18      0.00
   -2    3   12      1.77      0.00
   -1    3   12     -4.77      0.00
    0    3   12      2.85      0.00
    1    3   12      2.23      0.00
    2    3   12     -2.19      0.00
    3    3   12     -2.56      0.00
    4    3   12     -0.74      0.00
    5    3   12      1.05      0.00
    6    3   12      0.76      0.00
    7    3   12      1.82      0.00
    8    3   12      1.63      0.00
    9    3   12     -1.12      0.00
   10    3   12     -0.69      0.00
   11    3   12     -0.26      0.00
   12    3   12      0.70      0.00
   13    3   12      0.51      0.00
   14    3   12     -2.07      0.00
   15    3   12      0.87      0.00
   16    3   12      0.95      0.00
  -16    4   12      2.99      0.00
  -15    4   12     -1.57      0.00
  -14    4   12      0.48      0.00
  -13    4   12      2.47      0.00
  -12    4   12     -3.16      0.00
  -11    4   12     -1.10      0.00
  -10    4   12      0.89      0.00
   -9    4   12      0.21      0.00
   -8    4   12      0.39      0.00
   -7    4   12      1.36      0.00
   -6    4   12     -1.20      0.00
   -5    4   12     -0.35      0.00
   -4    4   12     -3.08      0.00
   -3    4   12     -0.37      0.00
   -2    4   12      8.22      0.00
   -1    4   12      0.48      0.00
    0    4   12     -9.02      0.00
    1    4   12      2.65      0.00
    2    4   12      7.81      0.00
    3    4   12     -3.25      0.00
    4    4   12     -5.12      0.00
    5    4   12      0.20      0.00
    6    4   12      2.46      0.00
    7    4   12     -0.08      0.00
    8    4   12      0.40      0.00
    9    4   12      2.07      0.00
   10    4   12     -1.87      0.00
   11    4   12     -1.24      0.00
   12    4   12      0.86      0.00
   13    4   12     -0.08      0.00
   14    4   12      1.54      0.00
   15    4   12      0.01      0.00
   16    4   12     -0.43      0.00
  -15    5   12      0.77      0.00
  -14    5   12      2.88      0.00
  -13    5   12     -0.37      0.00
  -12    5   12     -0.57      0.00
  -11    5   12      0.44      0.00
  -10    5   12     -1.78      0.00
   -9    5   12     -0.19      0.00
   -8    5   12      2.67      0.00
   -7    5   12      0.47      0.00
   -6    5   12     -1.53      0.00
   -5    5   12     -0.58      0.00
   -4    5   12      2.87      0.00
   -3    5   12     -1.87      0.00
   -2    5   12     -3.78      0.00
   -1    5   12      3.38      0.00
    0    5   12      1.49      0.00
    1    5   12     -3.27      0.00
    2    5   12      2.00      0.00
    3    5   12      3.44      0.00
    4    5   12     -4.23      0.00
    5    5   12     -2.10      0.00
    6    5   12      1.76      0.00
    7    5   12      2.02      0.00
    8    5   12      0.10      0.00
    9    5   12     -2.55      0.00
   10    5   12      0.78      0.00
   11    5   12      0.13      0.00
   12    5   12     -1.78      0.00
   13    5   12      0.48      0.00
   14    5   12      1.35      0.00
   15    5   12      0.17      0.00
  -15    6   12     -1.28      0.00
  -14    6   12     -0.10      0.00
  -13    6   12      1.34      0.00
  -12    6   12      1.71      0.00
  -11    6   12     -1.22      0.00
  -10    6   12      2.03      0.00
   -9    6   12     -0.22      0.00
   -8    6   12      0.57      0.00
   -7    6   12      0.96      0.00
   -6    6   12     -0.32      0.00
   -5    6   12     -0.06      0.00
   -4    6   12     -0.60      0.00
   -3    6   12      1.78      0.00
   -2    6   12     -1.30      0.00
   -1    6   12     -3.66      0.00
    0    6   12      2.20      0.00
    1    6   12      1.60      0.00
    2    6   12     -2.81      0.00
    3    6   12      0.34      0.00
    4    6   12      2.73      0.00
    5    6   12     -1.69      0.00
    6    6   12     -0.19      0.00
    7    6   12      1.02      0.00
    8    6   12     -2.08      0.00
    9    6   12     -0.35      0.00
   10    6   12      0.46      0.00
   11    6   12      0.50      0.00
   12    6   12     -0.02      0.00
   13    6   12     -1.09      0.00
   14    6   12     -1.87      0.00
   15    6   12      0.22      0.00
  -15    7   12     -1.44      0.00
  -14    7   12     -0.64      0.00
  -13    7   12     -2.11      0.00
  -12    7   12     -0.27      0.00
  -11    7   12      4.71      0.00
  -10    7   12      0.10      0.00
   -9    7   12      0.76      0.00
   -8    7   12     -1.03      0.00
   -7    7   12      0.61      0.00
   -6    7   12      1.53      0.00
   -5    7   12     -0.85      0.00
   -4    7   12     -0.08      0.00
   -3    7   12     -0.68      0.00
   -2    7   12      1.15      0.00
   -1    7   12      1.71      0.00
    0    7   12     -2.12      0.00
    1    7   12     -2.28      0.00
    2    7   12      0.73      0.00
    3    7   12      1.27      0.00
    4    7   12     -0.04      0.00
    5    7   12     -0.22      0.00
    6    7   12      0.32      0.00
    7    7   12     -1.37      0.00
    8    7   12     -1.05      0.00
    9    7   12      1.18      0.00
   10    7   12      0.51      0.00
   11    7   12     -0.86      0.00
   12    7   12      0.43      0.00
   13    7   12     -0.39      0.00
   14    7   12     -1.45      0.00
   15    7   12      0.17      0.00
  -14    8   12     -1.92      0.00
  -13    8   12     -1.26      0.00
  -12    8   12      0.71      0.00
  -11    8   12      0.17      0.00
  -10    8   12      1.32      0.00
   -9    8   12      0.27      0.00
   -8    8   12     -0.21      0.00
   -7    8   12     -1.83      0.00
   -6    8   12      0.34      0.00
   -5    8   12      2.87      0.00
   -4    8   12     -0.30      0.00
   -3    8   12     -1.88      0.00
   -2    8   12      0.28      0.00
   -1    8   12      1.27      0.00
    0    8   12      1.25      0.00
    1    8   12      0.45      0.00
    2    8   12     -1.76      0.00
    3    8   12     -1.83      0.00
    4    8   12      0.10      0.00
    5    8   12     -0.12      0.00
    6    8   12     -1.03      0.00
    7    8   12      2.37      0.00
    8    8   12      1.14      0.00
    9    8   12     -2.36      0.00
   10    8   12      0.64      0.00
   11    8   12      0.98      0.00
   12    8   12     -1.05      0.00
   13    8   12     -0.77      0.00
   14    8   12      1.23      0.00
  -14    9   12     -0.21      0.00
  -13    9   12      0.98      0.00
  -12    9   12     -0.91      0.00
  -11    9   12     -2.77      0.00
  -10    9   12      0.88      0.00
   -9    9   12      1.95      0.00
   -8    9   12     -0.44      0.00
   -7    9   12     -2.45      0.00
   -6    9   12     -1.20      0.00
   -5    9   12      1.49      0.00
   -4    9   12      1.10      0.00
   -3    9   12     -0.54      0.00
   -2    9   12     -0.64      0.00
   -1    9   12      0.25      0.00
    0    9   12      1.72      0.00
    1    9   12      1.24      0.00
    2    9   12     -2.87      0.00
    3    9   12     -1.60      0.00
    4    9   12      1.40      0.00
    5    9   12     -0.19      0.00
    6    9   12     -0.09      0.00
    7    9   12     -0.19      0.00
    8    9   12      0.83      0.00
    9    9   12      1.05      0.00
   10    9   12     -1.14      0.00
   11    9   12      0.90      0.00
   12    9   12     -0.41      0.00
   13    9   12     -0.17      0.00
   14    9   12      0.78      0.00
  -13   10   12     -0.90      0.00
  -12   10   12     -1.59      0.00
  -11   10   12      1.44      0.00
  -10   10   12     -0.28      0.00
   -9   10   12     -0.57      0.00
   -8   10   12      0.19      0.00
   -7   10   12     -0.57      0.00
   -6   10   12     -1.47      0.00
   -5   10   12      0.03      0.00
   -4   10   12      1.09      0.00
   -3   10   12      0.07      0.00
   -2   10   12     -1.01      0.00
   -1   10   12      0.52      0.00
    0   10   12     -0.11      0.00
    1   10   12     -2.12      0.00
    2   10   12      1.29      0.00
    3   10   12      1.44      0.00
    4   10   12      0.02      0.00
    5   10   12      0.74      0.00
    6   10   12     -0.62      0.00
    7   10   12     -0.94      0.00
    8   10   12      0.29      0.00
    9   10   12      0.99      0.00
   10   10   12     -0.35      0.00
   11   10   12     -1.94      0.00
   12   10   12      1.32      0.00
   13   10   12      1.45      0.00
  -13   11   12     -1.52      0.00
  -12   11   12      3.39      0.00
  -11   11   12      0.66      0.00
  -10   11   12     -0.77      0.00
   -9   11   12      0.67      0.00
   -8   11   12     -0.89      0.00
   -7   11   12     -0.43      0.00
   -6   11   12      0.92      0.00
   -5   11   12     -1.14      0.00
   -4   11   12      0.22      0.00
   -3   11   12      1.34      0.00
   -2   11   12     -0.28      0.00
   -1   11   12     -2.05      0.00
    0   11   12     -1.37      0.00
    1   11   12      1.01      0.00
    2   11   12      1.16      0.00
    3   11   12      1.14      0.00
    4   11   12      1.28      0.00
    5   11   12      0.59      0.00
    6   11   12     -2.17      0.00
    7   11   12     -0.45      0.00
    8   11   12      1.93      0.00
    9   11   12     -1.23      0.00
   10   11   12     -1.13      0.00
   11   11   12      0.48      0.00
   12   11   12      0.62      0.00
  -12   12   12     -0.62      0.00
  -11   12   12      0.71      0.00
  -10   12   12      1.95      0.00
   -9   12   12     -0.77      0.00
   -8   12   12     -1.08      0.00
   -7   12   12      1.17      0.00
   -6   12   12      0.06      0.00
   -5   12   12     -1.16      0.00
   -4   12   12     -0.74      0.00
   -3   12   12      1.15      0.00
   -2   12   12      1.52      0.00
   -1   12   12     -1.37      0.00
    0   12   12     -1.14      0.00
    1   12   12      0.00      0.00
    2   12   12      1.42      0.00
    3   12   12      1.92      0.00
    4   12   12     -1.04      0.00
    5   12   12     -0.36      0.00
    6   12   12      0.97      0.00
    7   12   12     -2.34      0.00
    8   12   12     -0.85      0.00
    9   12   12      2.57      0.00
   10   12   12     -0.18      0.00
   11   12   12     -0.49      0.00
   12   12   12      0.08      0.00
  -11   13   12      0.65      0.00
  -10   13   12      0.23      0.00
   -9   13   12     -1.51      0.00
   -8   13   12     -0.23      0.00
   -7   13   12      0.36      0.00
   -6   13   12      0.73      0.00
   -5   13   12     -0.17      0.00
   -4   13   12     -1.57      0.00
   -3   13   12     -0.01      0.00
   -2   13   12     -0.25      0.00
   -1   13   12      2.17      0.00
    0   13   12     -0.25      0.00
    1   13   12     -1.22      0.00
    2   13   12      1.72      0.00
    3   13   12     -1.13      0.00
    4   13   12     -0.18      0.00
    5   13   12     -0.11      0.00
    6   13   12     -0.68      0.00
    7   13   12     -0.50      0.00
    8   13   12     -0.41      0.00
    9   13   12      1.25      0.00
   10   13   12      0.85      0.00
   11   13   12      0.25      0.00
  -10   14   12     -1.39      0.00
   -9   14   12     -0.62      0.00
   -8   14   12     -0.05      0.00
   -7   14   12     -0.66      0.00
   -6   14   12      1.03      0.00
   -5   14   12      1.00      0.00
   -4   14   12     -0.68      0.00
   -3   14   12     -2.04      0.00
   -2   14   12      0.57      0.00
   -1   14   12      0.53      0.00
    0   14   12      0.23      0.00
    1   14   12      0.38      0.00
    2   14   12     -1.19      0.00
    3   14   12      0.60      0.00
    4   14   12     -0.83      0.00
    5   14   12     -1.05      0.00
    6   14   12     -0.70      0.00
    7   14   12      1.21      0.00
    8   14   12      0.79      0.00
    9   14   12     -1.16      0.00
   10   14   12      2.53      0.00
   -8   15   12     -0.97      0.00
   -7   15   12      1.63      0.00
   -6   15   12     -0.29      0.00
   -5   15   12     -0.07      0.00
   -4   15   12      0.64      0.00
   -3   15   12      0.05      0.00
   -2   15   12      0.34      0.00
   -1   15   12     -1.23      0.00
    0   15   12      0.95      0.00
    1   15   12     -0.15      0.00
    2   15   12     -1.89      0.00
    3   15   12      0.90      0.00
    4   15   12     -0.26      0.00
    5   15   12     -2.48      0.00
    6   15   12      1.78      0.00
    7   15   12      2.64      0.00
    8   15   12     -0.64      0.00
   -6   16   12      0.38      0.00
   -5   16   12      0.44      0.00
   -4   16   12      0.79      0.00
   -3   16   12      1.69      0.00
   -2   16   12     -0.66      0.00
   -1   16   12      0.41      0.00
    0   16   12     -0.49      0.00
    1   16   12     -0.39      0.00
    2   16   12     -0.26      0.00
    3   16   12     -2.30      0.00
    4   16   12      1.09      0.00
    5   16   12      1.74      0.00
    6   16   12      0.29      0.00
   -4   17   12      1.94      0.00
   -3   17   12     -0.31      0.00
   -2   17   12      0.00      0.00
   -1   17   12      0.32      0.00
    0   17   12     -1.03      0.00
    1   17   12      0.25      0.00
    2   17   12     -0.07      0.00
    3   17   12     -0.37      0.00
    4   17   12      0.66      0.00
  -15    0   13      2.62      0.00
  -13    0   13     -0.10      0.00
  -11    0   13     -0.70      0.00
   -9    0   13      1.74      0.00
   -7    0   13     -2.53      0.00
   -5    0   13     -1.50      0.00
   -3    0   13      2.35      0.00
   -1    0   13     -2.86      0.00
    1    0   13      5.48      0.00
    3    0   13     -4.73      0.00
    5    0   13     -0.18      0.00
    7    0   13     -1.22      0.00
    9    0   13      3.11      0.00
   11    0   13     -1.09      0.00
   13    0   13     -0.41      0.00
   15    0   13      1.20      0.00
  -16    1   13      0.55      0.00
  -15    1   13     -1.07      0.00
  -14    1   13      1.39      0.00
  -13    1   13      0.17      0.00
  -12    1   13     -0.98      0.00
  -11    1   13      0.41      0.00
  -10    1   13      1.31      0.00
   -9    1   13     -0.67      0.00
   -8    1   13     -1.21      0.00
   -7    1   13      2.22      0.00
   -6    1   13     -1.42      0.00
   -5    1   13     -1.20      0.00
   -4    1   13      2.65      0.00
   -3    1   13     -2.95      0.00
   -2    1   13     -4.13      0.00
   -1    1   13      5.58      0.00
    0    1   13      4.19      0.00
    1    1   13     -4.10      0.00
    2    1   13     -1.19      0.00
    3    1   13      1.29      0.00
    4    1   13     -0.53      0.00
    5    1   13     -0.10      0.00
    6    1   13     -1.87      0.00
    7    1   13     -1.98      0.00
    8    1   13      1.52      0.00
    9    1   13      2.75      0.00
   10    1   13      0.18      0.00
   11    1   13     -2.02      0.00
   12    1   13      0.18      0.00
   13    1   13     -0.46      0.00
   14    1   13      0.61      0.00
   15    1   13      0.23      0.00
   16    1   13     -0.76      0.00
  -16    2   13     -0.49      0.00
  -15    2   13     -0.40      0.00
  -14    2   13      0.12      0.00
  -13    2   13     -0.48      0.00
  -12    2   13      0.60      0.00
  -11    2   13      0.66      0.00
  -10    2   13     -1.61      0.00
   -9    2   13     -0.51      0.00
   -8    2   13      1.15      0.00
   -7    2   13     -1.09      0.00
   -6    2   13      2.34      0.00
   -5    2   13      3.52      0.00
   -4    2   13     -5.79      0.00
   -3    2   13     -2.83      0.00
   -2    2   13      5.31      0.00
   -1    2   13      0.30      0.00
    0    2   13     -0.88      0.00
    1    2   13     -0.12      0.00
    2    2   13     -2.26      0.00
    3    2   13      2.39      0.00
    4    2   13      1.63      0.00
    5    2   13     -1.69      0.00
    6    2   13     -2.04      0.00
    7    2   13     -0.24      0.00
    8    2   13      2.11      0.00
    9    2   13     -0.37      0.00
   10    2   13     -0.65      0.00
   11    2   13      0.59      0.00
   12    2   13     -1.37      0.00
   13    2   13      1.70      0.00
   14    2   13      0.13      0.00
   15    2   13     -1.59      0.00
   16    2   13      0.54      0.00
  -16    3   13      1.42      0.00
  -15    3   13      2.56      0.00
  -14    3   13     -3.91      0.00
  -13    3   13      0.76      0.00
  -12    3   13      2.49      0.00
  -11    3   13     -2.51      0.00
  -10    3   13     -1.70      0.00
   -9    3   13     -0.07      0.00
   -8    3   13     -0.20      0.00
   -7    3   13      1.73      0.00
   -6    3   13      2.16      0.00
   -5    3   13      0.95      0.00
   -4    3   13     -1.40      0.00
   -3    3   13     -4.91      0.00
   -2    3   13      2.33      0.00
   -1    3   13      7.56      0.00
    0    3   13     -4.25      0.00
    1    3   13     -7.41      0.00
    2    3   13      3.75      0.00
    3    3   13      4.80      0.00
    4    3   13     -0.50      0.00
    5    3   13     -2.12      0.00
    6    3   13      0.46      0.00
    7    3   13      1.36      0.00
    8    3   13     -1.79      0.00
    9    3   13      0.36      0.00
   10    3   13      0.71      0.00
   11    3   13     -1.63      0.00
   12    3   13      0.22      0.00
   13    3   13      0.17      0.00
   14    3   13      0.13      0.00
   15    3   13      0.89      0.00
   16    3   13     -0.27      0.00
  -15    4   13     -3.05      0.00
  -14    4   13      0.83      0.00
  -13    4   13      0.03      0.00
  -12    4   13     -2.22      0.00
  -11    4   13      0.99      0.00
  -10    4   13      0.91      0.00
   -9    4   13     -2.25      0.00
   -8    4   13     -0.29      0.00
   -7    4   13      2.65      0.00
   -6    4   13      0.03      0.00
   -5    4   13     -3.27      0.00
   -4    4   13      3.31      0.00
   -3    4   13      3.95      0.00
   -2    4   13     -4.58      0.00
   -1    4   13     -1.11      0.00
    0    4   13      3.92      0.00
    1    4   13     -2.03      0.00
    2    4   13     -2.91      0.00
    3    4   13      2.92      0.00
    4    4   13      2.06      0.00
    5    4   13     -1.71      0.00
    6    4   13     -0.28      0.00
    7    4   13      1.02      0.00
    8    4   13      1.81      0.00
    9    4   13     -0.68      0.00
   10    4   13     -1.81      0.00
   11    4   13      0.30      0.00
   12    4   13      0.14      0.00
   13    4   13     -1.18      0.00
   14    4   13      0.51      0.00
   15    4   13      0.93      0.00
  -15    5   13     -1.24      0.00
  -14    5   13     -0.55      0.00
  -13    5   13     -3.15      0.00
  -12    5   13     -0.36      0.00
  -11    5   13      0.15      0.00
  -10    5   13      0.04      0.00
   -9    5   13      1.05      0.00
   -8    5   13      0.52      0.00
   -7    5   13     -0.68      0.00
   -6    5   13     -0.91      0.00
   -5    5   13      0.68      0.00
   -4    5   13     -1.22      0.00
   -3    5   13      4.41      0.00
   -2    5   13      3.53      0.00
   -1    5   13     -7.34      0.00
    0    5   13     -1.31      0.00
    1    5   13      7.85      0.00
    2    5   13     -0.76      0.00
    3    5   13     -6.34      0.00
    4    5   13      1.01      0.00
    5    5   13      2.99      0.00
    6    5   13     -1.09      0.00
    7    5   13      1.20      0.00
    8    5   13      1.87      0.00
    9    5   13     -1.78      0.00
   10    5   13     -1.32      0.00
   11    5   13      0.57      0.00
   12    5   13      0.54      0.00
   13    5   13      1.42      0.00
   14    5   13     -1.08      0.00
   15    5   13     -2.79      0.00
  -15    6   13      2.57      0.00
  -14    6   13      0.09      0.00
  -13    6   13     -0.34      0.00
  -12    6   13     -2.99      0.00
  -11    6   13     -0.42      0.00
  -10    6   13     -0.41      0.00
   -9    6   13      0.97      0.00
   -8    6   13      0.99      0.00
   -7    6   13     -0.19      0.00
   -6    6   13      0.64      0.00
   -5    6   13     -0.11      0.00
   -4    6   13      0.27      0.00
   -3    6   13     -1.80      0.00
   -2    6   13      0.24      0.00
   -1    6   13      3.08      0.00
    0    6   13     -1.00      0.00
    1    6   13     -0.76      0.00
    2    6   13      1.94      0.00
    3    6   13     -1.52      0.00
    4    6   13     -1.86      0.00
    5    6   13      1.54      0.00
    6    6   13      1.58      0.00
    7    6   13      0.02      0.00
    8    6   13     -2.44      0.00
    9    6   13      0.64      0.00
   10    6   13      1.26      0.00
   11    6   13     -1.51      0.00
   12    6   13      0.54      0.00
   13    6   13      0.79      0.00
   14    6   13     -0.68      0.00
   15    6   13     -0.31      0.00
  -14    7   13      2.32      0.00
  -13    7   13      1.44      0.00
  -12    7   13     -0.49      0.00
  -11    7   13     -1.21      0.00
  -10    7   13      0.20      0.00
   -9    7   13     -0.53      0.00
   -8    7   13      1.91      0.00
   -7    7   13      0.45      0.00
   -6    7   13     -1.73      0.00
   -5    7   13     -0.61      0.00
   -4    7   13      1.17      0.00
   -3    7   13     -0.21      0.00
   -2    7   13     -2.37      0.00
   -1    7   13      0.07      0.00
    0    7   13      1.69      0.00
    1    7   13     -0.06      0.00
    2    7   13     -0.73      0.00
    3    7   13      0.97      0.00
    4    7   13      0.07      0.00
    5    7   13     -0.33      0.00
    6    7   13     -0.62      0.00
    7    7   13     -2.05      0.00
    8    7   13      2.26      0.00
    9    7   13      0.58      0.00
   10    7   13     -1.11      0.00
   11    7   13      0.65      0.00
   12    7   13     -1.38      0.00
   13    7   13     -1.21      0.00
   14    7   13      1.10      0.00
  -14    8   13     -0.17      0.00
  -13    8   13     -0.04      0.00
  -12    8   13      3.69      0.00
  -11    8   13     -0.27      0.00
  -10    8   13     -1.49      0.00
   -9    8   13      0.79      0.00
   -8    8   13      0.55      0.00
   -7    8   13      1.12      0.00
   -6    8   13     -2.11      0.00
   -5    8   13     -1.16      0.00
   -4    8   13      0.08      0.00
   -3    8   13      0.38      0.00
   -2    8   13      0.55      0.00
   -1    8   13     -1.73      0.00
    0    8   13     -0.87      0.00
    1    8   13      1.84      0.00
    2    8   13      0.32      0.00
    3    8   13     -2.97      0.00
    4    8   13     -0.41      0.00
    5    8   13      1.69      0.00
    6    8   13      0.42      0.00
    7    8   13     -0.40      0.00
    8    8   13     -1.14      0.00
    9    8   13      1.21      0.00
   10    8   13      0.00      0.00
   11    8   13     -0.90      0.00
   12    8   13      0.33      0.00
   13    8   13     -1.09      0.00
   14    8   13      1.33      0.00
  -13    9   13      0.54      0.00
  -12    9   13     -1.37      0.00
  -11    9   13      1.43      0.00
  -10    9   13      0.80      0.00
   -9    9   13     -0.18      0.00
   -8    9   13     -0.57      0.00
   -7    9   13     -0.38      0.00
   -6    9   13      2.02      0.00
   -5    9   13     -0.65      0.00
   -4    9   13     -1.69      0.00
   -3    9   13     -0.27      0.00
   -2    9   13      0.56      0.00
   -1    9   13      1.42      0.00
    0    9   13      0.93      0.00
    1    9   13     -2.97      0.00
    2    9   13     -2.97      0.00
    3    9   13      1.14      0.00
    4    9   13      0.52      0.00
    5    9   13      0.24      0.00
    6    9   13      1.85      0.00
    7    9   13      0.27      0.00
    8    9   13     -1.73      0.00
    9    9   13     -0.61      0.00
   10    9   13      1.74      0.00
   11    9   13     -0.49      0.00
   12    9   13     -1.98      0.00
   13    9   13      1.59      0.00
  -13   10   13     -3.69      0.00
  -12   10   13     -1.05      0.00
  -11   10   13      1.90      0.00
  -10   10   13      1.55      0.00
   -9   10   13      0.04      0.00
   -8   10   13     -0.92      0.00
   -7   10   13     -1.23      0.00
   -6   10   13      1.53      0.00
   -5   10   13      2.18      0.00
   -4   10   13     -1.75      0.00
   -3   10   13     -1.40      0.00
   -2   10   13      1.47      0.00
   -1   10   13      2.18      0.00
    0   10   13     -1.07      0.00
    1   10   13     -2.71      0.00
    2   10   13     -0.72      0.00
    3   10   13      1.50      0.00
    4   10   13      0.97      0.00
    5   10   13      0.31      0.00
    6   10   13      0.31      0.00
    7   10   13     -0.90      0.00
    8   10   13      0.39      0.00
    9   10   13      0.43      0.00
   10   10   13     -0.93      0.00
   11   10   13     -0.29      0.00
   12   10   13      0.72      0.00
   13   10   13      0.62      0.00
  -12   11   13      0.84      0.00
  -11   11   13     -0.18      0.00
  -10   11   13     -0.19      0.00
   -9   11   13      0.73      0.00
   -8   11   13     -0.67      0.00
   -7   11   13     -0.72      0.00
   -6   11   13      1.21      0.00
   -5   11   13      0.91      0.00
   -4   11   13     -0.51      0.00
   -3   11   13     -1.14      0.00
   -2   11   13      0.15      0.00
   -1   11   13      0.81      0.00
    0   11   13      0.15      0.00
    1   11   13      0.35      0.00
    2   11   13      0.18      0.00
    3   11   13      0.64      0.00
    4   11   13      0.49      0.00
    5   11   13     -1.05      0.00
    6   11   13      0.26      0.00
    7   11   13      1.01      0.00
    8   11   13     -1.86      0.00
    9   11   13     -0.88      0.00
   10   11   13      0.39      0.00
   11   11   13      0.97      0.00
   12   11   13      1.56      0.00
  -11   12   13     -0.68      0.00
  -10   12   13      1.52      0.00
   -9   12   13     -0.78      0.00
   -8   12   13     -2.50      0.00
   -7   12   13      0.63      0.00
   -6   12   13      0.05      0.00
   -5   12   13      0.47      0.00
   -4   12   13      0.63      0.00
   -3   12   13     -0.81      0.00
   -2   12   13     -1.01      0.00
   -1   12   13     -0.85      0.00
    0   12   13      2.17      0.00
    1   12   13      0.97      0.00
    2   12   13      0.65      0.00
    3   12   13      0.13      0.00
    4   12   13     -0.80      0.00
    5   12   13     -0.88      0.00
    6   12   13     -1.31      0.00
    7   12   13      0.96      0.00
    8   12   13      0.07      0.00
    9   12   13     -1.50      0.00
   10   12   13      0.45      0.00
   11   12   13      1.17      0.00
  -10   13   13      0.13      0.00
   -9   13   13     -1.39      0.00
   -8   13   13      0.52      0.00
   -7   13   13     -1.00      0.00
   -6   13   13     -1.67      0.00
   -5   13   13     -0.07      0.00
   -4   13   13      1.27      0.00
   -3   13   13      0.93      0.00
   -2   13   13     -1.40      0.00
   -1   13   13     -0.05      0.00
    0   13   13     -0.17      0.00
    1   13   13      1.71      0.00
    2   13   13      0.69      0.00
    3   13   13     -2.06      0.00
    4   13   13     -0.23      0.00
    5   13   13      0.63      0.00
    6   13   13     -1.91      0.00
    7   13   13     -1.59      0.00
    8   13   13      3.15      0.00
    9   13   13     -0.34      0.00
   10   13   13     -1.53      0.00
   -9   14   13      0.43      0.00
   -8   14   13      0.18      0.00
   -7   14   13      0.85      0.00
   -6   14   13     -0.22      0.00
   -5   14   13     -2.43      0.00
   -4   14   13      0.15      0.00
   -3   14   13      0.21      0.00
   -2   14   13      1.56      0.00
   -1   14   13      0.30      0.00
    0   14   13     -0.85      0.00
    1   14   13      1.41      0.00
    2   14   13     -1.38      0.00
    3   14   13     -0.62      0.00
    4   14   13      0.68      0.00
    5   14   13     -1.54      0.00
    6   14   13     -0.49      0.00
    7   14   13      1.64      0.00
    8   14   13      0.21      0.00
    9   14   13      0.38      0.00
   -8   15   13      1.18      0.00
   -7   15   13      0.36      0.00
   -6   15   13      0.32      0.00
   -5   15   13     -0.41      0.00
   -4   15   13     -2.63      0.00
   -3   15   13      1.45      0.00
   -2   15   13      1.22      0.00
   -1   15   13     -0.15      0.00
    0   15   13      0.92      0.00
    1   15   13     -1.48      0.00
    2   15   13      1.63      0.00
    3   15   13     -0.80      0.00
    4   15   13     -2.63      0.00
    5   15   13      1.61      0.00
    6   15   13      1.63      0.00
    7   15   13      0.78      0.00
    8   15   13      0.07      0.00
   -6   16   13     -0.49      0.00
   -5   16   13     -0.52      0.00
   -4   16   13      0.96      0.00
   -3   16   13      0.27      0.00
   -2   16   13     -0.80      0.00
   -1   16   13      0.72      0.00
    0   16   13     -0.09      0.00
    1   16   13     -0.86      0.00
    2   16   13      0.14      0.00
    3   16   13      0.58      0.00
    4   16   13     -0.86      0.00
    5   16   13      0.54      0.00
    6   16   13      3.31      0.00
   -3   17   13     -1.04      0.00
   -2   17   13     -0.34      0.00
   -1   17   13     -0.68      0.00
    0   17   13     -0.49      0.00
    1   17   13      1.20      0.00
    2   17   13     -1.08      0.00
    3   17   13     -0.01      0.00
  -16    0   14     -0.28      0.00
  -14    0   14     -0.60      0.00
  -12    0   14     -0.34      0.00
  -10    0   14      0.11      0.00
   -8    0   14     -2.41      0.00
   -6    0   14      2.16      0.00
   -4    0   14      1.17      0.00
   -2    0   14     -6.20      0.00
    0    0   14      8.86      0.00
    2    0   14     -5.41      0.00
    4    0   14      1.25      0.00
    6    0   14      0.72      0.00
    8    0   14     -1.57      0.00
   10    0   14      2.66      0.00
   12    0   14     -2.26      0.00
   14    0   14     -0.03      0.00
   16    0   14     -0.01      0.00
  -16    1   14      0.85      0.00
  -15    1   14     -0.41      0.00
  -14    1   14     -0.08      0.00
  -13    1   14      0.66      0.00
  -12    1   14     -1.19      0.00
  -11    1   14      0.50      0.00
  -10    1   14      0.43      0.00
   -9    1   14     -1.56      0.00
   -8    1   14     -1.17      0.00
   -7    1   14     -0.32      0.00
   -6    1   14     -1.58      0.00
   -5    1   14      2.07      0.00
   -4    1   14      3.76      0.00
   -3    1   14     -3.13      0.00
   -2    1   14     -2.75      0.00
   -1    1   14      1.95      0.00
    0    1   14      2.83      0.00
    1    1   14      2.00      0.00
    2    1   14     -3.92      0.00
    3    1   14     -2.98      0.00
    4    1   14      1.80      0.00
    5    1   14      1.64      0.00
    6    1   14     -0.36      0.00
    7    1   14     -1.56      0.00
    8    1   14      2.14      0.00
    9    1   14      1.49      0.00
   10    1   14     -1.45      0.00
   11    1   14      0.51      0.00
   12    1   14     -0.94      0.00
   13    1   14     -1.68      0.00
   14    1   14      1.60      0.00
   15    1   14      0.07      0.00
   16    1   14      0.25      0.00
  -15    2   14      2.21      0.00
  -14    2   14      2.16      0.00
  -13    2   14     -3.45      0.00
  -12    2   14      1.32      0.00
  -11    2   14      1.79      0.00
  -10    2   14     -0.77      0.00
   -9    2   14     -2.09      0.00
   -8    2   14     -0.52      0.00
   -7    2   14     -1.08      0.00
   -6    2   14     -0.17      0.00
   -5    2   14      2.50      0.00
   -4    2   14      0.34      0.00
   -3    2   14     -2.33      0.00
   -2    2   14     -0.28      0.00
   -1    2   14      4.20      0.00
    0    2   14      0.59      0.00
    1    2   14     -4.49      0.00
    2    2   14     -0.29      0.00
    3    2   14      1.99      0.00
    4    2   14      0.24      0.00
    5    2   14     -1.98      0.00
    6    2   14     -1.37      0.00
    7    2   14      3.07      0.00
    8    2   14      1.09      0.00
    9    2   14     -0.49      0.00
   10    2   14      0.83      0.00
   11    2   14      0.05      0.00
   12    2   14     -0.39      0.00
   13    2   14     -0.33      0.00
   14    2   14     -0.97      0.00
   15    2   14      0.53      0.00
  -15    3   14      0.17      0.00
  -14    3   14     -1.61      0.00
  -13    3   14      1.12      0.00
  -12    3   14     -0.73      0.00
  -11    3   14     -1.39      0.00
  -10    3   14      0.96      0.00
   -9    3   14      1.28      0.00
   -8    3   14     -1.93      0.00
   -7    3   14     -0.35      0.00
   -6    3   14      3.05      0.00
   -5    3   14     -2.92      0.00
   -4    3   14     -3.40      0.00
   -3    3   14      4.29      0.00
   -2    3   14      2.03      0.00
   -1    3   14     -3.11      0.00
    0    3   14      0.18      0.00
    1    3   14     -0.03      0.00
    2    3   14     -0.49      0.00
    3    3   14      1.92      0.00
    4    3   14     -0.03      0.00
    5    3   14     -2.07      0.00
    6    3   14     -0.64      0.00
    7    3   14      0.94      0.00
    8    3   14      1.02      0.00
    9    3   14      0.75      0.00
   10    3   14      1.11      0.00
   11    3   14     -0.31      0.00
   12    3   14      0.34      0.00
   13    3   14      0.07      0.00
   14    3   14     -1.14      0.00
   15    3   14      0.55      0.00
  -15    4   14     -1.59      0.00
  -14    4   14     -0.28      0.00
  -13    4   14      1.92      0.00
  -12    4   14     -2.17      0.00
  -11    4   14     -1.21      0.00
  -10    4   14      0.40      0.00
   -9    4   14      0.15      0.00
   -8    4   14      1.39      0.00
   -7    4   14      1.59      0.00
   -6    4   14     -2.41      0.00
   -5    4   14     -0.06      0.00
   -4    4   14     -2.20      0.00
   -3    4   14     -1.86      0.00
   -2    4   14      7.55      0.00
   -1    4   14     -0.02      0.00
    0    4   14     -9.25      0.00
    1    4   14      2.45      0.00
    2    4   14      7.78      0.00
    3    4   14     -1.89      0.00
    4    4   14     -4.67      0.00
    5    4   14      0.90      0.00
    6    4   14      1.37      0.00
    7    4   14     -2.20      0.00
    8    4   14      1.02      0.00
    9    4   14      2.12      0.00
   10    4   14     -1.72      0.00
   11    4   14      0.07      0.00
   12    4   14      0.77      0.00
   13    4   14      0.37      0.00
   14    4   14      2.11      0.00
   15    4   14     -1.50      0.00
  -15    5   14      0.71      0.00
  -14    5   14      0.96      0.00
  -13    5   14     -0.17      0.00
  -12    5   14      1.99      0.00
  -11    5   14      0.59      0.00
  -10    5   14     -1.73      0.00
   -9    5   14     -0.54      0.00
   -8    5   14      0.94      0.00
   -7    5   14     -0.62      0.00
   -6    5   14      0.49      0.00
   -5    5   14      0.78      0.00
   -4    5   14      1.99      0.00
   -3    5   14     -0.57      0.00
   -2    5   14     -3.25      0.00
   -1    5   14      2.13      0.00
    0    5   14      1.13      0.00
    1    5   14     -2.74      0.00
    2    5   14      1.64      0.00
    3    5   14      2.11      0.00
    4    5   14     -3.34      0.00
    5    5   14     -1.61      0.00
    6    5   14      1.75      0.00
    7    5   14      2.90      0.00
    8    5   14     -1.27      0.00
    9    5   14     -3.54      0.00
   10    5   14      1.26      0.00
   11    5   14      0.43      0.00
   12    5   14     -0.62      0.00
   13    5   14      1.00      0.00
   14    5   14     -0.79      0.00
   15    5   14      0.43      0.00
  -15    6   14     -2.40      0.00
  -14    6   14     -1.54      0.00
  -13    6   14      1.41      0.00
  -12    6   14      2.10      0.00
  -11    6   14     -0.39      0.00
  -10    6   14      1.31      0.00
   -9    6   14     -0.07      0.00
   -8    6   14     -0.46      0.00
   -7    6   14      0.80      0.00
   -6    6   14      1.09      0.00
   -5    6   14     -0.02      0.00
   -4    6   14      1.22      0.00
   -3    6   14      2.71      0.00
   -2    6   14     -3.19      0.00
   -1    6   14     -2.89      0.00
    0    6   14      4.04      0.00
    1    6   14      1.97      0.00
    2    6   14     -4.01      0.00
    3    6   14     -1.96      0.00
    4    6   14      2.14      0.00
    5    6   14      0.00      0.00
    6    6   14      1.04      0.00
    7    6   14     -0.01      0.00
    8    6   14     -1.75      0.00
    9    6   14      0.31      0.00
   10    6   14     -0.79      0.00
   11    6   14      1.05      0.00
   12    6   14      0.52      0.00
   13    6   14     -2.56      0.00
   14    6   14     -2.11      0.00
   15    6   14      1.34      0.00
  -14    7   14      0.54      0.00
  -13    7   14     -3.26      0.00
  -12    7   14     -1.30      0.00
  -11    7   14      1.86      0.00
  -10    7   14     -0.22      0.00
   -9    7   14      2.57      0.00
   -8    7   14      0.69      0.00
   -7    7   14      0.61      0.00
   -6    7   14     -0.87      0.00
   -5    7   14     -0.67      0.00
   -4    7   14      0.94      0.00
   -3    7   14     -0.49      0.00
   -2    7   14      1.18      0.00
   -1    7   14     -0.37      0.00
    0    7   14     -1.36      0.00
    1    7   14      1.83      0.00
    2    7   14      1.60      0.00
    3    7   14     -1.84      0.00
    4    7   14     -1.66      0.00
    5    7   14      0.34      0.00
    6    7   14      0.33      0.00
    7    7   14      0.13      0.00
    8    7   14      0.20      0.00
    9    7   14     -0.17      0.00
   10    7   14     -0.28      0.00
   11    7   14     -0.68      0.00
   12    7   14      0.91      0.00
   13    7   14     -1.13      0.00
   14    7   14     -0.41      0.00
  -14    8   14      0.87      0.00
  -13    8   14      0.12      0.00
  -12    8   14     -3.56      0.00
  -11    8   14     -0.18      0.00
  -10    8   14      1.47      0.00
   -9    8   14     -0.53      0.00
   -8    8   14      1.60      0.00
   -7    8   14     -2.17      0.00
   -6    8   14     -1.17      0.00
   -5    8   14      1.52      0.00
   -4    8   14      0.45      0.00
   -3    8   14     -0.64      0.00
   -2    8   14     -1.83      0.00
   -1    8   14      0.07      0.00
    0    8   14      2.48      0.00
    1    8   14      0.80      0.00
    2    8   14     -1.50      0.00
    3    8   14      0.26      0.00
    4    8   14     -0.09      0.00
    5    8   14     -1.20      0.00
    6    8   14     -0.38      0.00
    7    8   14      2.38      0.00
    8    8   14      0.80      0.00
    9    8   14     -2.42      0.00
   10    8   14     -0.02      0.00
   11    8   14      0.56      0.00
   12    8   14     -1.20      0.00
   13    8   14      0.95      0.00
   14    8   14      1.39      0.00
  -13    9   14      0.27      0.00
  -12    9   14     -0.29      0.00
  -11    9   14     -2.68      0.00
  -10    9   14      0.38      0.00
   -9    9   14      1.45      0.00
   -8    9   14     -0.43      0.00
   -7    9   14     -1.51      0.00
   -6    9   14     -2.17      0.00
   -5    9   14      1.41      0.00
   -4    9   14      1.75      0.00
   -3    9   14     -1.22      0.00
   -2    9   14     -1.76      0.00
   -1    9   14      0.63      0.00
    0    9   14      1.68      0.00
    1    9   14     -0.73      0.00
    2    9   14     -2.60      0.00
    3    9   14     -0.03      0.00
    4    9   14      3.26      0.00
    5    9   14      0.62      0.00
    6    9   14     -0.88      0.00
    7    9   14     -0.40      0.00
    8    9   14      0.27      0.00
    9    9   14      0.81      0.00
   10    9   14     -1.11      0.00
   11    9   14     -0.04      0.00
   12    9   14     -0.58      0.00
   13    9   14      0.69      0.00
  -12   10   14      0.43      0.00
  -11   10   14      1.50      0.00
  -10   10   14     -0.30      0.00
   -9   10   14      0.24      0.00
   -8   10   14      0.07      0.00
   -7   10   14     -0.25      0.00
   -6   10   14     -0.24      0.00
   -5   10   14     -0.51      0.00
   -4   10   14     -0.16      0.00
   -3   10   14      0.61      0.00
   -2   10   14      0.71      0.00
   -1   10   14     -0.72      0.00
    0   10   14     -1.95      0.00
    1   10   14     -1.32      0.00
    2   10   14      1.80      0.00
    3   10   14      1.67      0.00
    4   10   14      0.03      0.00
    5   10   14      0.50      0.00
    6   10   14     -0.33      0.00
    7   10   14     -0.33      0.00
    8   10   14      0.44      0.00
    9   10   14     -0.11      0.00
   10   10   14      0.09      0.00
   11   10   14     -2.17      0.00
   12   10   14      0.85      0.00
  -12   11   14      3.05      0.00
  -11   11   14      0.40      0.00
  -10   11   14      0.24      0.00
   -9   11   14      1.55      0.00
   -8   11   14     -1.06      0.00
   -7   11   14     -0.20      0.00
   -6   11   14      1.88      0.00
   -5   11   14     -1.62      0.00
   -4   11   14     -0.59      0.00
   -3   11   14      0.88      0.00
   -2   11   14      0.84      0.00
   -1   11   14     -0.98      0.00
    0   11   14     -2.45      0.00
    1   11   14      0.87      0.00
    2   11   14      1.73      0.00
    3   11   14      1.15      0.00
    4   11   14      0.01      0.00
    5   11   14     -0.34      0.00
    6   11   14     -0.97      0.00
    7   11   14     -0.76      0.00
    8   11   14      1.03      0.00
    9   11   14      0.14      0.00
   10   11   14     -1.04      0.00
   11   11   14      0.77      0.00
   12   11   14      0.00      0.00
  -11   12   14     -0.42      0.00
  -10   12   14      0.93      0.00
   -9   12   14     -0.56      0.00
   -8   12   14      0.03      0.00
   -7   12   14      1.97      0.00
   -6   12   14     -0.03      0.00
   -5   12   14     -0.95      0.00
   -4   12   14     -1.72      0.00
   -3   12   14      0.66      0.00
   -2   12   14      0.85      0.00
   -1   12   14     -0.20      0.00
    0   12   14     -0.06      0.00
    1   12   14     -0.96      0.00
    2   12   14      1.81      0.00
    3   12   14      0.41      0.00
    4   12   14     -2.29      0.00
    5   12   14      0.31      0.00
    6   12   14      1.38      0.00
    7   12   14     -2.36      0.00
    8   12   14     -1.15      0.00
    9   12   14      2.99      0.00
   10   12   14      0.34      0.00
   11   12   14     -0.26      0.00
  -10   13   14     -1.64      0.00
   -9   13   14     -2.94      0.00
   -8   13   14      0.50      0.00
   -7   13   14      1.09      0.00
   -6   13   14      1.31      0.00
   -5   13   14      0.06      0.00
   -4   13   14     -1.05      0.00
   -3   13   14     -0.91      0.00
   -2   13   14     -0.45      0.00
   -1   13   14      1.31      0.00
    0   13   14      0.10      0.00
    1   13   14      0.36      0.00
    2   13   14     -0.64      0.00
    3   13   14     -1.36      0.00
    4   13   14      0.60      0.00
    5   13   14     -1.43      0.00
    6   13   14     -0.77      0.00
    7   13   14      1.64      0.00
    8   13   14      0.48      0.00
    9   13   14     -0.56      0.00
   10   13   14      1.44      0.00
   -9   14   14     -1.25      0.00
   -8   14   14     -1.02      0.00
   -7   14   14     -0.53      0.00
   -6   14   14      0.22      0.00
   -5   14   14      2.01      0.00
   -4   14   14      0.30      0.00
   -3   14   14     -1.54      0.00
   -2   14   14      0.68      0.00
   -1   14   14     -0.32      0.00
    0   14   14      0.90      0.00
    1   14   14     -0.39      0.00
    2   14   14     -1.79      0.00
    3   14   14      1.36      0.00
    4   14   14     -0.80      0.00
    5   14   14     -1.45      0.00
    6   14   14     -0.42      0.00
    7   14   14      1.92      0.00
    8   14   14      1.03      0.00
    9   14   14     -0.52      0.00
   -7   15   14     -0.15      0.00
   -6   15   14     -1.02      0.00
   -5   15   14     -0.66      0.00
   -4   15   14      0.93      0.00
   -3   15   14      2.11      0.00
   -2   15   14      0.24      0.00
   -1   15   14     -0.64      0.00
    0   15   14      0.48      0.00
    1   15   14     -0.68      0.00
    2   15   14     -0.79      0.00
    3   15   14      0.05      0.00
    4   15   14      0.28      0.00
    5   15   14     -0.66      0.00
    6   15   14      0.87      0.00
    7   15   14      1.12      0.00
   -5   16   14     -1.60      0.00
   -4   16   14      1.48      0.00
   -3   16   14      1.87      0.00
   -2   16   14     -0.60      0.00
   -1   16   14      0.71      0.00
    0   16   14     -1.52      0.00
    1   16   14      0.49      0.00
    2   16   14      0.70      0.00
    3   16   14     -2.35      0.00
    4   16   14      1.37      0.00
    5   16   14      2.37      0.00
  -15    0   15      1.05      0.00
  -13    0   15      1.19      0.00
  -11    0   15     -1.02      0.00
   -9    0   15      1.02      0.00
   -7    0   15      0.15      0.00
   -5    0   15     -3.83      0.00
   -3    0   15      4.32      0.00
   -1    0   15     -2.84      0.00
    1    0   15      3.17      0.00
    3    0   15     -2.54      0.00
    5    0   15      1.02      0.00
    7    0   15     -2.50      0.00
    9    0   15      1.86      0.00
   11    0   15      0.18      0.00
   13    0   15     -1.20      0.00
   15    0   15     -0.11      0.00
  -15    1   15     -1.09      0.00
  -14    1   15      2.26      0.00
  -13    1   15      0.07      0.00
  -12    1   15     -1.85      0.00
  -11    1   15      0.76      0.00
  -10    1   15      1.39      0.00
   -9    1   15     -1.24      0.00
   -8    1   15     -0.63      0.00
   -7    1   15      2.05      0.00
   -6    1   15     -1.23      0.00
   -5    1   15     -0.31      0.00
   -4    1   15      0.88      0.00
   -3    1   15     -2.67      0.00
   -2    1   15     -0.94      0.00
   -1    1   15      5.67      0.00
    0    1   15      2.42      0.00
    1    1   15     -5.67      0.00
    2    1   15     -2.50      0.00
    3    1   15      2.76      0.00
    4    1   15      2.24      0.00
    5    1   15     -0.48      0.00
    6    1   15     -2.92      0.00
    7    1   15     -0.59      0.00
    8    1   15      1.07      0.00
    9    1   15      0.23      0.00
   10    1   15     -0.17      0.00
   11    1   15     -1.68      0.00
   12    1   15      0.42      0.00
   13    1   15      1.97      0.00
   14    1   15     -0.26      0.00
   15    1   15     -0.07      0.00
  -15    2   15      1.91      0.00
  -14    2   15      0.33      0.00
  -13    2   15     -1.54      0.00
  -12    2   15      0.46      0.00
  -11    2   15     -0.13      0.00
  -10    2   15     -2.33      0.00
   -9    2   15      0.25      0.00
   -8    2   15      1.43      0.00
   -7    2   15     -1.33      0.00
   -6    2   15      1.75      0.00
   -5    2   15      2.53      0.00
   -4    2   15     -3.32      0.00
   -3    2   15     -2.67      0.00
   -2    2   15      3.07      0.00
   -1    2   15      2.09      0.00
    0    2   15      0.12      0.00
    1    2   15     -1.72      0.00
    2    2   15     -3.73      0.00
    3    2   15      1.45      0.00
    4    2   15      3.53      0.00
    5    2   15     -0.67      0.00
    6    2   15     -2.81      0.00
    7    2   15     -0.01      0.00
    8    2   15      1.94      0.00
    9    2   15     -0.72      0.00
   10    2   15     -0.75      0.00
   11    2   15      0.26      0.00
   12    2   15     -1.64      0.00
   13    2   15      1.03      0.00
   14    2   15      1.37      0.00
   15    2   15      0.44      0.00
  -15    3   15      2.23      0.00
  -14    3   15     -3.86      0.00
  -13    3   15     -0.17      0.00
  -12    3   15      2.31      0.00
  -11    3   15     -1.55      0.00
  -10    3   15     -1.73      0.00
   -9    3   15     -0.94      0.00
   -8    3   15      0.06      0.00
   -7    3   15      2.52      0.00
   -6    3   15      1.04      0.00
   -5    3   15     -1.54      0.00
   -4    3   15      0.01      0.00
   -3    3   15     -2.02      0.00
   -2    3   15      0.77      0.00
   -1    3   15      4.62      0.00
    0    3   15     -3.04      0.00
    1    3   15     -3.79      0.00
    2    3   15      3.78      0.00
    3    3   15      2.61      0.00
    4    3   15     -2.90      0.00
    5    3   15     -2.37      0.00
    6    3   15      3.19      0.00
    7    3   15      1.03      0.00
    8    3   15     -2.56      0.00
    9    3   15      2.05      0.00
   10    3   15      0.87      0.00
   11    3   15     -2.83      0.00
   12    3   15     -0.35      0.00
   13    3   15     -0.89      0.00
   14    3   15      1.35      0.00
   15    3   15      1.55      0.00
  -15    4   15     -3.03      0.00
  -14    4   15      1.13      0.00
  -13    4   15     -1.31      0.00
  -12    4   15     -1.30      0.00
  -11    4   15      2.68      0.00
  -10    4   15      0.53      0.00
   -9    4   15     -2.16      0.00
   -8    4   15     -0.02      0.00
   -7    4   15      0.78      0.00
   -6    4   15     -1.16      0.00
   -5    4   15     -1.04      0.00
   -4    4   15      0.71      0.00
   -3    4   15      2.57      0.00
   -2    4   15     -0.28      0.00
   -1    4   15     -1.63      0.00
    0    4   15      1.42      0.00
    1    4   15      0.07      0.00
    2    4   15      0.76      0.00
    3    4   15      2.06      0.00
    4    4   15     -1.30      0.00
    5    4   15     -2.18      0.00
    6    4   15     -0.45      0.00
    7    4   15      1.75      0.00
    8    4   15      3.26      0.00
    9    4   15     -0.66      0.00
   10    4   15     -1.44      0.00
   11    4   15      0.08      0.00
   12    4   15     -1.45      0.00
   13    4   15      0.41      0.00
   14    4   15      0.14      0.00
   15    4   15     -0.98      0.00
  -15    5   15      0.21      0.00
  -14    5   15     -1.05      0.00
  -13    5   15     -1.07      0.00
  -12    5   15     -0.04      0.00
  -11    5   15     -0.17      0.00
  -10    5   15     -0.07      0.00
   -9    5   15      0.68      0.00
   -8    5   15     -0.02      0.00
   -7    5   15     -1.47      0.00
   -6    5   15      0.37      0.00
   -5    5   15      0.70      0.00
   -4    5   15     -2.01      0.00
   -3    5   15      4.24      0.00
   -2    5   15      2.64      0.00
   -1    5   15     -6.06      0.00
    0    5   15     -0.90      0.00
    1    5   15      6.36      0.00
    2    5   15      1.00      0.00
    3    5   15     -4.27      0.00
    4    5   15     -0.17      0.00
    5    5   15      1.55      0.00
    6    5   15     -1.13      0.00
    7    5   15      1.07      0.00
    8    5   15      1.37      0.00
    9    5   15     -0.07      0.00
   10    5   15     -0.47      0.00
   11    5   15      0.22      0.00
   12    5   15      1.31      0.00
   13    5   15      0.15      0.00
   14    5   15     -2.23      0.00
  -14    6   15      1.80      0.00
  -13    6   15      2.10      0.00
  -12    6   15     -1.71      0.00
  -11    6   15     -1.88      0.00
  -10    6   15     -1.51      0.00
   -9    6   15      0.21      0.00
   -8    6   15      0.67      0.00
   -7    6   15      2.24      0.00
   -6    6   15      1.31      0.00
   -5    6   15     -1.82      0.00
   -4    6   15      0.68      0.00
   -3    6   15     -1.03      0.00
   -2    6   15      0.23      0.00
   -1    6   15      1.29      0.00
    0    6   15     -2.66      0.00
    1    6   15     -0.50      0.00
    2    6   15      2.16      0.00
    3    6   15     -0.74      0.00
    4    6   15     -1.12      0.00
    5    6   15      1.65      0.00
    6    6   15      1.36      0.00
    7    6   15     -1.35      0.00
    8    6   15     -1.93      0.00
    9    6   15      1.50      0.00
   10    6   15      1.78      0.00
   11    6   15     -1.06      0.00
   12    6   15      0.39      0.00
   13    6   15     -0.22      0.00
   14    6   15     -0.52      0.00
  -14    7   15      0.85      0.00
  -13    7   15      2.77      0.00
  -12    7   15     -0.22      0.00
  -11    7   15     -1.75      0.00
  -10    7   15      2.24      0.00
   -9    7   15     -1.07      0.00
   -8    7   15      0.30      0.00
   -7    7   15      0.97      0.00
   -6    7   15     -0.64      0.00
   -5    7   15     -0.04      0.00
   -4    7   15      0.03      0.00
   -3    7   15     -0.30      0.00
   -2    7   15     -1.19      0.00
   -1    7   15     -0.35      0.00
    0    7   15      0.91      0.00
    1    7   15     -0.90      0.00
    2    7   15     -3.10      0.00
    3    7   15      0.09      0.00
    4    7   15      2.37      0.00
    5    7   15      0.47      0.00
    6    7   15     -1.21      0.00
    7    7   15     -1.27      0.00
    8    7   15      2.26      0.00
    9    7   15     -0.51      0.00
   10    7   15     -0.72      0.00
   11    7   15      1.63      0.00
   12    7   15     -2.34      0.00
   13    7   15     -0.93      0.00
   14    7   15      2.15      0.00
  -13    8   15     -2.70      0.00
  -12    8   15      2.65      0.00
  -11    8   15      2.13      0.00
  -10    8   15     -0.82      0.00
   -9    8   15      1.44      0.00
   -8    8   15     -0.50      0.00
   -7    8   15     -0.57      0.00
   -6    8   15     -1.32      0.00
   -5    8   15     -0.03      0.00
   -4    8   15      1.04      0.00
   -3    8   15      0.01      0.00
   -2    8   15     -1.11      0.00
   -1    8   15     -0.34      0.00
    0    8   15      1.71      0.00
    1    8   15      0.89      0.00
    2    8   15     -2.48      0.00
    3    8   15     -4.00      0.00
    4    8   15      0.28      0.00
    5    8   15      2.91      0.00
    6    8   15      0.26      0.00
    7    8   15     -0.82      0.00
    8    8   15     -1.01      0.00
    9    8   15      1.28      0.00
   10    8   15     -0.31      0.00
   11    8   15     -0.19      0.00
   12    8   15      0.88      0.00
   13    8   15     -1.80      0.00
  -13    9   15     -2.01      0.00
  -12    9   15     -1.05      0.00
  -11    9   15      2.03      0.00
  -10    9   15     -0.65      0.00
   -9    9   15      0.32      0.00
   -8    9   15      0.85      0.00
   -7    9   15     -1.20      0.00
   -6    9   15      1.00      0.00
   -5    9   15      0.91      0.00
   -4    9   15     -0.41      0.00
   -3    9   15     -1.52      0.00
   -2    9   15      0.31      0.00
   -1    9   15      2.77      0.00
    0    9   15      0.83      0.00
    1    9   15     -2.69      0.00
    2    9   15     -1.21      0.00
    3    9   15      1.39      0.00
    4    9   15     -0.24      0.00
    5    9   15     -0.46      0.00
    6    9   15      1.26      0.00
    7    9   15     -0.11      0.00
    8    9   15     -1.64      0.00
    9    9   15     -0.60      0.00
   10    9   15      2.26      0.00
   11    9   15     -0.02      0.00
   12    9   15     -1.58      0.00
   13    9   15      1.01      0.00
  -12   10   15     -0.69      0.00
  -11   10   15      0.21      0.00
  -10   10   15      1.69      0.00
   -9   10   15     -0.58      0.00
   -8   10   15     -0.36      0.00
   -7   10   15     -0.95      0.00
   -6   10   15      1.54      0.00
   -5   10   15      2.17      0.00
   -4   10   15     -1.45      0.00
   -3   10   15     -0.85      0.00
   -2   10   15      0.77      0.00
   -1   10   15      1.54      0.00
    0   10   15     -0.73      0.00
    1   10   15     -1.60      0.00
    2   10   15      0.83      0.00
    3   10   15      2.46      0.00
    4   10   15      0.66      0.00
    5   10   15     -1.33      0.00
    6   10   15     -0.07      0.00
    7   10   15     -0.09      0.00
    8   10   15     -0.50      0.00
    9   10   15      0.03      0.00
   10   10   15     -0.17      0.00
   11   10   15      0.10      0.00
   12   10   15      0.51      0.00
  -11   11   15      0.23      0.00
  -10   11   15     -0.43      0.00
   -9   11   15      0.65      0.00
   -8   11   15     -1.99      0.00
   -7   11   15     -0.18      0.00
   -6   11   15      1.09      0.00
   -5   11   15      0.45      0.00
   -4   11   15      0.16      0.00
   -3   11   15     -0.79      0.00
   -2   11   15     -0.24      0.00
   -1   11   15     -0.16      0.00
    0   11   15      0.67      0.00
    1   11   15      0.61      0.00
    2   11   15      0.66      0.00
    3   11   15      0.95      0.00
    4   11   15     -0.54      0.00
    5   11   15     -1.12      0.00
    6   11   15      0.07      0.00
    7   11   15      1.14      0.00
    8   11   15     -1.73      0.00
    9   11   15     -0.59      0.00
   10   11   15      0.81      0.00
   11   11   15     -0.05      0.00
  -10   12   15      3.14      0.00
   -9   12   15     -1.88      0.00
   -8   12   15     -2.29      0.00
   -7   12   15      0.85      0.00
   -6   12   15     -1.14      0.00
   -5   12   15     -0.41      0.00
   -4   12   15      0.60      0.00
   -3   12   15     -0.40      0.00
   -2   12   15     -0.25      0.00
   -1   12   15     -0.66      0.00
    0   12   15      0.73      0.00
    1   12   15      1.79      0.00
    2   12   15      0.36      0.00
    3   12   15     -1.60      0.00
    4   12   15     -0.41      0.00
    5   12   15     -0.12      0.00
    6   12   15     -1.09      0.00
    7   12   15     -0.50      0.00
    8   12   15      1.34      0.00
    9   12   15     -0.42      0.00
   10   12   15     -0.60      0.00
   -9   13   15      1.20      0.00
   -8   13   15      0.72      0.00
   -7   13   15     -1.66      0.00
   -6   13   15     -1.42      0.00
   -5   13   15     -1.49      0.00
   -4   13   15      0.15      0.00
   -3   13   15      0.83      0.00
   -2   13   15     -0.67      0.00
   -1   13   15      0.32      0.00
    0   13   15     -0.09      0.00
    1   13   15      1.40      0.00
    2   13   15     -0.09      0.00
    3   13   15     -2.11      0.00
    4   13   15     -0.19      0.00
    5   13   15      1.14      0.00
    6   13   15     -1.02      0.00
    7   13   15     -1.15      0.00
    8   13   15      1.94      0.00
    9   13   15      0.43      0.00
   -8   14   15      1.67      0.00
   -7   14   15      0.86      0.00
   -6   14   15     -0.54      0.00
   -5   14   15     -1.23      0.00
   -4   14   15     -1.55      0.00
   -3   14   15     -0.45      0.00
   -2   14   15      1.49      0.00
   -1   14   15     -0.12      0.00
    0   14   15      0.54      0.00
    1   14   15      0.03      0.00
    2   14   15     -0.96      0.00
    3   14   15      0.61      0.00
    4   14   15     -1.10      0.00
    5   14   15     -0.42      0.00
    6   14   15      1.84      0.00
    7   14   15      1.12      0.00
    8   14   15     -0.60      0.00
   -6   15   15      1.51      0.00
   -5   15   15     -0.01      0.00
   -4   15   15     -1.52      0.00
   -3   15   15      1.11      0.00
   -2   15   15     -0.54      0.00
   -1   15   15      0.44      0.00
    0   15   15      0.36      0.00
    1   15   15     -1.43      0.00
    2   15   15      1.87      0.00
    3   15   15     -0.97      0.00
    4   15   15     -1.41      0.00
    5   15   15      1.17      0.00
    6   15   15      1.46      0.00
   -4   16   15      2.38      0.00
   -3   16   15     -0.59      0.00
   -2   16   15     -0.38      0.00
   -1   16   15     -0.12      0.00
    0   16   15     -0.37      0.00
    1   16   15      0.50      0.00
    2   16   15     -0.82      0.00
    3   16   15      0.58      0.00
    4   16   15      0.42      0.00
  -14    0   16     -0.45      0.00
  -12    0   16     -0.72      0.00
  -10    0   16      2.36      0.00
   -8    0   16     -4.05      0.00
   -6    0   16      2.52      0.00
   -4    0   16      0.98      0.00
   -2    0   16     -5.38      0.00
    0    0   16      7.09      0.00
    2    0   16     -4.10      0.00
    4    0   16      2.53      0.00
    6    0   16     -1.31      0.00
    8    0   16      0.14      0.00
   10    0   16      1.85      0.00
   12    0   16     -3.35      0.00
   14    0   16      0.31      0.00
  -15    1   16     -0.61      0.00
  -14    1   16      1.16      0.00
  -13    1   16     -0.30      0.00
  -12    1   16     -1.47      0.00
  -11    1   16      1.87      0.00
  -10    1   16      0.66      0.00
   -9    1   16     -1.92      0.00
   -8    1   16      0.28      0.00
   -7    1   16     -0.58      0.00
   -6    1   16     -2.07      0.00
   -5    1   16      2.01      0.00
   -4    1   16      3.08      0.00
   -3    1   16     -2.26      0.00
   -2    1   16     -2.46      0.00
   -1    1   16      0.78      0.00
    0    1   16      1.88      0.00
    1    1   16      1.60      0.00
    2    1   16     -1.54      0.00
    3    1   16     -1.71      0.00
    4    1   16      1.35      0.00
    5    1   16      1.87      0.00
    6    1   16     -1.95      0.00
    7    1   16     -2.31      0.00
    8    1   16      1.43      0.00
    9    1   16      1.52      0.00
   10    1   16     -0.33      0.00
   11    1   16      1.01      0.00
   12    1   16      0.13      0.00
   13    1   16     -2.29      0.00
   14    1   16     -0.53      0.00
   15    1   16      0.52      0.00
  -15    2   16      2.35      0.00
  -14    2   16      0.84      0.00
  -13    2   16     -3.78      0.00
  -12    2   16      0.83      0.00
  -11    2   16      1.52      0.00
  -10    2   16     -0.43      0.00
   -9    2   16     -1.06      0.00
   -8    2   16     -0.43      0.00
   -7    2   16     -0.05      0.00
   -6    2   16      0.73      0.00
   -5    2   16      0.01      0.00
   -4    2   16     -1.26      0.00
   -3    2   16      0.25      0.00
   -2    2   16      0.99      0.00
   -1    2   16      1.44      0.00
    0    2   16     -1.96      0.00
    1    2   16     -3.40      0.00
    2    2   16      1.71      0.00
    3    2   16      4.21      0.00
    4    2   16      0.12      0.00
    5    2   16     -4.65      0.00
    6    2   16     -1.08      0.00
    7    2   16      3.46      0.00
    8    2   16     -0.53      0.00
    9    2   16     -1.54      0.00
   10    2   16      1.88      0.00
   11    2   16      1.17      0.00
   12    2   16      0.93      0.00
   13    2   16     -0.29      0.00
   14    2   16     -1.88      0.00
   15    2   16      0.42      0.00
  -15    3   16     -0.72      0.00
  -14    3   16     -2.54      0.00
  -13    3   16      1.32      0.00
  -12    3   16     -1.21      0.00
  -11    3   16     -1.30      0.00
  -10    3   16      1.55      0.00
   -9    3   16      1.38      0.00
   -8    3   16     -1.16      0.00
   -7    3   16      0.34      0.00
   -6    3   16      0.22      0.00
   -5    3   16     -1.84      0.00
   -4    3   16     -0.90      0.00
   -3    3   16      0.35      0.00
   -2    3   16      2.13      0.00
   -1    3   16      0.02      0.00
    0    3   16     -1.74      0.00
    1    3   16     -2.13      0.00
    2    3   16      0.06      0.00
    3    3   16      3.59      0.00
    4    3   16      0.59      0.00
    5    3   16     -2.82      0.00
    6    3   16     -0.61      0.00
    7    3   16      0.63      0.00
    8    3   16      0.83      0.00
    9    3   16      0.36      0.00
   10    3   16     -0.51      0.00
   11    3   16      0.46      0.00
   12    3   16      0.78      0.00
   13    3   16      0.53      0.00
   14    3   16      1.33      0.00
   15    3   16     -0.66      0.00
  -14    4   16     -0.64      0.00
  -13    4   16      1.10      0.00
  -12    4   16      0.60      0.00
  -11    4   16     -0.75      0.00
  -10    4   16     -0.88      0.00
   -9    4   16      0.43      0.00
   -8    4   16      2.18      0.00
   -7    4   16     -0.39      0.00
   -6    4   16     -3.07      0.00
   -5    4   16      1.16      0.00
   -4    4   16     -0.42      0.00
   -3    4   16     -0.85      0.00
   -2    4   16      4.40      0.00
   -1    4   16      0.03      0.00
    0    4   16     -4.15      0.00
    1    4   16      0.87      0.00
    2    4   16      2.94      0.00
    3    4   16     -1.89      0.00
    4    4   16     -2.95      0.00
    5    4   16      2.34      0.00
    6    4   16      1.23      0.00
    7    4   16     -2.44      0.00
    8    4   16      0.67      0.00
    9    4   16      1.31      0.00
   10    4   16     -1.91      0.00
   11    4   16     -0.80      0.00
   12    4   16      1.50      0.00
   13    4   16      1.94      0.00
   14    4   16      0.62      0.00
  -14    5   16     -0.18      0.00
  -13    5   16      0.36      0.00
  -12    5   16      2.95      0.00
  -11    5   16      0.30      0.00
  -10    5   16     -2.39      0.00
   -9    5   16     -0.36      0.00
   -8    5   16      0.07      0.00
   -7    5   16     -0.51      0.00
   -6    5   16      2.28      0.00
   -5    5   16     -0.61      0.00
   -4    5   16      0.54      0.00
   -3    5   16      2.38      0.00
   -2    5   16     -1.42      0.00
   -1    5   16      1.12      0.00
    0    5   16      0.79      0.00
    1    5   16     -0.56      0.00
    2    5   16      0.90      0.00
    3    5   16     -1.45      0.00
    4    5   16     -3.29      0.00
    5    5   16     -0.41      0.00
    6    5   16      2.46      0.00
    7    5   16      2.65      0.00
    8    5   16     -1.90      0.00
    9    5   16     -2.96      0.00
   10    5   16      1.28      0.00
   11    5   16      0.08      0.00
   12    5   16     -0.26      0.00
   13    5   16      0.89      0.00
   14    5   16     -1.43      0.00
  -14    6   16     -0.69      0.00
  -13    6   16      0.28      0.00
  -12    6   16      0.39      0.00
  -11    6   16     -1.24      0.00
  -10    6   16      0.91      0.00
   -9    6   16      0.86      0.00
   -8    6   16     -0.34      0.00
   -7    6   16      0.84      0.00
   -6    6   16      0.42      0.00
   -5    6   16     -0.02      0.00
   -4    6   16      1.17      0.00
   -3    6   16      1.32      0.00
   -2    6   16     -1.82      0.00
   -1    6   16     -1.61      0.00
    0    6   16      3.32      0.00
    1    6   16      2.86      0.00
    2    6   16     -2.08      0.00
    3    6   16     -3.46      0.00
    4    6   16      0.02      0.00
    5    6   16      0.74      0.00
    6    6   16      0.87      0.00
    7    6   16     -0.56      0.00
    8    6   16      0.01      0.00
    9    6   16      0.98      0.00
   10    6   16     -1.79      0.00
   11    6   16      1.16      0.00
   12    6   16      0.25      0.00
   13    6   16     -3.09      0.00
   14    6   16     -0.19      0.00
  -13    7   16     -2.41      0.00
  -12    7   16     -3.79      0.00
  -11    7   16      1.30      0.00
  -10    7   16      0.51      0.00
   -9    7   16      0.73      0.00
   -8    7   16      1.56      0.00
   -7    7   16      0.77      0.00
   -6    7   16     -1.87      0.00
   -5    7   16     -1.05      0.00
   -4    7   16      0.88      0.00
   -3    7   16      0.47      0.00
   -2    7   16     -0.39      0.00
   -1    7   16     -2.30      0.00
    0    7   16      0.24      0.00
    1    7   16      3.16      0.00
    2    7   16      1.35      0.00
    3    7   16     -1.35      0.00
    4    7   16     -1.43      0.00
    5    7   16      0.31      0.00
    6    7   16      0.33      0.00
    7    7   16     -0.07      0.00
    8    7   16     -0.31      0.00
    9    7   16      0.60      0.00
   10    7   16      0.86      0.00
   11    7   16     -1.90      0.00
   12    7   16      0.76      0.00
   13    7   16      0.24      0.00
  -13    8   16      0.68      0.00
  -12    8   16     -1.80      0.00
  -11    8   16      1.26      0.00
  -10    8   16     -0.23      0.00
   -9    8   16     -2.84      0.00
   -8    8   16      1.06      0.00
   -7    8   16      0.11      0.00
   -6    8   16     -0.37      0.00
   -5    8   16     -0.48      0.00
   -4    8   16      0.29      0.00
   -3    8   16      0.66      0.00
   -2    8   16     -2.21      0.00
   -1    8   16     -0.80      0.00
    0    8   16      1.71      0.00
    1    8   16     -0.59      0.00
    2    8   16     -1.58      0.00
    3    8   16      2.36      0.00
    4    8   16      1.69      0.00
    5    8   16     -1.28      0.00
    6    8   16     -0.98      0.00
    7    8   16      2.23      0.00
    8    8   16      0.63      0.00
    9    8   16     -2.77      0.00
   10    8   16      0.38      0.00
   11    8   16      1.69      0.00
   12    8   16     -1.54      0.00
   13    8   16      0.46      0.00
  -12    9   16      3.26      0.00
  -11    9   16     -2.76      0.00
  -10    9   16      0.13      0.00
   -9    9   16      1.11      0.00
   -8    9   16     -1.47      0.00
   -7    9   16     -0.38      0.00
   -6    9   16     -0.93      0.00
   -5    9   16      1.69      0.00
   -4    9   16      0.98      0.00
   -3    9   16     -1.66      0.00
   -2    9   16     -0.16      0.00
   -1    9   16      0.81      0.00
    0    9   16     -0.45      0.00
    1    9   16     -1.66      0.00
    2    9   16     -2.00      0.00
    3    9   16      1.02      0.00
    4    9   16      4.00      0.00
    5    9   16     -0.05      0.00
    6    9   16     -1.64      0.00
    7    9   16      0.12      0.00
    8    9   16      1.17      0.00
    9    9   16      0.36      0.00
   10    9   16     -1.24      0.00
   11    9   16      0.67      0.00
   12    9   16     -0.82      0.00
  -12   10   16      0.30      0.00
  -11   10   16      1.25      0.00
  -10   10   16     -1.08      0.00
   -9   10   16      1.77      0.00
   -8   10   16      1.01      0.00
   -7   10   16     -1.26      0.00
   -6   10   16      0.66      0.00
   -5   10   16     -0.24      0.00
   -4   10   16     -0.15      0.00
   -3   10   16      0.67      0.00
   -2   10   16      0.05      0.00
   -1   10   16     -0.76      0.00
    0   10   16     -0.98      0.00
    1   10   16     -0.67      0.00
    2   10   16      1.18      0.00
    3   10   16      0.92      0.00
    4   10   16     -0.45      0.00
    5   10   16      0.54      0.00
    6   10   16     -0.60      0.00
    7   10   16     -0.63      0.00
    8   10   16      0.69      0.00
    9   10   16      0.33      0.00
   10   10   16      1.11      0.00
   11   10   16     -2.18      0.00
   12   10   16     -0.57      0.00
  -11   11   16     -1.25      0.00
  -10   11   16      0.47      0.00
   -9   11   16      1.18      0.00
   -8   11   16     -0.48      0.00
   -7   11   16      1.51      0.00
   -6   11   16      1.33      0.00
   -5   11   16     -1.55      0.00
   -4   11   16     -0.22      0.00
   -3   11   16     -0.18      0.00
   -2   11   16     -0.13      0.00
   -1   11   16     -0.27      0.00
    0   11   16     -1.64      0.00
    1   11   16      1.14      0.00
    2   11   16      2.14      0.00
    3   11   16     -0.21      0.00
    4   11   16     -1.49      0.00
    5   11   16     -0.59      0.00
    6   11   16      0.75      0.00
    7   11   16     -0.54      0.00
    8   11   16     -0.81      0.00
    9   11   16      1.47      0.00
   10   11   16     -0.50      0.00
   11   11   16     -0.03      0.00
  -10   12   16     -0.80      0.00
   -9   12   16     -1.54      0.00
   -8   12   16      1.42      0.00
   -7   12   16      1.90      0.00
   -6   12   16      0.02      0.00
   -5   12   16      0.19      0.00
   -4   12   16     -1.73      0.00
   -3   12   16      0.11      0.00
   -2   12   16      0.61      0.00
   -1   12   16     -0.59      0.00
    0   12   16     -0.47      0.00
    1   12   16     -0.39      0.00
    2   12   16      1.40      0.00
    3   12   16     -0.10      0.00
    4   12   16     -2.10      0.00
    5   12   16     -0.20      0.00
    6   12   16      1.25      0.00
    7   12   16     -0.88      0.00
    8   12   16     -0.68      0.00
    9   12   16      1.82      0.00
   10   12   16      0.62      0.00
   -9   13   16     -3.07      0.00
   -8   13   16      0.35      0.00
   -7   13   16      0.69      0.00
   -6   13   16      0.23      0.00
   -5   13   16      0.46      0.00
   -4   13   16      0.26      0.00
   -3   13   16     -0.38      0.00
   -2   13   16      0.46      0.00
   -1   13   16      0.00      0.00
    0   13   16     -0.07      0.00
    1   13   16      0.41      0.00
    2   13   16     -1.99      0.00
    3   13   16     -0.32      0.00
    4   13   16      1.07      0.00
    5   13   16     -1.28      0.00
    6   13   16     -0.70      0.00
    7   13   16      1.03      0.00
    8   13   16      1.23      0.00
    9   13   16     -0.27      0.00
   -7   14   16     -0.80      0.00
   -6   14   16     -0.24      0.00
   -5   14   16      0.31      0.00
   -4   14   16      0.57      0.00
   -3   14   16      0.88      0.00
   -2   14   16      0.47      0.00
   -1   14   16     -0.06      0.00
    0   14   16      0.85      0.00
    1   14   16     -0.82      0.00
    2   14   16     -0.81      0.00
    3   14   16      0.04      0.00
    4   14   16     -0.18      0.00
    5   14   16      0.57      0.00
    6   14   16     -0.73      0.00
    7   14   16      0.51      0.00
   -5   15   16     -1.47      0.00
   -4   15   16      0.23      0.00
   -3   15   16      1.60      0.00
   -2   15   16      0.40      0.00
   -1   15   16      0.38      0.00
    0   15   16     -0.15      0.00
    1   15   16     -0.15      0.00
    2   15   16      0.20      0.00
    3   15   16     -0.91      0.00
    4   15   16      0.55      0.00
    5   15   16      1.45      0.00
   -2   16   16     -0.07      0.00
   -1   16   16      0.57      0.00
    0   16   16     -0.50      0.00
    1   16   16      0.26      0.00
    2   16   16     -0.25      0.00
  -13    0   17      1.60      0.00
  -11    0   17     -1.57      0.00
   -9    0   17      0.01      0.00
   -7    0   17      1.94      0.00
   -5    0   17     -2.42      0.00
   -3    0   17      1.37      0.00
   -1    0   17     -0.84      0.00
    1    0   17      1.33      0.00
    3    0   17     -0.75      0.00
    5    0   17      2.32      0.00
    7    0   17     -2.92      0.00
    9    0   17      0.97      0.00
   11    0   17     -1.26      0.00
   13    0   17      1.67      0.00
  -14    1   17      2.55      0.00
  -13    1   17     -0.70      0.00
  -12    1   17     -1.30      0.00
  -11    1   17      2.05      0.00
  -10    1   17     -0.10      0.00
   -9    1   17     -3.00      0.00
   -8    1   17     -0.20      0.00
   -7    1   17      2.30      0.00
   -6    1   17      0.62      0.00
   -5    1   17     -0.55      0.00
   -4    1   17     -1.12      0.00
   -3    1   17     -2.15      0.00
   -2    1   17      0.02      0.00
   -1    1   17      4.27      0.00
    0    1   17      1.40      0.00
    1    1   17     -3.10      0.00
    2    1   17     -1.83      0.00
    3    1   17      1.50      0.00
    4    1   17      2.91      0.00
    5    1   17     -1.69      0.00
    6    1   17     -2.89      0.00
    7    1   17      0.59      0.00
    8    1   17      1.11      0.00
    9    1   17      0.11      0.00
   10    1   17     -0.72      0.00
   11    1   17     -1.77      0.00
   12    1   17     -0.16      0.00
   13    1   17      1.67      0.00
   14    1   17      0.63      0.00
  -14    2   17     -1.39      0.00
  -13    2   17     -1.48      0.00
  -12    2   17      2.11      0.00
  -11    2   17     -0.22      0.00
  -10    2   17     -2.19      0.00
   -9    2   17      0.42      0.00
   -8    2   17      0.25      0.00
   -7    2   17     -0.55      0.00
   -6    2   17      2.09      0.00
   -5    2   17     -0.02      0.00
   -4    2   17     -2.40      0.00
   -3    2   17     -1.23      0.00
   -2    2   17      0.86      0.00
   -1    2   17      1.62      0.00
    0    2   17      1.38      0.00
    1    2   17     -0.51      0.00
    2    2   17     -2.03      0.00
    3    2   17      0.03      0.00
    4    2   17      2.10      0.00
    5    2   17     -1.32      0.00
    6    2   17     -3.06      0.00
    7    2   17      0.79      0.00
    8    2   17      1.84      0.00
    9    2   17      0.31      0.00
   10    2   17     -0.09      0.00
   11    2   17     -0.61      0.00
   12    2   17     -1.75      0.00
   13    2   17     -1.10      0.00
   14    2   17      1.23      0.00
  -14    3   17     -2.31      0.00
  -13    3   17     -0.71      0.00
  -12    3   17      0.84      0.00
  -11    3   17      1.16      0.00
  -10    3   17     -0.37      0.00
   -9    3   17     -1.94      0.00
   -8    3   17      0.67      0.00
   -7    3   17      2.55      0.00
   -6    3   17     -1.20      0.00
   -5    3   17     -1.88      0.00
   -4    3   17      0.51      0.00
   -3    3   17     -0.55      0.00
   -2    3   17      0.54      0.00
   -1    3   17      0.62      0.00
    0    3   17     -1.16      0.00
    1    3   17      1.49      0.00
    2    3   17      2.95      0.00
    3    3   17      0.78      0.00
    4    3   17     -4.48      0.00
    5    3   17     -2.05      0.00
    6    3   17      3.92      0.00
    7    3   17      0.06      0.00
    8    3   17     -2.44      0.00
    9    3   17      1.78      0.00
   10    3   17      1.59      0.00
   11    3   17     -1.26      0.00
   12    3   17     -1.24      0.00
   13    3   17     -1.07      0.00
   14    3   17      0.48      0.00
  -14    4   17      1.31      0.00
  -13    4   17     -0.30      0.00
  -12    4   17     -0.47      0.00
  -11    4   17      1.63      0.00
  -10    4   17      0.41      0.00
   -9    4   17     -1.03      0.00
   -8    4   17     -0.40      0.00
   -7    4   17     -1.09      0.00
   -6    4   17      0.13      0.00
   -5    4   17      1.17      0.00
   -4    4   17     -1.99      0.00
   -3    4   17      1.64      0.00
   -2    4   17      1.69      0.00
   -1    4   17     -1.70      0.00
    0    4   17     -0.64      0.00
    1    4   17      0.40      0.00
    2    4   17      4.01      0.00
    3    4   17      2.10      0.00
    4    4   17     -2.79      0.00
    5    4   17     -2.05      0.00
    6    4   17     -0.08      0.00
    7    4   17      1.53      0.00
    8    4   17      1.62      0.00
    9    4   17     -1.76      0.00
   10    4   17     -0.26      0.00
   11    4   17      2.24      0.00
   12    4   17     -0.67      0.00
   13    4   17      0.22      0.00
   14    4   17     -0.60      0.00
  -14    5   17     -0.25      0.00
  -13    5   17      1.20      0.00
  -12    5   17     -0.23      0.00
  -11    5   17     -1.78      0.00
  -10    5   17     -0.17      0.00
   -9    5   17      1.43      0.00
   -8    5   17     -0.28      0.00
   -7    5   17     -1.89      0.00
   -6    5   17      0.10      0.00
   -5    5   17      1.06      0.00
   -4    5   17      0.39      0.00
   -3    5   17      1.55      0.00
   -2    5   17      1.28      0.00
   -1    5   17     -2.59      0.00
    0    5   17     -2.14      0.00
    1    5   17      2.03      0.00
    2    5   17      1.70      0.00
    3    5   17     -0.74      0.00
    4    5   17     -0.03      0.00
    5    5   17      0.38      0.00
    6    5   17     -0.74      0.00
    7    5   17      0.39      0.00
    8    5   17      0.20      0.00
    9    5   17      0.51      0.00
   10    5   17      0.15      0.00
   11    5   17      0.61      0.00
   12    5   17      2.47      0.00
   13    5   17     -1.17      0.00
   14    5   17     -1.64      0.00
  -13    6   17      1.68      0.00
  -12    6   17     -1.18      0.00
  -11    6   17     -2.26      0.00
  -10    6   17      0.29      0.00
   -9    6   17      0.60      0.00
   -8    6   17     -0.40      0.00
   -7    6   17      1.78      0.00
   -6    6   17      0.12      0.00
   -5    6   17     -1.89      0.00
   -4    6   17      1.53      0.00
   -3    6   17      0.45      0.00
   -2    6   17      0.49      0.00
   -1    6   17     -0.05      0.00
    0    6   17     -2.69      0.00
    1    6   17     -0.71      0.00
    2    6   17     -0.32      0.00
    3    6   17     -1.41      0.00
    4    6   17      0.38      0.00
    5    6   17      2.01      0.00
    6    6   17      0.80      0.00
    7    6   17     -1.04      0.00
    8    6   17     -1.02      0.00
    9    6   17      0.28      0.00
   10    6   17      1.93      0.00
   11    6   17      0.27      0.00
   12    6   17     -0.85      0.00
   13    6   17      0.44      0.00
  -13    7   17     -0.11      0.00
  -12    7   17     -0.39      0.00
  -11    7   17      0.97      0.00
  -10    7   17      2.37      0.00
   -9    7   17     -1.07      0.00
   -8    7   17     -0.52      0.00
   -7    7   17     -0.42      0.00
   -6    7   17      0.45      0.00
   -5    7   17      0.67      0.00
   -4    7   17     -1.80      0.00
   -3    7   17      0.76      0.00
   -2    7   17      1.01      0.00
   -1    7   17     -0.60      0.00
    0    7   17      0.55      0.00
    1    7   17     -0.71      0.00
    2    7   17     -3.89      0.00
    3    7   17     -2.04      0.00
    4    7   17      2.25      0.00
    5    7   17      1.90      0.00
    6    7   17     -1.08      0.00
    7    7   17     -1.30      0.00
    8    7   17      2.20      0.00
    9    7   17     -0.19      0.00
   10    7   17     -1.76      0.00
   11    7   17      1.35      0.00
   12    7   17     -0.47      0.00
   13    7   17     -0.79      0.00
  -12    8   17      2.05      0.00
  -11    8   17      2.32      0.00
  -10    8   17     -1.80      0.00
   -9    8   17      1.70      0.00
   -8    8   17      0.14      0.00
   -7    8   17     -0.33      0.00
   -6    8   17     -1.24      0.00
   -5    8   17     -0.74      0.00
   -4    8   17      2.17      0.00
   -3    8   17     -0.06      0.00
   -2    8   17     -1.69      0.00
   -1    8   17      1.75      0.00
    0    8   17      1.84      0.00
    1    8   17     -0.66      0.00
    2    8   17     -1.96      0.00
    3    8   17     -2.53      0.00
    4    8   17      0.69      0.00
    5    8   17      2.11      0.00
    6    8   17     -0.38      0.00
    7    8   17     -1.25      0.00
    8    8   17     -0.71      0.00
    9    8   17      2.32      0.00
   10    8   17     -0.55      0.00
   11    8   17     -1.05      0.00
   12    8   17      1.50      0.00
  -12    9   17     -0.48      0.00
  -11    9   17      0.17      0.00
  -10    9   17     -1.47      0.00
   -9    9   17     -0.83      0.00
   -8    9   17      2.71      0.00
   -7    9   17      0.15      0.00
   -6    9   17     -0.33      0.00
   -5    9   17      0.33      0.00
   -4    9   17      0.26      0.00
   -3    9   17     -0.10      0.00
   -2    9   17      0.00      0.00
   -1    9   17      1.03      0.00
    0    9   17      0.75      0.00
    1    9   17     -1.38      0.00
    2    9   17      0.11      0.00
    3    9   17      2.32      0.00
    4    9   17     -0.87      0.00
    5    9   17     -1.23      0.00
    6    9   17      1.52      0.00
    7    9   17     -0.07      0.00
    8    9   17     -1.70      0.00
    9    9   17     -0.88      0.00
   10    9   17      3.16      0.00
   11    9   17      0.57      0.00
   12    9   17     -2.86      0.00
  -11   10   17     -0.88      0.00
  -10   10   17      1.03      0.00
   -9   10   17     -0.62      0.00
   -8   10   17     -0.93      0.00
   -7   10   17      0.03      0.00
   -6   10   17      1.45      0.00
   -5   10   17      0.99      0.00
   -4   10   17     -0.63      0.00
   -3   10   17     -0.17      0.00
   -2   10   17      0.18      0.00
   -1   10   17      0.30      0.00
    0   10   17     -0.24      0.00
    1   10   17     -0.70      0.00
    2   10   17      1.17      0.00
    3   10   17      2.53      0.00
    4   10   17     -0.09      0.00
    5   10   17     -2.26      0.00
    6   10   17     -0.26      0.00
    7   10   17      1.77      0.00
    8   10   17     -0.53      0.00
    9   10   17     -0.77      0.00
   10   10   17      0.71      0.00
   11   10   17     -0.17      0.00
  -10   11   17      0.82      0.00
   -9   11   17      1.16      0.00
   -8   11   17     -2.57      0.00
   -7   11   17     -0.13      0.00
   -6   11   17      0.15      0.00
   -5   11   17      0.14      0.00
   -4   11   17      0.53      0.00
   -3   11   17     -1.50      0.00
   -2   11   17     -0.50      0.00
   -1   11   17      1.64      0.00
    0   11   17      0.49      0.00
    1   11   17     -0.63      0.00
    2   11   17      0.49      0.00
    3   11   17      0.53      0.00
    4   11   17     -0.07      0.00
    5   11   17     -1.18      0.00
    6   11   17     -0.71      0.00
    7   11   17      0.85      0.00
    8   11   17     -0.58      0.00
    9   11   17      0.10      0.00
   10   11   17      0.24      0.00
   -9   12   17     -0.85      0.00
   -8   12   17      0.13      0.00
   -7   12   17     -0.18      0.00
   -6   12   17     -1.89      0.00
   -5   12   17     -0.25      0.00
   -4   12   17     -0.60      0.00
   -3   12   17     -1.29      0.00
   -2   12   17      0.67      0.00
   -1   12   17     -0.03      0.00
    0   12   17      0.50      0.00
    1   12   17      2.04      0.00
    2   12   17     -0.54      0.00
    3   12   17     -2.04      0.00
    4   12   17     -0.34      0.00
    5   12   17      0.99      0.00
    6   12   17      0.19      0.00
    7   12   17     -2.21      0.00
    8   12   17      0.60      0.00
    9   12   17      0.84      0.00
   -8   13   17      0.95      0.00
   -7   13   17     -1.41      0.00
   -6   13   17     -0.04      0.00
   -5   13   17     -1.48      0.00
   -4   13   17     -1.07      0.00
   -3   13   17      0.85      0.00
   -2   13   17     -1.06      0.00
   -1   13   17     -0.76      0.00
    0   13   17      0.61      0.00
    1   13   17      1.02      0.00
    2   13   17      0.33      0.00
    3   13   17     -0.97      0.00
    4   13   17     -0.87      0.00
    5   13   17      0.88      0.00
    6   13   17      0.10      0.00
    7   13   17     -0.30      0.00
    8   13   17      0.65      0.00
   -6   14   17     -0.42      0.00
   -5   14   17      0.58      0.00
   -4   14   17     -0.25      0.00
   -3   14   17     -0.56      0.00
   -2   14   17     -0.17      0.00
   -1   14   17     -0.87      0.00
    0   14   17      0.20      0.00
    1   14   17     -0.37      0.00
    2   14   17     -0.09      0.00
    3   14   17      1.18      0.00
    4   14   17     -0.73      0.00
    5   14   17     -0.18      0.00
    6   14   17      1.01      0.00
   -4   15   17      1.07      0.00
   -3   15   17      0.45      0.00
   -2   15   17     -0.99      0.00
   -1   15   17      0.01      0.00
    0   15   17     -0.28      0.00
    1   15   17     -0.14      0.00
    2   15   17      0.33      0.00
    3   15   17     -0.78      0.00
    4   15   17      1.15      0.00
  -14    0   18      0.16      0.00
  -12    0   18     -3.00      0.00
  -10    0   18      4.78      0.00
   -8    0   18     -3.92      0.00
   -6    0   18      2.13      0.00
   -4    0   18      0.01      0.00
   -2    0   18     -2.93      0.00
    0    0   18      2.44      0.00
    2    0   18      0.35      0.00
    4    0   18      2.05      0.00
    6    0   18     -2.58      0.00
    8    0   18      0.03      0.00
   10    0   18      1.50      0.00
   12    0   18     -1.22      0.00
   14    0   18     -0.91      0.00
  -14    1   18      0.66      0.00
  -13    1   18     -2.17      0.00
  -12    1   18     -1.24      0.00
  -11    1   18      1.56      0.00
  -10    1   18      0.15      0.00
   -9    1   18     -0.14      0.00
   -8    1   18      0.82      0.00
   -7    1   18     -1.42      0.00
   -6    1   18     -0.59      0.00
   -5    1   18      2.13      0.00
   -4    1   18     -0.55      0.00
   -3    1   18     -1.99      0.00
   -2    1   18      0.54      0.00
   -1    1   18      0.22      0.00
    0    1   18      0.52      0.00
    1    1   18      0.48      0.00
    2    1   18     -0.12      0.00
    3    1   18      0.29      0.00
    4    1   18      0.99      0.00
    5    1   18      1.38      0.00
    6    1   18     -3.02      0.00
    7    1   18     -2.15      0.00
    8    1   18      1.78      0.00
    9    1   18      0.81      0.00
   10    1   18     -0.83      0.00
   11    1   18      0.72      0.00
   12    1   18      1.96      0.00
   13    1   18     -0.65      0.00
   14    1   18     -1.35      0.00
  -14    2   18     -0.44      0.00
  -13    2   18     -1.44      0.00
  -12    2   18      0.23      0.00
  -11    2   18     -0.74      0.00
  -10    2   18     -0.13      0.00
   -9    2   18     -0.20      0.00
   -8    2   18     -0.27      0.00
   -7    2   18      1.51      0.00
   -6    2   18      0.20      0.00
   -5    2   18     -1.81      0.00
   -4    2   18     -0.45      0.00
   -3    2   18     -0.09      0.00
   -2    2   18      0.93      0.00
   -1    2   18      1.72      0.00
    0    2   18     -2.69      0.00
    1    2   18     -1.33      0.00
    2    2   18      1.05      0.00
    3    2   18      2.86      0.00
    4    2   18      0.56      0.00
    5    2   18     -4.46      0.00
    6    2   18      0.30      0.00
    7    2   18      2.42      0.00
    8    2   18     -0.62      0.00
    9    2   18     -0.78      0.00
   10    2   18     -0.06      0.00
   11    2   18      0.37      0.00
   12    2   18      1.54      0.00
   13    2   18      0.79      0.00
   14    2   18     -0.67      0.00
  -14    3   18     -1.60      0.00
  -13    3   18      1.55      0.00
  -12    3   18      0.66      0.00
  -11    3   18     -0.18      0.00
  -10    3   18     -0.28      0.00
   -9    3   18      0.20      0.00
   -8    3   18      0.37      0.00
   -7    3   18      0.46      0.00
   -6    3   18     -1.48      0.00
   -5    3   18     -0.97      0.00
   -4    3   18     -0.23      0.00
   -3    3   18     -0.16      0.00
   -2    3   18      1.89      0.00
   -1    3   18      0.57      0.00
    0    3   18      0.13      0.00
    1    3   18     -2.66      0.00
    2    3   18     -1.34      0.00
    3    3   18      2.75      0.00
    4    3   18      0.40      0.00
    5    3   18     -1.97      0.00
    6    3   18     -0.01      0.00
    7    3   18      1.03      0.00
    8    3   18      0.95      0.00
    9    3   18     -0.24      0.00
   10    3   18     -2.15      0.00
   11    3   18     -0.11      0.00
   12    3   18      1.12      0.00
   13    3   18      0.72      0.00
   14    3   18      1.52      0.00
  -14    4   18     -0.55      0.00
  -13    4   18      0.09      0.00
  -12    4   18      2.33      0.00
  -11    4   18      0.11      0.00
  -10    4   18     -1.80      0.00
   -9    4   18      0.26      0.00
   -8    4   18      2.34      0.00
   -7    4   18     -0.08      0.00
   -6    4   18     -2.42      0.00
   -5    4   18     -1.16      0.00
   -4    4   18      0.86      0.00
   -3    4   18      0.89      0.00
   -2    4   18      0.42      0.00
   -1    4   18      1.65      0.00
    0    4   18      1.43      0.00
    1    4   18     -0.35      0.00
    2    4   18     -1.35      0.00
    3    4   18     -2.20      0.00
    4    4   18     -1.12      0.00
    5    4   18      2.17      0.00
    6    4   18      0.11      0.00
    7    4   18     -1.53      0.00
    8    4   18      0.50      0.00
    9    4   18      0.64      0.00
   10    4   18     -0.38      0.00
   11    4   18     -1.29      0.00
   12    4   18      0.40      0.00
   13    4   18      1.62      0.00
   14    4   18     -0.59      0.00
  -13    5   18     -0.09      0.00
  -12    5   18     -0.11      0.00
  -11    5   18     -0.16      0.00
  -10    5   18     -0.44      0.00
   -9    5   18      0.05      0.00
   -8    5   18     -0.59      0.00
   -7    5   18      0.12      0.00
   -6    5   18      2.46      0.00
   -5    5   18     -1.31      0.00
   -4    5   18     -0.79      0.00
   -3    5   18      2.18      0.00
   -2    5   18     -0.91      0.00
   -1    5   18      0.79      0.00
    0    5   18      1.75      0.00
    1    5   18      2.20      0.00
    2    5   18      0.66      0.00
    3    5   18     -3.94      0.00
    4    5   18     -3.45      0.00
    5    5   18      0.66      0.00
    6    5   18      2.09      0.00
    7    5   18      0.29      0.00
    8    5   18     -1.43      0.00
    9    5   18     -0.54      0.00
   10    5   18      1.42      0.00
   11    5   18      0.71      0.00
   12    5   18     -1.04      0.00
   13    5   18     -0.66      0.00
  -13    6   18     -0.80      0.00
  -12    6   18     -1.71      0.00
  -11    6   18     -0.41      0.00
  -10    6   18      1.82      0.00
   -9    6   18      0.09      0.00
   -8    6   18     -1.40      0.00
   -7    6   18     -0.41      0.00
   -6    6   18      0.36      0.00
   -5    6   18      3.01      0.00
   -4    6   18     -0.01      0.00
   -3    6   18     -2.15      0.00
   -2    6   18      0.67      0.00
   -1    6   18     -1.35      0.00
    0    6   18      1.10      0.00
    1    6   18      3.14      0.00
    2    6   18      0.47      0.00
    3    6   18     -2.69      0.00
    4    6   18     -1.99      0.00
    5    6   18      0.59      0.00
    6    6   18      1.60      0.00
    7    6   18     -0.38      0.00
    8    6   18     -0.71      0.00
    9    6   18      1.02      0.00
   10    6   18      0.00      0.00
   11    6   18      0.32      0.00
   12    6   18     -0.28      0.00
   13    6   18     -1.22      0.00
  -12    7   18     -2.00      0.00
  -11    7   18      1.51      0.00
  -10    7   18      0.18      0.00
   -9    7   18     -0.83      0.00
   -8    7   18      0.17      0.00
   -7    7   18      0.17      0.00
   -6    7   18      0.29      0.00
   -5    7   18     -0.89      0.00
   -4    7   18      0.37      0.00
   -3    7   18      1.62      0.00
   -2    7   18     -1.83      0.00
   -1    7   18     -2.45      0.00
    0    7   18      0.76      0.00
    1    7   18      1.58      0.00
    2    7   18     -0.04      0.00
    3    7   18     -0.46      0.00
    4    7   18      0.62      0.00
    5    7   18      0.77      0.00
    6    7   18     -0.13      0.00
    7    7   18      0.28      0.00
    8    7   18     -1.05      0.00
    9    7   18     -0.03      0.00
   10    7   18      2.23      0.00
   11    7   18     -1.29      0.00
   12    7   18      0.16      0.00
  -12    8   18      1.48      0.00
  -11    8   18      1.16      0.00
  -10    8   18     -0.33      0.00
   -9    8   18     -2.18      0.00
   -8    8   18     -0.68      0.00
   -7    8   18      1.07      0.00
   -6    8   18      0.73      0.00
   -5    8   18     -1.20      0.00
   -4    8   18     -0.08      0.00
   -3    8   18      2.05      0.00
   -2    8   18     -1.25      0.00
   -1    8   18     -2.02      0.00
    0    8   18      0.39      0.00
    1    8   18     -0.18      0.00
    2    8   18     -1.94      0.00
    3    8   18      1.98      0.00
    4    8   18      3.11      0.00
    5    8   18     -1.11      0.00
    6    8   18     -1.49      0.00
    7    8   18      1.50      0.00
    8    8   18      1.03      0.00
    9    8   18     -2.38      0.00
   10    8   18     -0.67      0.00
   11    8   18      3.42      0.00
   12    8   18     -0.79      0.00
  -11    9   18     -1.16      0.00
  -10    9   18      0.56      0.00
   -9    9   18      0.91      0.00
   -8    9   18     -0.90      0.00
   -7    9   18     -0.41      0.00
   -6    9   18     -0.97      0.00
   -5    9   18      1.25      0.00
   -4    9   18      1.55      0.00
   -3    9   18     -1.37      0.00
   -2    9   18      0.64      0.00
   -1    9   18     -0.06      0.00
    0    9   18     -2.02      0.00
    1    9   18     -0.41      0.00
    2    9   18     -0.15      0.00
    3    9   18      0.83      0.00
    4    9   18      2.32      0.00
    5    9   18      0.01      0.00
    6    9   18     -1.70      0.00
    7    9   18     -0.55      0.00
    8    9   18      1.88      0.00
    9    9   18      0.30      0.00
   10    9   18     -1.34      0.00
   11    9   18      0.34      0.00
  -11   10   18      0.33      0.00
  -10   10   18     -1.64      0.00
   -9   10   18      2.36      0.00
   -8   10   18      1.51      0.00
   -7   10   18     -1.41      0.00
   -6   10   18      0.40      0.00
   -5   10   18     -0.29      0.00
   -4   10   18      0.50      0.00
   -3   10   18      1.23      0.00
   -2   10   18     -1.76      0.00
   -1   10   18     -0.85      0.00
    0   10   18      1.04      0.00
    1   10   18     -1.22      0.00
    2   10   18      0.56      0.00
    3   10   18      0.45      0.00
    4   10   18     -0.59      0.00
    5   10   18      1.32      0.00
    6   10   18     -0.28      0.00
    7   10   18     -0.75      0.00
    8   10   18     -0.26      0.00
    9   10   18      0.69      0.00
   10   10   18      1.49      0.00
  -10   11   18      0.83      0.00
   -9   11   18     -1.19      0.00
   -8   11   18      0.03      0.00
   -7   11   18      2.52      0.00
   -6   11   18     -0.48      0.00
   -5   11   18     -0.18      0.00
   -4   11   18      1.18      0.00
   -3   11   18     -1.32      0.00
   -2   11   18     -0.10      0.00
   -1   11   18      0.62      0.00
    0   11   18     -2.31      0.00
    1   11   18      0.49      0.00
    2   11   18      1.56      0.00
    3   11   18     -0.67      0.00
    4   11   18     -1.67      0.00
    5   11   18     -0.51      0.00
    6   11   18      2.77      0.00
    7   11   18      0.08      0.00
    8   11   18     -2.18      0.00
    9   11   18      1.35      0.00
   10   11   18     -0.35      0.00
   -9   12   18     -1.64      0.00
   -8   12   18      0.44      0.00
   -7   12   18      0.23      0.00
   -6   12   18      0.77      0.00
   -5   12   18      1.04      0.00
   -4   12   18     -1.70      0.00
   -3   12   18      0.67      0.00
   -2   12   18      2.37      0.00
   -1   12   18     -0.71      0.00
    0   12   18     -1.95      0.00
    1   12   18     -0.78      0.00
    2   12   18      0.60      0.00
    3   12   18      0.13      0.00
    4   12   18     -1.01      0.00
    5   12   18     -0.25      0.00
    6   12   18      0.22      0.00
    7   12   18      0.04      0.00
    8   12   18      0.18      0.00
    9   12   18      0.66      0.00
   -7   13   18     -0.27      0.00
   -6   13   18      0.08      0.00
   -5   13   18     -0.30      0.00
   -4   13   18      0.17      0.00
   -3   13   18      1.12      0.00
   -2   13   18      1.23      0.00
   -1   13   18      0.12      0.00
    0   13   18      0.08      0.00
    1   13   18     -0.57      0.00
    2   13   18     -1.59      0.00
    3   13   18     -0.27      0.00
    4   13   18      0.99      0.00
    5   13   18      0.10      0.00
    6   13   18     -0.92      0.00
    7   13   18     -0.81      0.00
   -5   14   18     -0.90      0.00
   -4   14   18      0.41      0.00
   -3   14   18      0.42      0.00
   -2   14   18     -0.27      0.00
   -1   14   18      0.91      0.00
    0   14   18      0.56      0.00
    1   14   18     -0.03      0.00
    2   14   18      0.13      0.00
    3   14   18     -0.75      0.00
    4   14   18     -0.11      0.00
    5   14   18      0.95      0.00
   -3   15   18     -0.53      0.00
   -2   15   18      0.02      0.00
   -1   15   18     -0.22      0.00
    0   15   18      0.62      0.00
    1   15   18      0.27      0.00
    2   15   18      0.21      0.00
  -13    0   19      0.51      0.00
  -11    0   19     -0.68      0.00
   -9    0   19     -0.20      0.00
   -7    0   19      0.05      0.00
   -5    0   19      1.60      0.00
   -3    0   19     -3.38      0.00
   -1    0   19      0.92      0.00
    1    0   19      0.84      0.00
    3    0   19      0.40      0.00
    5    0   19      1.92      0.00
    7    0   19     -3.21      0.00
    9    0   19      1.92      0.00
   11    0   19     -2.10      0.00
   13    0   19      1.93      0.00
  -14    1   19      0.89      0.00
  -13    1   19     -2.07      0.00
  -12    1   19      0.49      0.00
  -11    1   19      3.04      0.00
  -10    1   19     -0.69      0.00
   -9    1   19     -2.72      0.00
   -8    1   19     -0.77      0.00
   -7    1   19      1.63      0.00
   -6    1   19      1.61      0.00
   -5    1   19     -1.20      0.00
   -4    1   19     -0.92      0.00
   -3    1   19     -0.34      0.00
   -2    1   19     -1.49      0.00
   -1    1   19      1.55      0.00
    0    1   19      0.82      0.00
    1    1   19      0.21      0.00
    2    1   19      0.48      0.00
    3    1   19     -1.18      0.00
    4    1   19      1.64      0.00
    5    1   19     -2.07      0.00
    6    1   19     -1.86      0.00
    7    1   19      1.52      0.00
    8    1   19     -0.18      0.00
    9    1   19      0.38      0.00
   10    1   19      0.59      0.00
   11    1   19     -1.23      0.00
   12    1   19     -0.76      0.00
   13    1   19     -0.14      0.00
  -13    2   19     -0.77      0.00
  -12    2   19      0.79      0.00
  -11    2   19      0.88      0.00
  -10    2   19      0.64      0.00
   -9    2   19     -0.48      0.00
   -8    2   19     -1.05      0.00
   -7    2   19      0.95      0.00
   -6    2   19      2.18      0.00
   -5    2   19     -1.41      0.00
   -4    2   19     -2.98      0.00
   -3    2   19      0.49      0.00
   -2    2   19      2.15      0.00
   -1    2   19     -1.06      0.00
    0    2   19      0.13      0.00
    1    2   19      1.74      0.00
    2    2   19     -0.19      0.00
    3    2   19     -0.23      0.00
    4    2   19      0.05      0.00
    5    2   19     -1.69      0.00
    6    2   19     -1.94      0.00
    7    2   19      1.17      0.00
    8    2   19      1.74      0.00
    9    2   19     -0.13      0.00
   10    2   19     -0.80      0.00
   11    2   19     -0.02      0.00
   12    2   19     -0.11      0.00
   13    2   19     -1.38      0.00
  -13    3   19     -0.53      0.00
  -12    3   19     -0.71      0.00
  -11    3   19      0.87      0.00
  -10    3   19     -0.23      0.00
   -9    3   19     -0.75      0.00
   -8    3   19      1.37      0.00
   -7    3   19      1.28      0.00
   -6    3   19     -0.43      0.00
   -5    3   19     -1.00      0.00
   -4    3   19     -1.17      0.00
   -3    3   19      0.84      0.00
   -2    3   19      1.05      0.00
   -1    3   19     -1.98      0.00
    0    3   19     -0.03      0.00
    1    3   19      3.48      0.00
    2    3   19      1.66      0.00
    3    3   19      0.14      0.00
    4    3   19     -3.18      0.00
    5    3   19     -0.70      0.00
    6    3   19      2.03      0.00
    7    3   19     -0.40      0.00
    8    3   19     -0.35      0.00
    9    3   19     -0.07      0.00
   10    3   19     -0.02      0.00
   11    3   19      0.84      0.00
   12    3   19     -0.31      0.00
   13    3   19     -0.63      0.00
  -13    4   19      2.19      0.00
  -12    4   19      0.59      0.00
  -11    4   19     -2.54      0.00
  -10    4   19     -0.48      0.00
   -9    4   19      1.01      0.00
   -8    4   19      0.05      0.00
   -7    4   19     -1.41      0.00
   -6    4   19     -0.88      0.00
   -5    4   19      1.27      0.00
   -4    4   19      0.03      0.00
   -3    4   19      1.36      0.00
   -2    4   19      0.24      0.00
   -1    4   19     -1.00      0.00
    0    4   19     -1.23      0.00
    1    4   19     -0.51      0.00
    2    4   19      4.71      0.00
    3    4   19      1.95      0.00
    4    4   19     -2.59      0.00
    5    4   19     -1.80      0.00
    6    4   19      1.14      0.00
    7    4   19      1.37      0.00
    8    4   19     -0.68      0.00
    9    4   19     -1.79      0.00
   10    4   19      0.09      0.00
   11    4   19      2.24      0.00
   12    4   19      0.91      0.00
   13    4   19     -0.38      0.00
  -13    5   19      0.82      0.00
  -12    5   19     -0.49      0.00
  -11    5   19     -0.98      0.00
  -10    5   19     -0.07      0.00
   -9    5   19      1.51      0.00
   -8    5   19      0.33      0.00
   -7    5   19     -2.42      0.00
   -6    5   19     -2.99      0.00
   -5    5   19      0.85      0.00
   -4    5   19      4.10      0.00
   -3    5   19     -1.29      0.00
   -2    5   19      1.13      0.00
   -1    5   19      1.79      0.00
    0    5   19     -3.30      0.00
    1    5   19     -1.89      0.00
    2    5   19      0.65      0.00
    3    5   19      1.54      0.00
    4    5   19      0.16      0.00
    5    5   19     -1.03      0.00
    6    5   19     -0.47      0.00
    7    5   19      1.07      0.00
    8    5   19      0.62      0.00
    9    5   19     -0.51      0.00
   10    5   19     -0.38      0.00
   11    5   19      0.66      0.00
   12    5   19      1.45      0.00
   13    5   19     -0.43      0.00
  -12    6   19     -0.34      0.00
  -11    6   19      0.16      0.00
  -10    6   19      0.52      0.00
   -9    6   19     -0.20      0.00
   -8    6   19     -0.23      0.00
   -7    6   19      0.57      0.00
   -6    6   19      0.11      0.00
   -5    6   19     -1.08      0.00
   -4    6   19     -0.86      0.00
   -3    6   19      1.26      0.00
   -2    6   19      1.33      0.00
   -1    6   19      0.73      0.00
    0    6   19     -0.56      0.00
    1    6   19     -1.80      0.00
    2    6   19     -2.37      0.00
    3    6   19     -2.21      0.00
    4    6   19      0.80      0.00
    5    6   19      2.46      0.00
    6    6   19     -0.56      0.00
    7    6   19     -0.73      0.00
    8    6   19      0.85      0.00
    9    6   19     -0.40      0.00
   10    6   19      0.52      0.00
   11    6   19      0.36      0.00
   12    6   19     -0.83      0.00
  -12    7   19     -0.29      0.00
  -11    7   19      1.37      0.00
  -10    7   19      0.80      0.00
   -9    7   19     -0.56      0.00
   -8    7   19     -0.43      0.00
   -7    7   19     -0.01      0.00
   -6    7   19      2.05      0.00
   -5    7   19      0.76      0.00
   -4    7   19     -4.05      0.00
   -3    7   19      0.56      0.00
   -2    7   19      2.53      0.00
   -1    7   19     -0.51      0.00
    0    7   19      0.33      0.00
    1    7   19     -0.05      0.00
    2    7   19     -2.57      0.00
    3    7   19     -2.83      0.00
    4    7   19      1.53      0.00
    5    7   19      2.34      0.00
    6    7   19     -0.39      0.00
    7    7   19     -1.73      0.00
    8    7   19      0.34      0.00
    9    7   19      1.60      0.00
   10    7   19     -1.25      0.00
   11    7   19     -0.46      0.00
   12    7   19      1.14      0.00
  -11    8   19      0.70      0.00
  -10    8   19     -0.17      0.00
   -9    8   19      0.89      0.00
   -8    8   19     -0.30      0.00
   -7    8   19      1.04      0.00
   -6    8   19     -0.15      0.00
   -5    8   19     -2.24      0.00
   -4    8   19      2.46      0.00
   -3    8   19     -0.40      0.00
   -2    8   19     -1.82      0.00
   -1    8   19      3.26      0.00
    0    8   19      0.71      0.00
    1    8   19     -1.88      0.00
    2    8   19     -0.84      0.00
    3    8   19      0.34      0.00
    4    8   19      0.56      0.00
    5    8   19      0.11      0.00
    6    8   19      0.30      0.00
    7    8   19     -0.94      0.00
    8    8   19     -0.83      0.00
    9    8   19      2.38      0.00
   10    8   19      0.55      0.00
   11    8   19     -1.00      0.00
  -11    9   19      0.42      0.00
  -10    9   19     -1.21      0.00
   -9    9   19     -1.77      0.00
   -8    9   19      2.08      0.00
   -7    9   19      0.59      0.00
   -6    9   19     -0.70      0.00
   -5    9   19      0.21      0.00
   -4    9   19     -0.07      0.00
   -3    9   19      0.82      0.00
   -2    9   19     -0.01      0.00
   -1    9   19     -0.92      0.00
    0    9   19      2.51      0.00
    1    9   19      0.29      0.00
    2    9   19     -1.42      0.00
    3    9   19      1.72      0.00
    4    9   19     -1.00      0.00
    5    9   19     -1.37      0.00
    6    9   19      1.10      0.00
    7    9   19      0.72      0.00
    8    9   19     -0.35      0.00
    9    9   19     -1.27      0.00
   10    9   19      3.07      0.00
   11    9   19      1.05      0.00
  -10   10   19      0.87      0.00
   -9   10   19     -0.18      0.00
   -8   10   19     -2.14      0.00
   -7   10   19      0.68      0.00
   -6   10   19      0.69      0.00
   -5   10   19     -0.52      0.00
   -4   10   19      0.86      0.00
   -3   10   19      0.28      0.00
   -2   10   19     -1.31      0.00
   -1   10   19      0.61      0.00
    0   10   19      1.12      0.00
    1   10   19     -0.09      0.00
    2   10   19      0.73      0.00
    3   10   19      0.50      0.00
    4   10   19     -0.16      0.00
    5   10   19     -2.08      0.00
    6   10   19     -0.83      0.00
    7   10   19      2.40      0.00
    8   10   19     -0.37      0.00
    9   10   19     -0.58      0.00
   10   10   19      0.43      0.00
   -9   11   19      0.73      0.00
   -8   11   19     -0.84      0.00
   -7   11   19     -0.93      0.00
   -6   11   19     -0.58      0.00
   -5   11   19      1.15      0.00
   -4   11   19      0.37      0.00
   -3   11   19     -2.42      0.00
   -2   11   19     -0.70      0.00
   -1   11   19      2.47      0.00
    0   11   19     -0.09      0.00
    1   11   19     -1.05      0.00
    2   11   19      0.61      0.00
    3   11   19      0.58      0.00
    4   11   19      0.49      0.00
    5   11   19     -0.16      0.00
    6   11   19     -1.03      0.00
    7   11   19     -1.01      0.00
    8   11   19     -0.04      0.00
    9   11   19      0.36      0.00
   -8   12   19      1.54      0.00
   -7   12   19     -0.49      0.00
   -6   12   19     -0.69      0.00
   -5   12   19      1.10      0.00
   -4   12   19     -1.31      0.00
   -3   12   19     -1.57      0.00
   -2   12   19      0.78      0.00
   -1   12   19     -1.71      0.00
    0   12   19     -0.11      0.00
    1   12   19      1.82      0.00
    2   12   19     -0.36      0.00
    3   12   19     -0.41      0.00
    4   12   19      0.28      0.00
    5   12   19      1.39      0.00
    6   12   19      0.37      0.00
    7   12   19     -2.53      0.00
    8   12   19     -0.34      0.00
   -6   13   19      1.16      0.00
   -5   13   19     -1.27      0.00
   -4   13   19      0.04      0.00
   -3   13   19      1.78      0.00
   -2   13   19     -2.05      0.00
   -1   13   19     -2.12      0.00
    0   13   19     -0.57      0.00
    1   13   19      0.48      0.00
    2   13   19      1.13      0.00
    3   13   19      0.08      0.00
    4   13   19      0.18      0.00
    5   13   19      0.00      0.00
    6   13   19     -0.35      0.00
   -4   14   19      1.00      0.00
   -3   14   19     -0.47      0.00
   -2   14   19      0.14      0.00
   -1   14   19     -1.34      0.00
    0   14   19     -1.17      0.00
    1   14   19      0.10      0.00
    2   14   19     -0.14      0.00
    3   14   19      0.87      0.00
    4   14   19      0.32      0.00
  -12    0   20     -3.93      0.00
  -10    0   20      3.54      0.00
   -8    0   20     -2.79      0.00
   -6    0   20      2.07      0.00
   -4    0   20     -1.03      0.00
   -2    0   20     -0.32      0.00
    0    0   20     -0.42      0.00
    2    0   20      3.34      0.00
    4    0   20     -0.02      0.00
    6    0   20     -2.92      0.00
    8    0   20      1.06      0.00
   10    0   20      1.29      0.00
   12    0   20     -0.15      0.00
  -13    1   20     -1.23      0.00
  -12    1   20     -0.30      0.00
  -11    1   20     -0.57      0.00
  -10    1   20      0.72      0.00
   -9    1   20      0.75      0.00
   -8    1   20     -1.27      0.00
   -7    1   20     -1.36      0.00
   -6    1   20      1.96      0.00
   -5    1   20      2.30      0.00
   -4    1   20     -3.56      0.00
   -3    1   20     -2.82      0.00
   -2    1   20      3.07      0.00
   -1    1   20      1.50      0.00
    0    1   20     -1.28      0.00
    1    1   20     -0.45      0.00
    2    1   20      0.80      0.00
    3    1   20      1.12      0.00
    4    1   20      0.29      0.00
    5    1   20      0.02      0.00
    6    1   20     -1.77      0.00
    7    1   20     -1.28      0.00
    8    1   20      1.53      0.00
    9    1   20      1.76      0.00
   10    1   20     -1.34      0.00
   11    1   20     -0.99      0.00
   12    1   20      1.48      0.00
   13    1   20      0.85      0.00
  -13    2   20      0.71      0.00
  -12    2   20      1.28      0.00
  -11    2   20     -0.54      0.00
  -10    2   20     -1.13      0.00
   -9    2   20     -1.13      0.00
   -8    2   20      0.66      0.00
   -7    2   20      1.71      0.00
   -6    2   20     -0.88      0.00
   -5    2   20     -1.01      0.00
   -4    2   20      0.21      0.00
   -3    2   20     -1.50      0.00
   -2    2   20      0.45      0.00
   -1    2   20      1.67      0.00
    0    2   20     -1.71      0.00
    1    2   20      0.54      0.00
    2    2   20     -0.24      0.00
    3    2   20      0.57      0.00
    4    2   20      0.48      0.00
    5    2   20     -1.80      0.00
    6    2   20      1.30      0.00
    7    2   20     -0.16      0.00
    8    2   20     -0.38      0.00
    9    2   20      1.22      0.00
   10    2   20     -0.89      0.00
   11    2   20     -0.86      0.00
   12    2   20      0.55      0.00
   13    2   20      0.32      0.00
  -13    3   20     -0.34      0.00
  -12    3   20      2.50      0.00
  -11    3   20      1.93      0.00
  -10    3   20     -1.77      0.00
   -9    3   20     -0.20      0.00
   -8    3   20      0.80      0.00
   -7    3   20      1.03      0.00
   -6    3   20     -1.05      0.00
   -5    3   20     -3.19      0.00
   -4    3   20      0.01      0.00
   -3    3   20      3.03      0.00
   -2    3   20     -0.38      0.00
   -1    3   20     -1.78      0.00
    0    3   20      2.83      0.00
    1    3   20     -1.20      0.00
    2    3   20     -1.56      0.00
    3    3   20      0.99      0.00
    4    3   20      0.07      0.00
    5    3   20     -0.74      0.00
    6    3   20     -0.03      0.00
    7    3   20      1.72      0.00
    8    3   20      0.16      0.00
    9    3   20     -1.91      0.00
   10    3   20     -1.09      0.00
   11    3   20      0.32      0.00
   12    3   20      0.58      0.00
   13    3   20      0.02      0.00
  -12    4   20     -1.01      0.00
  -11    4   20     -0.45      0.00
  -10    4   20      1.59      0.00
   -9    4   20      0.86      0.00
   -8    4   20      1.29      0.00
   -7    4   20      0.67      0.00
   -6    4   20     -1.50      0.00
   -5    4   20     -3.02      0.00
   -4    4   20      1.45      0.00
   -3    4   20      1.31      0.00
   -2    4   20     -2.61      0.00
   -1    4   20      2.32      0.00
    0    4   20      3.87      0.00
    1    4   20      0.22      0.00
    2    4   20     -2.75      0.00
    3    4   20     -1.77      0.00
    4    4   20      0.29      0.00
    5    4   20      0.77      0.00
    6    4   20     -0.13      0.00
    7    4   20     -0.50      0.00
    8    4   20     -0.22      0.00
    9    4   20     -0.09      0.00
   10    4   20     -0.25      0.00
   11    4   20     -0.30      0.00
   12    4   20      0.10      0.00
  -12    5   20     -2.85      0.00
  -11    5   20     -0.64      0.00
  -10    5   20      1.34      0.00
   -9    5   20      0.53      0.00
   -8    5   20     -0.73      0.00
   -7    5   20     -0.89      0.00
   -6    5   20      1.32      0.00
   -5    5   20      2.19      0.00
   -4    5   20     -0.73      0.00
   -3    5   20     -1.06      0.00
   -2    5   20     -0.91      0.00
   -1    5   20     -0.13      0.00
    0    5   20      2.44      0.00
    1    5   20      3.51      0.00
    2    5   20      0.19      0.00
    3    5   20     -3.65      0.00
    4    5   20     -2.94      0.00
    5    5   20      1.81      0.00
    6    5   20      1.48      0.00
    7    5   20     -1.95      0.00
    8    5   20     -0.62      0.00
    9    5   20      0.38      0.00
   10    5   20      0.81      0.00
   11    5   20      1.17      0.00
   12    5   20     -0.62      0.00
  -12    6   20     -0.32      0.00
  -11    6   20     -0.27      0.00
  -10    6   20      0.37      0.00
   -9    6   20      0.20      0.00
   -8    6   20     -1.76      0.00
   -7    6   20     -1.65      0.00
   -6    6   20      0.36      0.00
   -5    6   20      4.74      0.00
   -4    6   20      0.39      0.00
   -3    6   20     -3.21      0.00
   -2    6   20      1.92      0.00
   -1    6   20     -1.78      0.00
    0    6   20     -1.30      0.00
    1    6   20      2.11      0.00
    2    6   20      1.97      0.00
    3    6   20     -1.40      0.00
    4    6   20     -2.19      0.00
    5    6   20     -0.08      0.00
    6    6   20      1.46      0.00
    7    6   20      1.19      0.00
    8    6   20     -1.87      0.00
    9    6   20     -0.95      0.00
   10    6   20      1.91      0.00
   11    6   20      0.57      0.00
   12    6   20     -0.05      0.00
  -11    7   20     -0.07      0.00
  -10    7   20      0.15      0.00
   -9    7   20      0.71      0.00
   -8    7   20     -0.06      0.00
   -7    7   20     -1.17      0.00
   -6    7   20      1.54      0.00
   -5    7   20     -1.73      0.00
   -4    7   20     -0.61      0.00
   -3    7   20      3.34      0.00
   -2    7   20     -1.77      0.00
   -1    7   20     -0.85      0.00
    0    7   20     -0.07      0.00
    1    7   20     -0.54      0.00
    2    7   20     -0.59      0.00
    3    7   20      0.23      0.00
    4    7   20      1.83      0.00
    5    7   20     -0.43      0.00
    6    7   20     -0.75      0.00
    7    7   20      1.05      0.00
    8    7   20     -0.91      0.00
    9    7   20     -0.50      0.00
   10    7   20      1.43      0.00
   11    7   20      0.45      0.00
  -11    8   20      1.42      0.00
  -10    8   20      1.20      0.00
   -9    8   20     -1.16      0.00
   -8    8   20     -1.24      0.00
   -7    8   20      1.27      0.00
   -6    8   20      0.09      0.00
   -5    8   20     -1.51      0.00
   -4    8   20     -0.70      0.00
   -3    8   20      1.58      0.00
   -2    8   20      1.32      0.00
   -1    8   20     -1.96      0.00
    0    8   20     -1.43      0.00
    1    8   20      1.36      0.00
    2    8   20     -0.77      0.00
    3    8   20      0.62      0.00
    4    8   20      1.89      0.00
    5    8   20     -0.67      0.00
    6    8   20     -1.13      0.00
    7    8   20     -0.21      0.00
    8    8   20      1.55      0.00
    9    8   20     -0.51      0.00
   10    8   20     -1.56      0.00
   11    8   20      2.32      0.00
  -10    9   20      0.09      0.00
   -9    9   20      0.10      0.00
   -8    9   20     -0.79      0.00
   -7    9   20     -0.57      0.00
   -6    9   20     -0.21      0.00
   -5    9   20      0.14      0.00
   -4    9   20      0.62      0.00
   -3    9   20     -0.11      0.00
   -2    9   20      1.81      0.00
   -1    9   20     -0.54      0.00
    0    9   20     -2.09      0.00
    1    9   20     -0.95      0.00
    2    9   20      1.13      0.00
    3    9   20      0.57      0.00
    4    9   20      0.16      0.00
    5    9   20      1.15      0.00
    6    9   20     -0.66      0.00
    7    9   20     -0.37      0.00
    8    9   20      1.39      0.00
    9    9   20     -0.05      0.00
   10    9   20     -0.65      0.00
   -9   10   20      0.38      0.00
   -8   10   20      0.84      0.00
   -7   10   20     -0.28      0.00
   -6   10   20     -0.62      0.00
   -5   10   20      0.03      0.00
   -4   10   20      1.41      0.00
   -3   10   20      1.41      0.00
   -2   10   20     -1.86      0.00
   -1   10   20      0.80      0.00
    0   10   20      1.16      0.00
    1   10   20     -3.36      0.00
    2   10   20     -1.15      0.00
    3   10   20      0.41      0.00
    4   10   20     -0.01      0.00
    5   10   20      1.81      0.00
    6   10   20      1.69      0.00
    7   10   20     -0.24      0.00
    8   10   20     -1.14      0.00
    9   10   20      0.68      0.00
   -8   11   20      0.02      0.00
   -7   11   20      1.53      0.00
   -6   11   20     -1.14      0.00
   -5   11   20      1.06      0.00
   -4   11   20      2.09      0.00
   -3   11   20     -1.73      0.00
   -2   11   20      1.01      0.00
   -1   11   20      1.55      0.00
    0   11   20     -2.88      0.00
    1   11   20     -0.27      0.00
    2   11   20     -0.46      0.00
    3   11   20     -0.98      0.00
    4   11   20     -0.19      0.00
    5   11   20      0.16      0.00
    6   11   20      2.08      0.00
    7   11   20      0.26      0.00
    8   11   20     -1.30      0.00
   -7   12   20     -0.92      0.00
   -6   12   20      1.89      0.00
   -5   12   20      0.54      0.00
   -4   12   20     -2.55      0.00
   -3   12   20      1.05      0.00
   -2   12   20      2.72      0.00
   -1   12   20     -0.09      0.00
    0   12   20     -1.22      0.00
    1   12   20     -1.45      0.00
    2   12   20      0.79      0.00
    3   12   20      0.43      0.00
    4   12   20     -0.60      0.00
    5   12   20     -0.28      0.00
    6   12   20     -1.22      0.00
    7   12   20      0.11      0.00
   -5   13   20     -0.70      0.00
   -4   13   20     -0.10      0.00
   -3   13   20      0.00      0.00
   -2   13   20      0.00      0.00
   -1   13   20      0.66      0.00
    0   13   20      0.73      0.00
    1   13   20      0.13      0.00
    2   13   20     -0.15      0.00
    3   13   20      0.13      0.00
    4   13   20      0.31      0.00
    5   13   20     -0.68      0.00
   -2   14   20     -0.99      0.00
   -1   14   20     -0.15      0.00
    0   14   20      0.62      0.00
    1   14   20      1.20      0.00
    2   14   20      0.39      0.00
  -11    0   21     -1.01      0.00
   -9    0   21      1.96      0.00
   -7    0   21     -2.23      0.00
   -5    0   21      3.91      0.00
   -3    0   21     -5.17      0.00
   -1    0   21      2.22      0.00
    1    0   21     -1.34      0.00
    3    0   21      1.11      0.00
    5    0   21      0.03      0.00
    7    0   21     -0.26      0.00
    9    0   21      1.15      0.00
   11    0   21     -1.86      0.00
  -12    1   21      0.55      0.00
  -11    1   21      2.37      0.00
  -10    1   21     -0.30      0.00
   -9    1   21     -1.85      0.00
   -8    1   21     -0.63      0.00
   -7    1   21      2.31      0.00
   -6    1   21      1.42      0.00
   -5    1   21     -1.34      0.00
   -4    1   21     -0.27      0.00
   -3    1   21      0.51      0.00
   -2    1   21     -1.47      0.00
   -1    1   21     -0.22      0.00
    0    1   21     -0.35      0.00
    1    1   21      1.62      0.00
    2    1   21      1.11      0.00
    3    1   21     -2.39      0.00
    4    1   21      0.31      0.00
    5    1   21     -1.12      0.00
    6    1   21      0.10      0.00
    7    1   21      1.73      0.00
    8    1   21     -0.62      0.00
    9    1   21      0.29      0.00
   10    1   21      0.37      0.00
   11    1   21     -1.35      0.00
   12    1   21     -0.32      0.00
  -12    2   21     -1.55      0.00
  -11    2   21      1.31      0.00
  -10    2   21      0.85      0.00
   -9    2   21     -1.47      0.00
   -8    2   21      0.16      0.00
   -7    2   21      1.31      0.00
   -6    2   21      2.58      0.00
   -5    2   21     -1.32      0.00
   -4    2   21     -4.02      0.00
   -3    2   21      2.27      0.00
   -2    2   21      3.76      0.00
   -1    2   21     -3.59      0.00
    0    2   21     -1.62      0.00
    1    2   21      2.68      0.00
    2    2   21      1.05      0.00
    3    2   21      0.03      0.00
    4    2   21     -1.11      0.00
    5    2   21     -0.32      0.00
    6    2   21     -0.56      0.00
    7    2   21      0.40      0.00
    8    2   21      2.49      0.00
    9    2   21     -0.50      0.00
   10    2   21     -2.69      0.00
   11    2   21      0.02      0.00
   12    2   21      0.76      0.00
  -12    3   21      0.44      0.00
  -11    3   21     -3.24      0.00
  -10    3   21     -1.14      0.00
   -9    3   21      1.39      0.00
   -8    3   21      0.85      0.00
   -7    3   21      0.49      0.00
   -6    3   21      0.08      0.00
   -5    3   21     -0.17      0.00
   -4    3   21     -0.84      0.00
   -3    3   21      0.92      0.00
   -2    3   21      0.34      0.00
   -1    3   21     -1.88      0.00
    0    3   21      0.11      0.00
    1    3   21      2.85      0.00
    2    3   21      1.14      0.00
    3    3   21     -0.33      0.00
    4    3   21     -0.48      0.00
    5    3   21      0.14      0.00
    6    3   21     -0.51      0.00
    7    3   21      0.18      0.00
    8    3   21      0.74      0.00
    9    3   21     -0.19      0.00
   10    3   21     -0.77      0.00
   11    3   21     -0.37      0.00
   12    3   21      0.28      0.00
  -12    4   21      1.27      0.00
  -11    4   21     -1.79      0.00
  -10    4   21     -1.01      0.00
   -9    4   21      0.04      0.00
   -8    4   21      0.13      0.00
   -7    4   21     -0.40      0.00
   -6    4   21     -2.69      0.00
   -5    4   21      0.22      0.00
   -4    4   21      3.23      0.00
   -3    4   21      0.17      0.00
   -2    4   21     -1.70      0.00
   -1    4   21      0.56      0.00
    0    4   21     -0.44      0.00
    1    4   21     -0.39      0.00
    2    4   21      2.87      0.00
    3    4   21      1.18      0.00
    4    4   21     -1.67      0.00
    5    4   21     -1.24      0.00
    6    4   21      1.98      0.00
    7    4   21     -0.73      0.00
    8    4   21     -1.98      0.00
    9    4   21     -0.12      0.00
   10    4   21      0.25      0.00
   11    4   21      1.26      0.00
   12    4   21      0.76      0.00
  -12    5   21     -0.64      0.00
  -11    5   21      2.78      0.00
  -10    5   21      0.45      0.00
   -9    5   21     -0.20      0.00
   -8    5   21      0.16      0.00
   -7    5   21     -2.00      0.00
   -6    5   21     -2.82      0.00
   -5    5   21     -0.37      0.00
   -4    5   21      3.14      0.00
   -3    5   21     -1.87      0.00
   -2    5   21      1.36      0.00
   -1    5   21      3.56      0.00
    0    5   21     -1.60      0.00
    1    5   21     -3.10      0.00
    2    5   21     -0.38      0.00
    3    5   21      2.07      0.00
    4    5   21      0.01      0.00
    5    5   21     -0.92      0.00
    6    5   21     -1.74      0.00
    7    5   21      0.19      0.00
    8    5   21      1.27      0.00
    9    5   21     -1.46      0.00
   10    5   21     -0.40      0.00
   11    5   21      1.32      0.00
   12    5   21      0.58      0.00
  -11    6   21      0.18      0.00
  -10    6   21      0.30      0.00
   -9    6   21      0.11      0.00
   -8    6   21      0.71      0.00
   -7    6   21     -0.02      0.00
   -6    6   21      0.34      0.00
   -5    6   21      0.63      0.00
   -4    6   21     -3.40      0.00
   -3    6   21     -0.01      0.00
   -2    6   21      0.70      0.00
   -1    6   21      2.03      0.00
    0    6   21      2.28      0.00
    1    6   21     -2.12      0.00
    2    6   21     -2.78      0.00
    3    6   21     -1.64      0.00
    4    6   21      1.45      0.00
    5    6   21      1.05      0.00
    6    6   21     -2.25      0.00
    7    6   21      0.24      0.00
    8    6   21      0.97      0.00
    9    6   21     -0.29      0.00
   10    6   21      0.57      0.00
   11    6   21      0.08      0.00
  -11    7   21     -0.11      0.00
  -10    7   21      1.28      0.00
   -9    7   21      0.72      0.00
   -8    7   21     -1.02      0.00
   -7    7   21      0.05      0.00
   -6    7   21      2.21      0.00
   -5    7   21      0.74      0.00
   -4    7   21     -2.63      0.00
   -3    7   21     -0.77      0.00
   -2    7   21      0.94      0.00
   -1    7   21      0.38      0.00
    0    7   21      0.42      0.00
    1    7   21      0.20      0.00
    2    7   21     -0.82      0.00
    3    7   21     -1.67      0.00
    4    7   21     -0.05      0.00
    5    7   21      0.79      0.00
    6    7   21      1.29      0.00
    7    7   21     -1.16      0.00
    8    7   21     -1.02      0.00
    9    7   21      2.51      0.00
   10    7   21      0.36      0.00
   11    7   21     -0.80      0.00
  -10    8   21      1.55      0.00
   -9    8   21      0.09      0.00
   -8    8   21     -1.25      0.00
   -7    8   21      0.12      0.00
   -6    8   21      0.32      0.00
   -5    8   21     -1.75      0.00
   -4    8   21      2.20      0.00
   -3    8   21     -0.51      0.00
   -2    8   21     -0.59      0.00
   -1    8   21      1.97      0.00
    0    8   21      0.11      0.00
    1    8   21     -0.72      0.00
    2    8   21     -0.76      0.00
    3    8   21      0.75      0.00
    4    8   21     -1.04      0.00
    5    8   21     -0.63      0.00
    6    8   21      1.35      0.00
    7    8   21      0.09      0.00
    8    8   21      0.33      0.00
    9    8   21      1.16      0.00
   10    8   21      0.77      0.00
   -9    9   21     -1.53      0.00
   -8    9   21      0.29      0.00
   -7    9   21      0.78      0.00
   -6    9   21     -0.51      0.00
   -5    9   21     -0.41      0.00
   -4    9   21     -0.49      0.00
   -3    9   21      2.47      0.00
   -2    9   21     -0.12      0.00
   -1    9   21     -2.08      0.00
    0    9   21      3.18      0.00
    1    9   21      1.23      0.00
    2    9   21     -2.07      0.00
    3    9   21     -0.27      0.00
    4    9   21     -0.85      0.00
    5    9   21     -1.27      0.00
    6    9   21      0.87      0.00
    7    9   21      1.73      0.00
    8    9   21      0.01      0.00
    9    9   21     -1.00      0.00
   -8   10   21     -1.44      0.00
   -7   10   21      1.17      0.00
   -6   10   21      0.16      0.00
   -5   10   21     -1.28      0.00
   -4   10   21      1.63      0.00
   -3   10   21      1.06      0.00
   -2   10   21     -1.33      0.00
   -1   10   21      0.24      0.00
    0   10   21     -0.84      0.00
    1   10   21      0.25      0.00
    2   10   21      1.80      0.00
    3   10   21     -0.87      0.00
    4   10   21      0.40      0.00
    5   10   21     -0.06      0.00
    6   10   21     -1.01      0.00
    7   10   21      0.58      0.00
    8   10   21     -0.44      0.00
   -7   11   21     -1.25      0.00
   -6   11   21     -0.08      0.00
   -5   11   21      2.39      0.00
   -4   11   21     -0.07      0.00
   -3   11   21     -2.09      0.00
   -2   11   21     -0.16      0.00
   -1   11   21      0.21      0.00
    0   11   21     -1.06      0.00
    1   11   21     -1.28      0.00
    2   11   21      0.33      0.00
    3   11   21      2.49      0.00
    4   11   21      1.43      0.00
    5   11   21      0.72      0.00
    6   11   21     -1.10      0.00
    7   11   21     -2.00      0.00
   -6   12   21      0.41      0.00
   -5   12   21      0.69      0.00
   -4   12   21     -0.43      0.00
   -3   12   21     -0.30      0.00
   -2   12   21      0.32      0.00
   -1   12   21     -2.65      0.00
    0   12   21     -1.39      0.00
    1   12   21      0.92      0.00
    2   12   21      0.43      0.00
    3   12   21      0.68      0.00
    4   12   21      1.39      0.00
    5   12   21      0.31      0.00
    6   12   21     -0.42      0.00
   -3   13   21      1.92      0.00
   -2   13   21     -0.61      0.00
   -1   13   21     -1.40      0.00
    0   13   21     -1.81      0.00
    1   13   21      0.21      0.00
    2   13   21      1.17      0.00
    3   13   21     -0.19      0.00
  -12    0   22     -2.06      0.00
  -10    0   22      1.03      0.00
   -8    0   22     -2.52      0.00
   -6    0   22      1.82      0.00
   -4    0   22     -0.24      0.00
   -2    0   22      0.54      0.00
    0    0   22     -1.87      0.00
    2    0   22      3.19      0.00
    4    0   22     -1.37      0.00
    6    0   22     -0.62      0.00
    8    0   22      0.42      0.00
   10    0   22      1.66      0.00
   12    0   22     -0.88      0.00
  -12    1   22     -0.27      0.00
  -11    1   22     -0.84      0.00
  -10    1   22      2.52      0.00
   -9    1   22     -0.67      0.00
   -8    1   22     -2.30      0.00
   -7    1   22     -0.43      0.00
   -6    1   22      2.05      0.00
   -5    1   22      1.61      0.00
   -4    1   22     -4.14      0.00
   -3    1   22     -1.83      0.00
   -2    1   22      3.24      0.00
   -1    1   22      1.21      0.00
    0    1   22     -2.70      0.00
    1    1   22     -1.14      0.00
    2    1   22      1.70      0.00
    3    1   22      1.31      0.00
    4    1   22     -0.18      0.00
    5    1   22     -0.44      0.00
    6    1   22      0.65      0.00
    7    1   22     -0.28      0.00
    8    1   22     -0.54      0.00
    9    1   22      1.44      0.00
   10    1   22     -1.30      0.00
   11    1   22     -0.95      0.00
   12    1   22      0.68      0.00
  -12    2   22      2.48      0.00
  -11    2   22      0.06      0.00
  -10    2   22     -2.15      0.00
   -9    2   22      0.77      0.00
   -8    2   22      0.92      0.00
   -7    2   22      0.50      0.00
   -6    2   22     -0.52      0.00
   -5    2   22     -1.15      0.00
   -4    2   22      0.03      0.00
   -3    2   22     -1.14      0.00
   -2    2   22     -0.37      0.00
   -1    2   22      0.25      0.00
    0    2   22     -0.46      0.00
    1    2   22      0.70      0.00
    2    2   22     -0.12      0.00
    3    2   22      0.33      0.00
    4    2   22      0.42      0.00
    5    2   22      0.91      0.00
    6    2   22      0.72      0.00
    7    2   22     -1.35      0.00
    8    2   22     -0.38      0.00
    9    2   22     -0.31      0.00
   10    2   22     -0.30      0.00
   11    2   22     -0.30      0.00
   12    2   22      0.00      0.00
  -11    3   22      1.70      0.00
  -10    3   22      0.04      0.00
   -9    3   22      0.76      0.00
   -8    3   22      0.53      0.00
   -7    3   22      0.84      0.00
   -6    3   22      0.24      0.00
   -5    3   22     -3.02      0.00
   -4    3   22     -0.11      0.00
   -3    3   22      2.65      0.00
   -2    3   22     -2.50      0.00
   -1    3   22     -2.15      0.00
    0    3   22      3.16      0.00
    1    3   22      0.82      0.00
    2    3   22     -0.23      0.00
    3    3   22      0.03      0.00
    4    3   22      0.74      0.00
    5    3   22     -0.58      0.00
    6    3   22      0.17      0.00
    7    3   22      1.76      0.00
    8    3   22     -1.42      0.00
    9    3   22     -2.45      0.00
   10    3   22     -0.84      0.00
   11    3   22      0.74      0.00
  -11    4   22     -1.53      0.00
  -10    4   22      3.71      0.00
   -9    4   22      0.68      0.00
   -8    4   22      0.98      0.00
   -7    4   22      0.95      0.00
   -6    4   22     -0.43      0.00
   -5    4   22     -1.43      0.00
   -4    4   22     -0.06      0.00
   -3    4   22     -0.07      0.00
   -2    4   22     -1.83      0.00
   -1    4   22      0.88      0.00
    0    4   22      3.21      0.00
    1    4   22      1.58      0.00
    2    4   22     -2.38      0.00
    3    4   22     -0.17      0.00
    4    4   22      0.48      0.00
    5    4   22     -0.01      0.00
    6    4   22      0.21      0.00
    7    4   22     -0.96      0.00
    8    4   22      0.03      0.00
    9    4   22      0.00      0.00
   10    4   22     -1.63      0.00
   11    4   22      0.32      0.00
  -11    5   22     -0.78      0.00
  -10    5   22     -1.33      0.00
   -9    5   22      0.36      0.00
   -8    5   22      0.41      0.00
   -7    5   22      0.16      0.00
   -6    5   22     -0.47      0.00
   -5    5   22      2.03      0.00
   -4    5   22      0.80      0.00
   -3    5   22     -1.28      0.00
   -2    5   22     -0.75      0.00
   -1    5   22     -0.84      0.00
    0    5   22      1.80      0.00
    1    5   22      2.63      0.00
    2    5   22      0.02      0.00
    3    5   22     -2.82      0.00
    4    5   22     -1.42      0.00
    5    5   22      1.87      0.00
    6    5   22     -1.40      0.00
    7    5   22     -1.93      0.00
    8    5   22      1.69      0.00
    9    5   22      0.13      0.00
   10    5   22      0.66      0.00
   11    5   22      0.78      0.00
  -10    6   22     -1.06      0.00
   -9    6   22      0.34      0.00
   -8    6   22     -0.84      0.00
   -7    6   22     -1.87      0.00
   -6    6   22     -0.25      0.00
   -5    6   22      2.88      0.00
   -4    6   22      0.51      0.00
   -3    6   22     -0.81      0.00
   -2    6   22      2.24      0.00
   -1    6   22     -1.07      0.00
    0    6   22     -1.85      0.00
    1    6   22      0.20      0.00
    2    6   22      1.37      0.00
    3    6   22     -0.39      0.00
    4    6   22     -1.55      0.00
    5    6   22     -2.47      0.00
    6    6   22      0.42      0.00
    7    6   22      2.40      0.00
    8    6   22     -1.42      0.00
    9    6   22     -0.32      0.00
   10    6   22      1.98      0.00
  -10    7   22      1.11      0.00
   -9    7   22      1.34      0.00
   -8    7   22     -0.28      0.00
   -7    7   22     -2.26      0.00
   -6    7   22      1.39      0.00
   -5    7   22     -1.21      0.00
   -4    7   22     -1.15      0.00
   -3    7   22      1.59      0.00
   -2    7   22      0.22      0.00
   -1    7   22      2.38      0.00
    0    7   22     -1.59      0.00
    1    7   22     -1.76      0.00
    2    7   22     -0.20      0.00
    3    7   22      0.85      0.00
    4    7   22      0.16      0.00
    5    7   22     -1.81      0.00
    6    7   22      0.10      0.00
    7    7   22      1.14      0.00
    8    7   22     -0.18      0.00
    9    7   22      0.22      0.00
   10    7   22      0.16      0.00
   -9    8   22     -1.11      0.00
   -8    8   22     -1.42      0.00
   -7    8   22      0.87      0.00
   -6    8   22      0.08      0.00
   -5    8   22     -0.02      0.00
   -4    8   22     -1.44      0.00
   -3    8   22     -0.30      0.00
   -2    8   22      2.37      0.00
   -1    8   22     -0.69      0.00
    0    8   22     -0.83      0.00
    1    8   22      0.92      0.00
    2    8   22     -0.08      0.00
    3    8   22     -0.73      0.00
    4    8   22      0.68      0.00
    5    8   22      0.74      0.00
    6    8   22     -0.64      0.00
    7    8   22     -0.03      0.00
    8    8   22      1.42      0.00
    9    8   22     -0.29      0.00
   -8    9   22     -1.10      0.00
   -7    9   22     -0.24      0.00
   -6    9   22      0.86      0.00
   -5    9   22     -0.20      0.00
   -4    9   22     -0.19      0.00
   -3    9   22      0.35      0.00
   -2    9   22      1.34      0.00
   -1    9   22      0.82      0.00
    0    9   22     -0.78      0.00
    1    9   22     -2.90      0.00
    2    9   22      0.45      0.00
    3    9   22      0.32      0.00
    4    9   22     -0.49      0.00
    5    9   22      2.44      0.00
    6    9   22      1.35      0.00
    7    9   22     -0.28      0.00
    8    9   22      0.18      0.00
   -7   10   22      0.35      0.00
   -6   10   22     -1.44      0.00
   -5   10   22      0.36      0.00
   -4   10   22      1.89      0.00
   -3   10   22      0.69      0.00
   -2   10   22     -0.91      0.00
   -1   10   22      1.00      0.00
    0   10   22     -0.06      0.00
    1   10   22     -1.76      0.00
    2   10   22     -2.45      0.00
    3   10   22     -0.39      0.00
    4   10   22      0.78      0.00
    5   10   22      1.87      0.00
    6   10   22      2.27      0.00
    7   10   22     -0.50      0.00
   -6   11   22     -0.26      0.00
   -5   11   22      0.53      0.00
   -4   11   22      1.21      0.00
   -3   11   22     -0.74      0.00
   -2   11   22      0.43      0.00
   -1   11   22      0.25      0.00
    0   11   22     -1.36      0.00
    1   11   22      0.27      0.00
    2   11   22     -0.25      0.00
    3   11   22     -0.64      0.00
    4   11   22      0.53      0.00
    5   11   22     -0.04      0.00
    6   11   22     -0.57      0.00
   -4   12   22     -1.92      0.00
   -3   12   22      0.16      0.00
   -2   12   22      0.91      0.00
   -1   12   22      0.29      0.00
    0   12   22     -0.01      0.00
    1   12   22     -1.01      0.00
    2   12   22      1.83      0.00
    3   12   22      1.01      0.00
    4   12   22     -1.00      0.00
  -11    0   23     -2.59      0.00
   -9    0   23      3.62      0.00
   -7    0   23     -1.87      0.00
   -5    0   23      4.41      0.00
   -3    0   23     -3.91      0.00
   -1    0   23      0.90      0.00
    1    0   23     -3.06      0.00
    3    0   23      1.34      0.00
    5    0   23      0.53      0.00
    7    0   23      1.33      0.00
    9    0   23      0.34      0.00
   11    0   23     -2.09      0.00
  -11    1   23      1.28      0.00
  -10    1   23     -1.57      0.00
   -9    1   23     -0.98      0.00
   -8    1   23      1.30      0.00
   -7    1   23      1.43      0.00
   -6    1   23      0.99      0.00
   -5    1   23      0.16      0.00
   -4    1   23      0.25      0.00
   -3    1   23     -0.33      0.00
   -2    1   23     -0.93      0.00
   -1    1   23     -0.87      0.00
    0    1   23     -1.29      0.00
    1    1   23      1.60      0.00
    2    1   23      0.07      0.00
    3    1   23     -1.32      0.00
    4    1   23      0.54      0.00
    5    1   23      0.54      0.00
    6    1   23      1.33      0.00
    7    1   23     -0.09      0.00
    8    1   23     -0.14      0.00
    9    1   23      0.38      0.00
   10    1   23     -0.51      0.00
   11    1   23     -1.00      0.00
  -11    2   23      0.32      0.00
  -10    2   23     -0.22      0.00
   -9    2   23     -2.00      0.00
   -8    2   23      0.90      0.00
   -7    2   23      1.24      0.00
   -6    2   23      0.96      0.00
   -5    2   23     -1.17      0.00
   -4    2   23     -0.97      0.00
   -3    2   23      2.54      0.00
   -2    2   23      0.71      0.00
   -1    2   23     -3.01      0.00
    0    2   23     -1.13      0.00
    1    2   23      1.67      0.00
    2    2   23      1.99      0.00
    3    2   23      0.05      0.00
    4    2   23     -0.45      0.00
    5    2   23      0.66      0.00
    6    2   23     -0.49      0.00
    7    2   23     -0.27      0.00
    8    2   23      0.65      0.00
    9    2   23      0.04      0.00
   10    2   23     -0.90      0.00
   11    2   23     -0.41      0.00
  -11    3   23     -3.64      0.00
  -10    3   23      0.29      0.00
   -9    3   23      1.13      0.00
   -8    3   23     -1.59      0.00
   -7    3   23      0.82      0.00
   -6    3   23      0.04      0.00
   -5    3   23     -0.12      0.00
   -4    3   23     -0.73      0.00
   -3    3   23     -0.40      0.00
   -2    3   23      1.16      0.00
   -1    3   23     -0.24      0.00
    0    3   23     -0.48      0.00
    1    3   23      2.34      0.00
    2    3   23      0.92      0.00
    3    3   23     -0.34      0.00
    4    3   23      0.56      0.00
    5    3   23     -0.47      0.00
    6    3   23     -1.26      0.00
    7    3   23     -0.45      0.00
    8    3   23     -0.48      0.00
    9    3   23      0.94      0.00
   10    3   23      0.44      0.00
   11    3   23     -0.82      0.00
  -10    4   23     -0.73      0.00
   -9    4   23     -1.16      0.00
   -8    4   23     -0.17      0.00
   -7    4   23      0.14      0.00
   -6    4   23     -0.79      0.00
   -5    4   23     -2.09      0.00
   -4    4   23      0.45      0.00
   -3    4   23      0.30      0.00
   -2    4   23     -0.12      0.00
   -1    4   23      1.86      0.00
    0    4   23      0.71      0.00
    1    4   23     -0.19      0.00
    2    4   23      1.61      0.00
    3    4   23      0.72      0.00
    4    4   23     -1.93      0.00
    5    4   23     -0.66      0.00
    6    4   23      1.06      0.00
    7    4   23     -3.03      0.00
    8    4   23     -1.25      0.00
    9    4   23      0.52      0.00
   10    4   23      0.40      0.00
  -10    5   23      0.94      0.00
   -9    5   23     -0.24      0.00
   -8    5   23      0.88      0.00
   -7    5   23     -0.92      0.00
   -6    5   23     -2.89      0.00
   -5    5   23     -1.11      0.00
   -4    5   23      1.49      0.00
   -3    5   23     -1.01      0.00
   -2    5   23      0.69      0.00
   -1    5   23      2.50      0.00
    0    5   23      0.88      0.00
    1    5   23     -1.68      0.00
    2    5   23     -0.18      0.00
    3    5   23      1.12      0.00
    4    5   23      0.12      0.00
    5    5   23     -0.89      0.00
    6    5   23     -3.00      0.00
    7    5   23      0.43      0.00
    8    5   23      0.75      0.00
    9    5   23     -1.56      0.00
   10    5   23      0.53      0.00
  -10    6   23      0.04      0.00
   -9    6   23      1.37      0.00
   -8    6   23      1.57      0.00
   -7    6   23     -0.86      0.00
   -6    6   23     -1.13      0.00
   -5    6   23      1.62      0.00
   -4    6   23     -0.75      0.00
   -3    6   23     -0.47      0.00
   -2    6   23     -2.17      0.00
   -1    6   23      1.59      0.00
    0    6   23      2.84      0.00
    1    6   23     -0.93      0.00
    2    6   23     -2.54      0.00
    3    6   23     -0.44      0.00
    4    6   23      1.52      0.00
    5    6   23     -1.13      0.00
    6    6   23     -1.18      0.00
    7    6   23      1.86      0.00
    8    6   23      0.77      0.00
    9    6   23     -0.20      0.00
   10    6   23      0.14      0.00
   -9    7   23      0.45      0.00
   -8    7   23     -1.45      0.00
   -7    7   23      0.14      0.00
   -6    7   23      1.72      0.00
   -5    7   23      0.39      0.00
   -4    7   23     -0.28      0.00
   -3    7   23     -0.12      0.00
   -2    7   23      0.05      0.00
   -1    7   23     -1.27      0.00
    0    7   23     -0.25      0.00
    1    7   23      0.04      0.00
    2    7   23      0.37      0.00
    3    7   23     -0.80      0.00
    4    7   23     -2.10      0.00
    5    7   23      1.01      0.00
    6    7   23      2.39      0.00
    7    7   23     -0.29      0.00
    8    7   23      0.49      0.00
    9    7   23      1.31      0.00
   -8    8   23     -0.97      0.00
   -7    8   23     -0.39      0.00
   -6    8   23      0.92      0.00
   -5    8   23     -0.48      0.00
   -4    8   23      0.21      0.00
   -3    8   23     -0.42      0.00
   -2    8   23      1.39      0.00
   -1    8   23      0.28      0.00
    0    8   23     -0.50      0.00
    1    8   23     -0.16      0.00
    2    8   23     -1.03      0.00
    3    8   23      0.04      0.00
    4    8   23     -1.22      0.00
    5    8   23     -0.75      0.00
    6    8   23      1.85      0.00
    7    8   23      1.19      0.00
    8    8   23      0.02      0.00
   -7    9   23      1.20      0.00
   -6    9   23      0.13      0.00
   -5    9   23     -0.95      0.00
   -4    9   23     -1.32      0.00
   -3    9   23      1.99      0.00
   -2    9   23      0.47      0.00
   -1    9   23      0.38      0.00
    0    9   23      0.18      0.00
    1    9   23     -0.11      0.00
    2    9   23     -0.37      0.00
    3    9   23     -0.72      0.00
    4    9   23     -0.07      0.00
    5    9   23     -0.97      0.00
    6    9   23      0.58      0.00
    7    9   23      1.22      0.00
   -6   10   23      0.21      0.00
   -5   10   23     -0.92      0.00
   -4   10   23      0.46      0.00
   -3   10   23      1.14      0.00
   -2   10   23      1.00      0.00
   -1   10   23     -0.95      0.00
    0   10   23     -2.44      0.00
    1   10   23      0.15      0.00
    2   10   23      1.64      0.00
    3   10   23     -0.04      0.00
    4   10   23      1.13      0.00
    5   10   23      1.35      0.00
    6   10   23     -1.64      0.00
   -5   11   23      1.27      0.00
   -4   11   23     -0.06      0.00
   -3   11   23     -0.68      0.00
   -2   11   23     -0.23      0.00
   -1   11   23     -0.79      0.00
    0   11   23      0.00      0.00
    1   11   23     -1.20      0.00
    2   11   23     -0.43      0.00
    3   11   23      2.58      0.00
    4   11   23      1.44      0.00
    5   11   23      0.22      0.00
   -2   12   23      0.44      0.00
   -1   12   23     -1.31      0.00
    0   12   23     -1.51      0.00
    1   12   23      1.22      0.00
    2   12   23      0.69      0.00
  -10    0   24      0.26      0.00
   -8    0   24     -1.49      0.00
   -6    0   24      0.71      0.00
   -4    0   24      0.78      0.00
   -2    0   24     -1.31      0.00
    0    0   24     -1.65      0.00
    2    0   24      1.99      0.00
    4    0   24     -0.57      0.00
    6    0   24      0.70      0.00
    8    0   24     -0.51      0.00
   10    0   24      0.33      0.00
  -10    1   24      3.25      0.00
   -9    1   24     -0.73      0.00
   -8    1   24     -2.49      0.00
   -7    1   24      0.15      0.00
   -6    1   24      2.57      0.00
   -5    1   24     -0.25      0.00
   -4    1   24     -4.42      0.00
   -3    1   24      0.43      0.00
   -2    1   24      1.14      0.00
   -1    1   24     -1.04      0.00
    0    1   24     -1.19      0.00
    1    1   24     -0.81      0.00
    2    1   24      2.02      0.00
    3    1   24      1.48      0.00
    4    1   24      0.75      0.00
    5    1   24      0.11      0.00
    6    1   24     -0.42      0.00
    7    1   24      0.31      0.00
    8    1   24     -0.81      0.00
    9    1   24     -0.85      0.00
   10    1   24     -0.82      0.00
  -10    2   24     -1.27      0.00
   -9    2   24      3.48      0.00
   -8    2   24      0.15      0.00
   -7    2   24     -0.98      0.00
   -6    2   24      0.35      0.00
   -5    2   24     -0.04      0.00
   -4    2   24     -0.24      0.00
   -3    2   24     -2.73      0.00
   -2    2   24     -0.45      0.00
   -1    2   24      0.46      0.00
    0    2   24     -0.28      0.00
    1    2   24      0.63      0.00
    2    2   24      0.73      0.00
    3    2   24      1.50      0.00
    4    2   24      0.80      0.00
    5    2   24      0.97      0.00
    6    2   24     -0.21      0.00
    7    2   24     -1.54      0.00
    8    2   24     -0.43      0.00
    9    2   24     -0.76      0.00
   10    2   24      0.05      0.00
  -10    3   24      0.76      0.00
   -9    3   24     -0.01      0.00
   -8    3   24      1.47      0.00
   -7    3   24      0.06      0.00
   -6    3   24      0.30      0.00
   -5    3   24      0.60      0.00
   -4    3   24     -0.34      0.00
   -3    3   24     -0.89      0.00
   -2    3   24     -2.30      0.00
   -1    3   24      0.01      0.00
    0    3   24      1.86      0.00
    1    3   24      0.84      0.00
    2    3   24      0.47      0.00
    3    3   24      0.76      0.00
    4    3   24      1.13      0.00
    5    3   24     -1.34      0.00
    6    3   24      0.05      0.00
    7    3   24      0.78      0.00
    8    3   24     -0.87      0.00
    9    3   24     -0.14      0.00
   10    3   24     -1.28      0.00
  -10    4   24      1.70      0.00
   -9    4   24     -0.66      0.00
   -8    4   24      0.45      0.00
   -7    4   24      2.13      0.00
   -6    4   24     -0.02      0.00
   -5    4   24     -2.09      0.00
   -4    4   24     -0.45      0.00
   -3    4   24      1.97      0.00
   -2    4   24      0.59      0.00
   -1    4   24     -1.61      0.00
    0    4   24      1.04      0.00
    1    4   24      1.10      0.00
    2    4   24     -1.30      0.00
    3    4   24      0.50      0.00
    4    4   24     -0.58      0.00
    5    4   24      0.14      0.00
    6    4   24     -0.13      0.00
    7    4   24     -0.95      0.00
    8    4   24      1.31      0.00
    9    4   24      0.33      0.00
   10    4   24     -1.01      0.00
   -9    5   24      0.02      0.00
   -8    5   24      0.62      0.00
   -7    5   24      0.60      0.00
   -6    5   24     -1.98      0.00
   -5    5   24     -0.39      0.00
   -4    5   24      2.08      0.00
   -3    5   24      1.84      0.00
   -2    5   24      0.36      0.00
   -1    5   24     -1.01      0.00
    0    5   24     -0.64      0.00
    1    5   24      1.55      0.00
    2    5   24      0.28      0.00
    3    5   24     -3.56      0.00
    4    5   24     -0.69      0.00
    5    5   24      0.47      0.00
    6    5   24     -2.00      0.00
    7    5   24     -0.25      0.00
    8    5   24      1.93      0.00
    9    5   24      0.65      0.00
   -9    6   24      0.49      0.00
   -8    6   24     -0.73      0.00
   -7    6   24     -2.80      0.00
   -6    6   24     -0.02      0.00
   -5    6   24      2.67      0.00
   -4    6   24      0.15      0.00
   -3    6   24     -0.73      0.00
   -2    6   24      2.00      0.00
   -1    6   24      0.53      0.00
    0    6   24     -0.54      0.00
    1    6   24     -0.71      0.00
    2    6   24     -0.56      0.00
    3    6   24      0.39      0.00
    4    6   24     -1.94      0.00
    5    6   24     -2.96      0.00
    6    6   24      0.88      0.00
    7    6   24      1.12      0.00
    8    6   24     -0.64      0.00
    9    6   24      1.28      0.00
   -8    7   24     -0.13      0.00
   -7    7   24     -1.45      0.00
   -6    7   24      0.59      0.00
   -5    7   24      0.62      0.00
   -4    7   24      0.37      0.00
   -3    7   24     -2.17      0.00
   -2    7   24     -0.71      0.00
   -1    7   24      3.57      0.00
    0    7   24     -0.25      0.00
    1    7   24     -1.17      0.00
    2    7   24     -0.04      0.00
    3    7   24      0.39      0.00
    4    7   24     -0.14      0.00
    5    7   24     -0.72      0.00
    6    7   24     -0.23      0.00
    7    7   24      1.14      0.00
    8    7   24     -0.18      0.00
   -7    8   24      0.79      0.00
   -6    8   24      0.10      0.00
   -5    8   24      0.65      0.00
   -4    8   24     -1.19      0.00
   -3    8   24     -0.36      0.00
   -2    8   24     -0.75      0.00
   -1    8   24     -0.18      0.00
    0    8   24      1.70      0.00
    1    8   24     -0.21      0.00
    2    8   24      0.39      0.00
    3    8   24     -0.91      0.00
    4    8   24      0.95      0.00
    5    8   24      1.56      0.00
    6    8   24     -0.24      0.00
    7    8   24      0.06      0.00
   -6    9   24      0.60      0.00
   -5    9   24     -0.66      0.00
   -4    9   24     -0.68      0.00
   -3    9   24      0.06      0.00
   -2    9   24      2.11      0.00
   -1    9   24      0.95      0.00
    0    9   24     -1.85      0.00
    1    9   24     -1.90      0.00
    2    9   24      0.21      0.00
    3    9   24      0.60      0.00
    4    9   24     -0.53      0.00
    5    9   24      2.06      0.00
    6    9   24      1.96      0.00
   -5   10   24     -0.40      0.00
   -4   10   24      0.86      0.00
   -3   10   24      1.41      0.00
   -2   10   24      0.47      0.00
   -1   10   24     -1.03      0.00
    0   10   24     -1.12      0.00
    1   10   24      0.53      0.00
    2   10   24     -1.40      0.00
    3   10   24     -0.44      0.00
    4   10   24      0.51      0.00
    5   10   24      0.73      0.00
   -2   11   24     -0.57      0.00
   -1   11   24     -0.62      0.00
    0   11   24     -0.34      0.00
    1   11   24     -0.05      0.00
    2   11   24      0.98      0.00
   -9    0   25      3.22      0.00
   -7    0   25     -1.85      0.00
   -5    0   25      4.51      0.00
   -3    0   25     -3.08      0.00
   -1    0   25     -0.52      0.00
    1    0   25     -2.35      0.00
    3    0   25      0.47      0.00
    5    0   25      2.71      0.00
    7    0   25     -0.37      0.00
    9    0   25      0.07      0.00
   -9    1   25     -0.69      0.00
   -8    1   25      2.07      0.00
   -7    1   25      0.76      0.00
   -6    1   25     -0.04      0.00
   -5    1   25     -0.65      0.00
   -4    1   25      1.03      0.00
   -3    1   25     -1.19      0.00
   -2    1   25     -1.07      0.00
   -1    1   25      0.90      0.00
    0    1   25     -0.91      0.00
    1    1   25      0.98      0.00
    2    1   25     -0.77      0.00
    3    1   25     -0.34      0.00
    4    1   25      0.99      0.00
    5    1   25     -0.23      0.00
    6    1   25      1.33      0.00
    7    1   25     -0.05      0.00
    8    1   25     -0.74      0.00
    9    1   25     -0.11      0.00
   -9    2   25     -2.38      0.00
   -8    2   25     -0.20      0.00
   -7    2   25      1.95      0.00
   -6    2   25     -0.93      0.00
   -5    2   25     -2.25      0.00
   -4    2   25      1.26      0.00
   -3    2   25      2.42      0.00
   -2    2   25     -1.89      0.00
   -1    2   25     -0.70      0.00
    0    2   25      1.22      0.00
    1    2   25      0.22      0.00
    2    2   25      1.25      0.00
    3    2   25      0.22      0.00
    4    2   25      0.15      0.00
    5    2   25     -0.41      0.00
    6    2   25     -1.43      0.00
    7    2   25     -0.06      0.00
    8    2   25     -0.60      0.00
    9    2   25      0.58      0.00
   -9    3   25      0.48      0.00
   -8    3   25     -2.44      0.00
   -7    3   25     -0.08      0.00
   -6    3   25      1.27      0.00
   -5    3   25      0.32      0.00
   -4    3   25     -3.06      0.00
   -3    3   25     -1.40      0.00
   -2    3   25      3.81      0.00
   -1    3   25      0.91      0.00
    0    3   25     -0.86      0.00
    1    3   25      1.83      0.00
    2    3   25      0.62      0.00
    3    3   25      0.32      0.00
    4    3   25     -0.25      0.00
    5    3   25     -1.57      0.00
    6    3   25     -1.08      0.00
    7    3   25     -0.56      0.00
    8    3   25     -0.20      0.00
    9    3   25      0.54      0.00
   -9    4   25     -0.15      0.00
   -8    4   25      0.35      0.00
   -7    4   25      0.27      0.00
   -6    4   25      0.43      0.00
   -5    4   25     -2.44      0.00
   -4    4   25     -1.32      0.00
   -3    4   25      0.33      0.00
   -2    4   25      0.82      0.00
   -1    4   25      2.24      0.00
    0    4   25      0.25      0.00
    1    4   25     -0.78      0.00
    2    4   25      2.95      0.00
    3    4   25      0.74      0.00
    4    4   25     -2.48      0.00
    5    4   25     -0.83      0.00
    6    4   25      0.28      0.00
    7    4   25     -1.38      0.00
    8    4   25     -0.38      0.00
    9    4   25     -0.41      0.00
   -8    5   25      1.56      0.00
   -7    5   25     -0.28      0.00
   -6    5   25     -3.02      0.00
   -5    5   25     -0.10      0.00
   -4    5   25      2.54      0.00
   -3    5   25      0.24      0.00
   -2    5   25     -1.75      0.00
   -1    5   25     -0.73      0.00
    0    5   25      1.27      0.00
    1    5   25      1.02      0.00
    2    5   25     -0.14      0.00
    3    5   25      0.28      0.00
    4    5   25      0.64      0.00
    5    5   25     -0.52      0.00
    6    5   25     -1.30      0.00
    7    5   25      0.57      0.00
    8    5   25     -0.25      0.00
   -8    6   25     -0.01      0.00
   -7    6   25     -0.50      0.00
   -6    6   25     -0.07      0.00
   -5    6   25      1.04      0.00
   -4    6   25      1.45      0.00
   -3    6   25      0.36      0.00
   -2    6   25     -3.18      0.00
   -1    6   25     -0.67      0.00
    0    6   25      1.44      0.00
    1    6   25      0.13      0.00
    2    6   25     -2.37      0.00
    3    6   25     -0.24      0.00
    4    6   25      1.02      0.00
    5    6   25      0.43      0.00
    6    6   25      0.29      0.00
    7    6   25      0.84      0.00
    8    6   25      1.30      0.00
   -7    7   25      0.47      0.00
   -6    7   25      1.60      0.00
   -5    7   25      0.58      0.00
   -4    7   25     -1.40      0.00
   -3    7   25      0.15      0.00
   -2    7   25      1.51      0.00
   -1    7   25     -1.95      0.00
    0    7   25     -0.39      0.00
    1    7   25     -1.31      0.00
    2    7   25      0.23      0.00
    3    7   25     -0.57      0.00
    4    7   25     -1.73      0.00
    5    7   25      1.28      0.00
    6    7   25      1.41      0.00
    7    7   25      0.27      0.00
   -6    8   25      0.60      0.00
   -5    8   25      0.38      0.00
   -4    8   25     -1.17      0.00
   -3    8   25     -2.35      0.00
   -2    8   25      1.68      0.00
   -1    8   25      2.98      0.00
    0    8   25     -0.66      0.00
    1    8   25     -1.00      0.00
    2    8   25     -1.30      0.00
    3    8   25     -0.13      0.00
    4    8   25      0.00      0.00
    5    8   25     -1.52      0.00
    6    8   25      0.97      0.00
   -5    9   25     -0.63      0.00
   -4    9   25     -1.59      0.00
   -3    9   25      0.45      0.00
   -2    9   25      0.92      0.00
   -1    9   25      2.10      0.00
    0    9   25     -0.88      0.00
    1    9   25     -0.31      0.00
    2    9   25      0.29      0.00
    3    9   25     -0.39      0.00
    4    9   25      0.11      0.00
    5    9   25     -0.43      0.00
   -3   10   25      1.38      0.00
   -2   10   25      1.18      0.00
   -1   10   25     -2.24      0.00
    0   10   25     -0.77      0.00
    1   10   25      0.48      0.00
    2   10   25      0.83      0.00
    3   10   25      0.46      0.00
   -8    0   26     -0.90      0.00
   -6    0   26      1.31      0.00
   -4    0   26     -0.45      0.00
   -2    0   26     -2.41      0.00
    0    0   26     -0.63      0.00
    2    0   26      1.25      0.00
    4    0   26      1.38      0.00
    6    0   26     -1.26      0.00
    8    0   26      0.47      0.00
   -8    1   26     -1.86      0.00
   -7    1   26     -0.07      0.00
   -6    1   26      2.13      0.00
   -5    1   26     -1.06      0.00
   -4    1   26     -3.73      0.00
   -3    1   26      1.44      0.00
   -2    1   26      1.29      0.00
   -1    1   26     -2.24      0.00
    0    1   26     -0.17      0.00
    1    1   26     -0.15      0.00
    2    1   26      0.76      0.00
    3    1   26      1.29      0.00
    4    1   26      1.76      0.00
    5    1   26      0.85      0.00
    6    1   26     -1.41      0.00
    7    1   26     -0.54      0.00
    8    1   26     -0.17      0.00
   -8    2   26      0.58      0.00
   -7    2   26     -1.35      0.00
   -6    2   26     -1.42      0.00
   -5    2   26      1.35      0.00
   -4    2   26      1.62      0.00
   -3    2   26     -3.00      0.00
   -2    2   26     -0.12      0.00
   -1    2   26      1.36      0.00
    0    2   26     -0.92      0.00
    1    2   26     -0.28      0.00
    2    2   26      0.58      0.00
    3    2   26      1.65      0.00
    4    2   26      0.66      0.00
    5    2   26      0.58      0.00
    6    2   26     -0.02      0.00
    7    2   26     -1.09      0.00
    8    2   26     -0.11      0.00
   -8    3   26      1.33      0.00
   -7    3   26     -0.22      0.00
   -6    3   26      0.14      0.00
   -5    3   26      1.33      0.00
   -4    3   26      0.41      0.00
   -3    3   26     -0.87      0.00
   -2    3   26     -1.35      0.00
   -1    3   26      1.01      0.00
    0    3   26      0.58      0.00
    1    3   26     -1.09      0.00
    2    3   26      0.19      0.00
    3    3   26      1.64      0.00
    4    3   26      0.30      0.00
    5    3   26     -1.96      0.00
    6    3   26      0.18      0.00
    7    3   26      1.26      0.00
    8    3   26      0.25      0.00
   -8    4   26     -0.42      0.00
   -7    4   26      1.67      0.00
   -6    4   26      0.28      0.00
   -5    4   26     -2.13      0.00
   -4    4   26     -1.03      0.00
   -3    4   26      3.51      0.00
   -2    4   26      2.50      0.00
   -1    4   26     -2.65      0.00
    0    4   26     -1.12      0.00
    1    4   26      0.70      0.00
    2    4   26     -0.02      0.00
    3    4   26     -0.68      0.00
    4    4   26     -1.44      0.00
    5    4   26     -0.02      0.00
    6    4   26      0.67      0.00
    7    4   26      0.00      0.00
    8    4   26      0.40      0.00
   -7    5   26     -0.53      0.00
   -6    5   26     -1.50      0.00
   -5    5   26     -0.16      0.00
   -4    5   26      1.72      0.00
   -3    5   26      1.39      0.00
   -2    5   26      0.30      0.00
   -1    5   26     -0.14      0.00
    0    5   26     -1.27      0.00
    1    5   26      2.07      0.00
    2    5   26      0.47      0.00
    3    5   26     -3.67      0.00
    4    5   26     -1.49      0.00
    5    5   26     -0.04      0.00
    6    5   26      0.13      0.00
    7    5   26     -0.19      0.00
   -6    6   26      0.17      0.00
   -5    6   26      2.09      0.00
   -4    6   26      0.57      0.00
   -3    6   26     -2.31      0.00
   -2    6   26      0.22      0.00
   -1    6   26      1.10      0.00
    0    6   26      1.77      0.00
    1    6   26     -0.40      0.00
    2    6   26     -1.20      0.00
    3    6   26      0.86      0.00
    4    6   26     -1.35      0.00
    5    6   26     -1.18      0.00
    6    6   26     -0.21      0.00
   -6    7   26      0.05      0.00
   -5    7   26      0.21      0.00
   -4    7   26      0.92      0.00
   -3    7   26     -1.72      0.00
   -2    7   26     -2.16      0.00
   -1    7   26      1.79      0.00
    0    7   26      0.93      0.00
    1    7   26     -0.45      0.00
    2    7   26      0.58      0.00
    3    7   26      0.17      0.00
    4    7   26      1.20      0.00
    5    7   26      0.08      0.00
    6    7   26     -1.17      0.00
   -4    8   26     -1.18      0.00
   -3    8   26      0.87      0.00
   -2    8   26     -1.06      0.00
   -1    8   26     -0.33      0.00
    0    8   26      0.51      0.00
    1    8   26     -0.52      0.00
    2    8   26      0.83      0.00
    3    8   26      0.06      0.00
    4    8   26      0.75      0.00
   -2    9   26      3.53      0.00
   -1    9   26     -0.05      0.00
    0    9   26     -2.72      0.00
    1    9   26     -0.84      0.00
    2    9   26     -0.31      0.00
   -7    0   27     -1.01      0.00
   -5    0   27      2.01      0.00
   -3    0   27     -2.88      0.00
   -1    0   27      0.72      0.00
    1    0   27     -0.93      0.00
    3    0   27     -0.41      0.00
    5    0   27      1.57      0.00
    7    0   27     -0.42      0.00
   -7    1   27      0.83      0.00
   -6    1   27     -0.68      0.00
   -5    1   27     -2.12      0.00
   -4    1   27      0.98      0.00
   -3    1   27      0.19      0.00
   -2    1   27     -0.94      0.00
   -1    1   27      0.62      0.00
    0    1   27      0.11      0.00
    1    1   27      0.55      0.00
    2    1   27     -0.86      0.00
    3    1   27      0.57      0.00
    4    1   27      0.48      0.00
    5    1   27     -1.36      0.00
    6    1   27      0.34      0.00
    7    1   27      0.62      0.00
   -7    2   27      0.50      0.00
   -6    2   27     -1.06      0.00
   -5    2   27     -0.85      0.00
   -4    2   27      1.53      0.00
   -3    2   27      1.88      0.00
   -2    2   27     -2.11      0.00
   -1    2   27     -0.21      0.00
    0    2   27      1.23      0.00
    1    2   27     -0.33      0.00
    2    2   27      0.72      0.00
    3    2   27      0.70      0.00
    4    2   27      0.95      0.00
    5    2   27     -1.17      0.00
    6    2   27     -2.43      0.00
    7    2   27      0.24      0.00
   -7    3   27     -0.99      0.00
   -6    3   27      1.08      0.00
   -5    3   27      2.05      0.00
   -4    3   27     -2.25      0.00
   -3    3   27     -2.51      0.00
   -2    3   27      3.27      0.00
   -1    3   27      0.85      0.00
    0    3   27     -0.98      0.00
    1    3   27      0.79      0.00
    2    3   27      1.10      0.00
    3    3   27      0.83      0.00
    4    3   27     -0.51      0.00
    5    3   27     -1.27      0.00
    6    3   27     -0.51      0.00
    7    3   27      0.13      0.00
   -6    4   27      0.44      0.00
   -5    4   27     -1.57      0.00
   -4    4   27     -0.31      0.00
   -3    4   27      0.62      0.00
   -2    4   27     -0.39      0.00
   -1    4   27      1.07      0.00
    0    4   27     -0.50      0.00
    1    4   27     -0.54      0.00
    2    4   27      3.13      0.00
    3    4   27      0.73      0.00
    4    4   27     -1.87      0.00
    5    4   27     -0.61      0.00
    6    4   27      0.93      0.00
   -6    5   27     -0.79      0.00
   -5    5   27     -0.17      0.00
   -4    5   27      1.64      0.00
   -3    5   27      1.26      0.00
   -2    5   27     -2.03      0.00
   -1    5   27     -2.09      0.00
    0    5   27      1.04      0.00
    1    5   27      1.85      0.00
    2    5   27     -1.23      0.00
    3    5   27     -0.23      0.00
    4    5   27      0.81      0.00
    5    5   27      0.85      0.00
    6    5   27      0.12      0.00
   -5    6   27      0.89      0.00
   -4    6   27      0.40      0.00
   -3    6   27     -0.66      0.00
   -2    6   27     -0.69      0.00
   -1    6   27     -0.36      0.00
    0    6   27      0.59      0.00
    1    6   27     -0.45      0.00
    2    6   27     -2.04      0.00
    3    6   27     -0.86      0.00
    4    6   27      0.52      0.00
    5    6   27      1.66      0.00
   -4    7   27     -1.49      0.00
   -3    7   27     -0.16      0.00
   -2    7   27      1.12      0.00
   -1    7   27     -0.42      0.00
    0    7   27      0.10      0.00
    1    7   27     -1.56      0.00
    2    7   27     -0.04      0.00
    3    7   27     -0.67      0.00
    4    7   27     -0.63      0.00
   -1    8   27      2.70      0.00
    0    8   27     -0.40      0.00
    1    8   27      0.26      0.00
   -6    0   28      0.80      0.00
   -4    0   28     -1.21      0.00
   -2    0   28      0.10      0.00
    0    0   28     -1.08      0.00
    2    0   28     -0.01      0.00
    4    0   28      1.57      0.00
    6    0   28     -0.89      0.00
   -6    1   28      0.04      0.00
   -5    1   28     -0.97      0.00
   -4    1   28     -1.37      0.00
   -3    1   28      1.44      0.00
   -2    1   28      1.28      0.00
   -1    1   28     -1.05      0.00
    0    1   28     -0.04      0.00
    1    1   28     -0.93      0.00
    2    1   28      0.26      0.00
    3    1   28      0.67      0.00
    4    1   28      0.64      0.00
    5    1   28      1.20      0.00
    6    1   28     -0.55      0.00
   -6    2   28     -1.48      0.00
   -5    2   28      1.16      0.00
   -4    2   28      2.35      0.00
   -3    2   28     -1.92      0.00
   -2    2   28     -0.76      0.00
   -1    2   28      0.89      0.00
    0    2   28     -0.40      0.00
    1    2   28     -0.19      0.00
    2    2   28      0.16      0.00
    3    2   28      0.98      0.00
    4    2   28      0.02      0.00
    5    2   28     -0.23      0.00
    6    2   28      0.11      0.00
   -5    3   28      1.10      0.00
   -4    3   28     -0.44      0.00
   -3    3   28     -0.52      0.00
   -2    3   28     -0.53      0.00
   -1    3   28      0.48      0.00
    0    3   28      0.01      0.00
    1    3   28     -0.71      0.00
    2    3   28      0.29      0.00
    3    3   28      1.05      0.00
    4    3   28     -0.37      0.00
    5    3   28     -2.00      0.00
   -5    4   28     -0.31      0.00
   -4    4   28     -1.68      0.00
   -3    4   28      1.85      0.00
   -2    4   28      2.09      0.00
   -1    4   28     -1.56      0.00
    0    4   28     -1.07      0.00
    1    4   28      0.85      0.00
    2    4   28      0.51      0.00
    3    4   28     -1.18      0.00
    4    4   28     -1.09      0.00
    5    4   28     -0.08      0.00
   -4    5   28      2.03      0.00
   -3    5   28     -0.30      0.00
   -2    5   28     -0.57      0.00
   -1    5   28      0.64      0.00
    0    5   28     -0.41      0.00
    1    5   28      1.62      0.00
    2    5   28      0.27      0.00
    3    5   28     -1.67      0.00
    4    5   28     -1.38      0.00
   -2    6   28      0.10      0.00
   -1    6   28      0.25      0.00
    0    6   28      1.37      0.00
    1    6   28     -0.83      0.00
    2    6   28     -0.37      0.00
   -3    0   29     -1.14      0.00
   -1    0   29      0.18      0.00
    1    0   29     -0.63      0.00
    3    0   29      0.75      0.00
   -4    1   29      0.88      0.00
   -3    1   29      0.89      0.00
   -2    1   29     -0.57      0.00
   -1    1   29     -0.55      0.00
    0    1   29     -0.37      0.00
    1    1   29      0.31      0.00
    2    1   29     -0.18      0.00
    3    1   29      0.40      0.00
    4    1   29      0.46      0.00
   -3    2   29      0.56      0.00
   -2    2   29     -0.86      0.00
   -1    2   29      0.10      0.00
    0    2   29     -0.25      0.00
    1    2   29     -0.32      0.00
    2    2   29      0.92      0.00
    3    2   29      0.17      0.00
   -3    3   29     -1.70      0.00
   -2    3   29      1.48      0.00
   -1    3   29      0.50      0.00
    0    3   29      0.21      0.00
    1    3   29      0.10      0.00
    2    3   29      0.46      0.00
    3    3   29      0.41      0.00
   -2    4   29     -0.59      0.00
   -1    4   29      0.49      0.00
    0    4   29     -0.49      0.00
    1    4   29      0.13      0.00
    2    4   29      1.20      0.00
    2    0    0   -140.43      0.00
    1    1    0     37.67      0.00
    0    2    0    -83.62      0.00
    1    3    0    -28.89      0.00
   18    3    0      0.42      0.00
   17    7    0     -1.94      0.00
   15   11    0      0.42      0.00
    3   19    0      0.57      0.00
   -1    0    1     42.93      0.00
    1    0    1    -43.12      0.00
   -3    1    1    -56.33      0.00
   -1    1    1    162.88      0.00
    0    1    1     -0.70      0.00
    1    1    1   -152.76      0.00
    3    1    1     47.38      0.00
  -18    3    1     -2.26      0.00
   18    3    1     -1.27      0.00
  -17    7    1     -1.00      0.00
   17    7    1      1.90      0.00
  -15   11    1     -1.12      0.00
   15   11    1      1.00      0.00
   -3   19    1      0.68      0.00
    3   19    1      1.17      0.00
    0    0    2    168.76      0.00
    0    1    2    -65.49      0.00
  -18    3    2      0.55      0.00
   18    3    2      0.26      0.00
  -17    7    2     -2.48      0.00
   17    7    2      1.04      0.00
  -15   11    2     -0.04      0.00
   15   11    2      0.11      0.00
  -10   16    2      1.05      0.00
   10   16    2     -0.85      0.00
   -3   19    2      0.46      0.00
    3   19    2     -0.22      0.00
   -1    0    3     71.96      0.00
    1    0    3    -52.79      0.00
   -1    2    3    -29.66      0.00
  -18    3    3     -0.03      0.00
   -1    3    3      9.75      0.00
   18    3    3      0.96      0.00
  -17    7    3     -0.20      0.00
   17    7    3      0.90      0.00
  -16    9    3     -0.08      0.00
   16    9    3      0.64      0.00
  -10   16    3      0.64      0.00
   10   16    3     -0.13      0.00
   -3   19    3      1.22      0.00
   -2   19    3     -0.16      0.00
    2   19    3      0.36      0.00
    3   19    3      0.42      0.00
  -18    2    4      0.20      0.00
    0    2    4     -9.24      0.00
   18    2    4      0.24      0.00
  -16    9    4     -0.28      0.00
   16    9    4      0.05      0.00
  -14   12    4      0.43      0.00
   14   12    4     -1.21      0.00
  -10   16    4      0.76      0.00
   10   16    4     -0.27      0.00
   -6   18    4     -0.47      0.00
    6   18    4      0.13      0.00
   -2   19    4     -1.39      0.00
    2   19    4      1.62      0.00
  -18    1    5      0.72      0.00
   18    1    5      1.31      0.00
  -14   12    5      0.56      0.00
   14   12    5     -0.36      0.00
  -11   15    5     -0.18      0.00
   11   15    5      0.12      0.00
   -8   17    5      0.14      0.00
    8   17    5      0.60      0.00
   -6   18    5      1.73      0.00
    6   18    5      0.19      0.00
   -1   19    5      0.16      0.00
    0   19    5     -0.45      0.00
    1   19    5     -0.12      0.00
  -17    6    6      1.00      0.00
   17    6    6      1.93      0.00
  -13   13    6     -0.64      0.00
   13   13    6      0.00      0.00
  -12   14    6     -0.72      0.00
   12   14    6      0.15      0.00
  -11   15    6     -0.72      0.00
   11   15    6      0.55      0.00
   -8   17    6      0.08      0.00
  -16    8    7     -1.40      0.00
   16    8    7      0.25      0.00
  -15   10    7     -0.51      0.00
   15   10    7      1.23      0.00
   -5   18    7     -0.63      0.00
    5   18    7     -0.27      0.00
  -17    5    8      1.94      0.00
   17    5    8      1.51      0.00
   -9   16    8     -1.30      0.00
    9   16    8      0.51      0.00
   -7   17    8     -0.93      0.00
    7   17    8      2.08      0.00
  -17    4    9      0.01      0.00
   17    4    9      0.47      0.00
  -14   11    9      0.97      0.00
   14   11    9      1.27      0.00
  -10   15    9      0.56      0.00
   10   15    9      1.52      0.00
  -17    3   10     -1.62      0.00
   17    3   10     -0.33      0.00
  -15    9   10     -0.24      0.00
   15    9   10      0.06      0.00
  -13   12   10      0.57      0.00
   13   12   10      0.58      0.00
  -12   13   10     -0.25      0.00
   12   13   10      1.07      0.00
  -11   14   10      0.46      0.00
   11   14   10      0.76      0.00
   -6   17   10      0.70      0.00
    6   17   10      0.50      0.00
   -2   18   10     -0.49      0.00
    2   18   10      0.20      0.00
  -17    0   11      1.02      0.00
   17    0   11     -1.95      0.00
  -17    1   11     -0.13      0.00
   17    1   11     -1.05      0.00
  -16    6   11      0.41      0.00
   16    6   11     -0.62      0.00
   -1   18   11     -0.31      0.00
    0   18   11     -0.45      0.00
    1   18   11     -0.08      0.00
  -16    5   12     -2.96      0.00
   16    5   12     -0.56      0.00
  -15    8   12      1.21      0.00
   15    8   12      0.43      0.00
   13   11   12      0.14      0.00
   -9   15   12     -0.68      0.00
    9   15   12      0.10      0.00
   -7   16   12     -1.05      0.00
    7   16   12      0.79      0.00
  -16    4   13     -0.13      0.00
   16    4   13     -0.50      0.00
  -15    7   13      0.89      0.00
   15    7   13      2.16      0.00
  -14    9   13     -0.47      0.00
   14    9   13      0.96      0.00
  -12   12   13      0.71      0.00
   12   12   13      0.47      0.00
  -11   13   13      1.75      0.00
   11   13   13      1.43      0.00
  -16    2   14     -1.61      0.00
   16    2   14      0.30      0.00
  -16    3   14      1.82      0.00
  -13   10   14     -0.51      0.00
   13   10   14      1.41      0.00
   -2   17   14      0.63      0.00
   -1   17   14     -0.70      0.00
    0   17   14     -0.12      0.00
    1   17   14     -0.02      0.00
    2   17   14     -0.22      0.00
   15    5   15     -1.67      0.00
  -12   11   15      0.82      0.00
   12   11   15      1.18      0.00
  -11   12   15      0.29      0.00
   11   12   15      0.86      0.00
  -10   13   15      0.51      0.00
   10   13   15     -1.06      0.00
   -7   15   15     -0.01      0.00
    7   15   15      1.16      0.00
  -15    4   16     -0.83      0.00
   15    4   16     -0.87      0.00
  -14    7   16      1.73      0.00
   14    7   16     -1.16      0.00
  -13    9   16      0.69      0.00
   -8   14   16     -1.77      0.00
    8   14   16      0.85      0.00
   -6   15   16     -0.54      0.00
    6   15   16     -0.05      0.00
   -3   16   16     -0.13      0.00
    3   16   16     -0.52      0.00
  -15    0   17      0.87      0.00
   15    0   17     -0.22      0.00
  -15    1   17     -0.64      0.00
   15    1   17      0.69      0.00
  -15    2   17      1.88      0.00
   15    2   17      1.48      0.00
  -14    6   17      0.91      0.00
   14    6   17      0.12      0.00
  -13    8   17     -3.46      0.00
   13    8   17     -1.87      0.00
  -11   11   17     -0.06      0.00
  -10   12   17      2.66      0.00
   10   12   17     -0.71      0.00
   -7   14   17      0.46      0.00
    7   14   17      0.51      0.00
   -5   15   17      0.19      0.00
    5   15   17      0.05      0.00
  -13    7   18     -0.85      0.00
   13    7   18      0.51      0.00
  -12    9   18      2.34      0.00
   11   10   18     -2.60      0.00
   -8   13   18     -0.66      0.00
    8   13   18      1.51      0.00
   -6   14   18     -0.10      0.00
    6   14   18     -0.29      0.00
    3   15   18      0.35      0.00
   14    1   19      0.48      0.00
  -14    2   19     -2.24      0.00
   14    2   19     -0.68      0.00
  -13    6   19     -0.80      0.00
   13    6   19      0.75      0.00
  -12    8   19      0.53      0.00
   12    8   19     -0.06      0.00
   -7   13   19      0.20      0.00
    7   13   19      0.65      0.00
   -5   14   19      1.26      0.00
    5   14   19     -0.13      0.00
    0   15   19      0.17      0.00
  -13    4   20     -0.15      0.00
   13    4   20      0.52      0.00
  -12    7   20     -0.28      0.00
   12    7   20      0.20      0.00
   -6   13   20     -0.16      0.00
    6   13   20     -0.52      0.00
   -3   14   20     -0.79      0.00
    3   14   20      0.36      0.00
  -13    0   21     -0.89      0.00
   13    0   21      0.76      0.00
  -13    1   21     -1.91      0.00
   13    1   21     -0.39      0.00
  -13    2   21      0.01      0.00
   13    2   21     -0.10      0.00
  -10    9   21     -0.89      0.00
   10    9   21      1.44      0.00
   -9   10   21     -0.56      0.00
    9   10   21     -0.49      0.00
   -8   11   21      0.82      0.00
    8   11   21      0.03      0.00
   -4   13   21      0.46      0.00
    4   13   21      0.11      0.00
  -12    3   22      0.16      0.00
   12    3   22      1.14      0.00
  -11    6   22     -0.42      0.00
   11    6   22      0.48      0.00
   -9    9   22     -0.38      0.00
    9    9   22     -0.26      0.00
   -8   10   22      0.94      0.00
    8   10   22     -1.19      0.00
   -5   12   22     -0.15      0.00
    5   12   22     -1.06      0.00
   -2   13   22     -1.00      0.00
   -1   13   22     -0.55      0.00
    0   13   22      1.10      0.00
    1   13   22      1.52      0.00
    2   13   22     -0.32      0.00
  -11    4   23      2.12      0.00
   11    4   23      1.65      0.00
   -9    8   23     -0.12      0.00
    9    8   23      0.26      0.00
   -8    9   23     -0.13      0.00
    8    9   23     -0.47      0.00
   -7   10   23      0.65      0.00
    7   10   23     -1.03      0.00
   -3   12   23      0.14      0.00
    3   12   23     -0.56      0.00
  -11    1   24      0.05      0.00
   11    1   24      0.25      0.00
  -10    5   24     -2.24      0.00
   10    5   24      0.82      0.00
   -8    8   24     -0.42      0.00
    8    8   24      0.38      0.00
   -7    9   24     -0.04      0.00
    7    9   24     -0.86      0.00
   -3   11   24      0.42      0.00
    3   11   24     -0.08      0.00
  -10    1   25     -2.18      0.00
   10    1   25      0.31      0.00
  -10    2   25     -0.07      0.00
   10    2   25      0.91      0.00
   -9    5   25     -0.13      0.00
    9    5   25     -0.58      0.00
   -9    1   26      0.22      0.00
    9    1   26     -0.70      0.00
   -9    2   26      2.48      0.00
    9    2   26      0.41      0.00
   -7    6   26     -1.31      0.00
    7    6   26     -0.19      0.00
   -5    8   26      0.12      0.00
    5    8   26      1.00      0.00
   -3    9   26      0.27      0.00
    3    9   26      0.94      0.00
   -8    1   27      0.77      0.00
    8    1   27     -0.34      0.00
   -7    4   27      0.51      0.00
    7    4   27      0.06      0.00
   -2    8   27      0.42      0.00
    2    8   27     -0.85      0.00
   -6    3   28      1.07      0.00
    6    3   28      0.42      0.00
   -3    6   28     -0.80      0.00
    3    6   28      0.83      0.00
   -1    7   28      0.42      0.00
    0    7   28     -0.44      0.00
    1    7   28     -0.41      0.00
   -4    2   29      1.12      0.00
    4    2   29      0.66      0.00
   -4    3   29     -0.82      0.00
    4    3   29     -0.53      0.00
   -3    4   29      0.95      0.00
    3    4   29      0.29      0.00
   -1    5   29     -1.13      0.00
    0    5   29      0.81      0.00
    1    5   29      0.73      0.00
    0    0   30     -0.49      0.00
   -1    1   30      0.25      0.00
    0    1   30      0.11      0.00
    1    1   30     -0.98      0.00
    0    0    0      0.00      0.00
# SQUEEZE RESULTS (Version = 141217)
# Note: Data are Listed for all Voids in the P1 Unit Cell
# i.e. Centre of Gravity, Solvent Accessible Volume,
# Recovered number of Electrons in the Void and
# Details about the Squeezed Material
loop_
  _platon_squeeze_void_nr
  _platon_squeeze_void_average_x
  _platon_squeeze_void_average_y
  _platon_squeeze_void_average_z
  _platon_squeeze_void_volume
  _platon_squeeze_void_count_electrons
  _platon_squeeze_void_content
   1  0.250  0.251  1.050       299        60 ' '
   2  0.250  0.751  0.450       298        60 ' '
   3  0.750  0.249  0.550       299        60 ' '
   4  0.750  0.749  0.950       298        60 ' '
# Missing Reflections Below sin(th)/lambda = 0.25
loop_
  _platon_missing_refln_index_h
  _platon_missing_refln_index_k
  _platon_missing_refln_index_l
  _platon_missing_refln_theta
    2    0    0     2.663
    1    1    0     1.833
    0    2    0     2.522
    1    3    0     4.012
   -1    0    1     1.558
    1    0    1     1.559
   -3    1    1     4.268
   -1    1    1     2.004
    0    1    1     1.499
    1    1    1     2.005
    3    1    1     4.269
    0    0    2     1.621
    0    1    2     2.054
   -1    0    3     2.772
    1    0    3     2.774
   -1    2    3     3.749
   -1    3    3     4.693
    0    2    4     4.110
_platon_squeeze_void_probe_radius                  1.20
_platon_squeeze_details
)
TITL p         P 1 21/n 1   R = 0.04
CELL   15.2997   16.1519   25.1220     90.00     90.05     90.00
SPGR P21/n
# Solvent Accessible Volume =      1184
# Electrons Found in S.A.V. =       239
# Note: Atoms in Void are Labelled as Cxxx and Qxxx for all Others
C101 0.185 0.845 0.433 !       2.61 eA-3
C102 0.734 0.843 0.070 !       2.56 eA-3
C103 0.205 0.122 0.010 !       2.25 eA-3
C104 0.736 0.844 0.021 !       1.99 eA-3
C105 0.356 0.373 0.020 !       1.72 eA-3
C106 0.239 0.263 0.053 !       1.68 eA-3
C107 0.290 0.622 0.441 !       1.59 eA-3
C108 0.224 0.347 0.042 !       1.44 eA-3
C109 0.863 0.922 0.015 !       1.34 eA-3
C110 0.708 0.173 0.497 !       1.30 eA-3
C111 0.244 0.876 0.420 !       1.26 eA-3
C112 0.329 0.354 0.120 !       1.23 eA-3
C113 0.220 0.269 0.972 !       1.08 eA-3
C114 0.289 0.688 0.462 !       1.03 eA-3
C115 0.875 0.181 0.611 !       0.94 eA-3
C116 0.811 0.083 0.484 !       0.86 eA-3
C117 0.281 0.725 0.410 !       0.86 eA-3
C118 0.820 0.171 0.500 !       0.78 eA-3
Q119 0.229 0.167 0.368 !       0.69 eA-3
C120 0.384 0.672 0.471 !       0.66 eA-3
C121 0.406 0.318 0.035 !       0.63 eA-3
C122 0.393 0.639 0.486 !       0.58 eA-3
Q123 0.584 0.425 0.437 !       0.57 eA-3
C124 0.356 0.671 0.383 !       0.55 eA-3
Q125 0.153 0.782 0.137 !       0.52 eA-3
)
;
_shelx_fab_checksum              61160
_platon_squeeze_special_details
;
A solvent mask was calculated and 240 electrons were 
found in a volume of 1194\%A^3 in 2 voids. 
This is consistent with the presence of 
0.75[C3H7NO], 0.75[C3H7NO] per formula unit 
which account for 240 electrons.
;
_platon_squeeze_void_probe_radius 1.20
_olex2_submission_special_instructions 'No special instructions were received'
loop_
_space_group_symop_operation_xyz
'x, y, z'
'-x+1/2, y+1/2, -z+1/2'
'-x, -y, -z'
'x-1/2, -y-1/2, z-1/2'
loop_
_atom_site_label
_atom_site_type_symbol
_atom_site_fract_x
_atom_site_fract_y
_atom_site_fract_z
_atom_site_U_iso_or_equiv
_atom_site_adp_type
_atom_site_occupancy
_atom_site_site_symmetry_order
_atom_site_calc_flag
_atom_site_refinement_flags_posn
Co1 Co 0.31732(3) 0.69272(2) 0.15657(2) 0.02490(11) Uani 1 1 d .
Co2 Co 0.19817(3) 0.81574(2) 0.15614(2) 0.02413(11) Uani 1 1 d .
O1 O 0.23788(17) 0.64490(16) 0.10011(10) 0.0361(6) Uani 1 1 d .
O2 O 0.13752(18) 0.74513(15) 0.09952(11) 0.0369(6) Uani 1 1 d .
O3 O -0.12582(18) 0.73855(17) -0.28567(11) 0.0405(7) Uani 1 1 d .
O4 O -0.22377(18) 0.63575(16) -0.28571(10) 0.0394(7) Uani 1 1 d .
O5 O 0.23936(19) 0.64521(17) 0.21423(11) 0.0406(7) Uani 1 1 d .
O6 O 0.14114(19) 0.74753(17) 0.21371(11) 0.0408(7) Uani 1 1 d .
O7 O -0.12375(18) 0.73846(16) 0.59885(11) 0.0377(6) Uani 1 1 d .
O8 O -0.22422(16) 0.63847(15) 0.59793(10) 0.0333(6) Uani 1 1 d .
O9 O 0.0100(3) 0.52123(18) -0.09298(12) 0.0638(10) Uani 1 1 d .
O10 O -0.0015(2) 0.52417(18) 0.40116(11) 0.0555(9) Uani 1 1 d .
O11 O 0.5778(2) 0.3853(2) 0.03470(11) 0.0711(11) Uani 1 1 d .
O12 O 0.9050(3) 0.0964(3) 0.03470(13) 0.119(2) Uani 1 1 d .
N1 N 0.40459(19) 0.59840(17) 0.14587(11) 0.0320(7) Uani 1 1 d .
N2 N 0.5924(2) 0.4130(2) 0.12300(12) 0.0416(8) Uani 1 1 d D
H2 H 0.6226(19) 0.406(2) 0.1509(10) 0.028(9) Uiso 1 1 d D
N3 N 0.9237(2) 0.0981(2) 0.12373(12) 0.0434(9) Uani 1 1 d D
H3 H 0.908(3) 0.124(2) 0.1535(12) 0.061(13) Uiso 1 1 d D
N4 N 1.11064(19) -0.08859(17) 0.14621(11) 0.0312(7) Uani 1 1 d .
C1 C 0.1688(3) 0.6776(2) 0.08319(14) 0.0328(9) Uani 1 1 d .
C2 C 0.1221(3) 0.6350(2) 0.03799(14) 0.0323(8) Uani 1 1 d .
C3 C 0.1594(3) 0.5655(2) 0.01494(15) 0.0419(10) Uani 1 1 d .
H3A H 0.211391 0.542759 0.029599 0.050 Uiso 1 1 calc R
C4 C 0.1221(3) 0.5297(3) -0.02861(17) 0.0497(12) Uani 1 1 d .
H4 H 0.147928 0.482102 -0.044321 0.060 Uiso 1 1 calc R
C5 C 0.0464(3) 0.5629(3) -0.04979(16) 0.0464(11) Uani 1 1 d .
C6 C 0.0077(3) 0.6305(3) -0.02692(17) 0.0463(11) Uani 1 1 d .
H6 H -0.045113 0.652194 -0.041126 0.056 Uiso 1 1 calc R
C7 C 0.0460(3) 0.6668(3) 0.01691(16) 0.0398(10) Uani 1 1 d .
H7 H 0.019835 0.714161 0.032701 0.048 Uiso 1 1 calc R
C8 C -0.0326(3) 0.5644(2) -0.13274(16) 0.0451(11) Uani 1 1 d .
C9 C -0.0033(3) 0.6393(2) -0.15125(18) 0.0460(10) Uani 1 1 d .
H9 H 0.044279 0.666611 -0.134369 0.055 Uiso 1 1 calc R
C10 C -0.0443(3) 0.6747(2) -0.19516(16) 0.0414(10) Uani 1 1 d .
H10 H -0.023972 0.726200 -0.208574 0.050 Uiso 1 1 calc R
C11 C -0.1146(3) 0.6356(2) -0.21969(14) 0.0330(9) Uani 1 1 d .
C12 C -0.1446(3) 0.5612(2) -0.19841(15) 0.0397(10) Uani 1 1 d .
H12 H -0.194133 0.534838 -0.213714 0.048 Uiso 1 1 calc R
C13 C -0.1033(3) 0.5254(2) -0.15542(18) 0.0469(10) Uani 1 1 d .
H13 H -0.123537 0.474194 -0.141547 0.056 Uiso 1 1 calc R
C14 C -0.1580(3) 0.6730(2) -0.26724(15) 0.0318(9) Uani 1 1 d .
C15 C 0.1737(3) 0.6827(2) 0.23233(14) 0.0315(9) Uani 1 1 d .
C16 C 0.1300(3) 0.6442(2) 0.27949(14) 0.0321(8) Uani 1 1 d .
C17 C 0.1644(3) 0.5748(2) 0.30348(14) 0.0385(9) Uani 1 1 d .
H17 H 0.218092 0.552465 0.291042 0.046 Uiso 1 1 calc R
C18 C 0.1212(3) 0.5372(2) 0.34588(17) 0.0436(10) Uani 1 1 d .
H18 H 0.145349 0.489606 0.362561 0.052 Uiso 1 1 calc R
C19 C 0.0438(3) 0.5696(3) 0.36319(15) 0.0418(10) Uani 1 1 d .
C20 C 0.0081(3) 0.6399(2) 0.34039(18) 0.0450(10) Uani 1 1 d .
H20 H -0.045302 0.662241 0.353211 0.054 Uiso 1 1 calc R
C21 C 0.0518(3) 0.6769(2) 0.29862(16) 0.0396(10) Uani 1 1 d .
H21 H 0.028224 0.725332 0.282682 0.048 Uiso 1 1 calc R
C22 C -0.0383(3) 0.5641(2) 0.44430(15) 0.0422(10) Uani 1 1 d .
C23 C 0.0002(3) 0.6335(3) 0.46742(17) 0.0460(11) Uani 1 1 d .
H23 H 0.051772 0.656787 0.452701 0.055 Uiso 1 1 calc R
C24 C -0.0379(3) 0.6678(3) 0.51209(15) 0.0375(9) Uani 1 1 d .
H24 H -0.012967 0.715736 0.527879 0.045 Uiso 1 1 calc R
C25 C -0.1121(2) 0.6327(2) 0.53396(15) 0.0319(8) Uani 1 1 d .
C26 C -0.1489(3) 0.5636(2) 0.51045(15) 0.0390(9) Uani 1 1 d .
H26 H -0.199779 0.539463 0.525483 0.047 Uiso 1 1 calc R
C27 C -0.1121(3) 0.5293(2) 0.46505(15) 0.0410(10) Uani 1 1 d .
H27 H -0.137836 0.482290 0.448644 0.049 Uiso 1 1 calc R
C28 C -0.1560(3) 0.6732(2) 0.58069(14) 0.0290(8) Uani 1 1 d .
C29 C 0.4303(3) 0.5774(3) 0.09630(15) 0.0458(11) Uani 1 1 d .
H29 H 0.405162 0.606163 0.067102 0.055 Uiso 1 1 calc R
C30 C 0.4912(3) 0.5163(3) 0.08552(15) 0.0520(12) Uani 1 1 d .
H30 H 0.507083 0.503427 0.049927 0.062 Uiso 1 1 calc R
C31 C 0.5288(3) 0.4741(2) 0.12845(14) 0.0372(9) Uani 1 1 d .
C32 C 0.5025(3) 0.4963(3) 0.17903(15) 0.0422(10) Uani 1 1 d .
H32 H 0.527179 0.469575 0.209210 0.051 Uiso 1 1 calc R
C33 C 0.4410(3) 0.5567(2) 0.18560(14) 0.0382(9) Uani 1 1 d .
H33 H 0.423194 0.569666 0.220838 0.046 Uiso 1 1 calc R
C34 C 0.6136(3) 0.3718(2) 0.07747(15) 0.0406(10) Uani 1 1 d .
C35 C 0.6845(2) 0.3072(2) 0.08162(14) 0.0338(8) Uani 1 1 d .
C36 C 0.7181(2) 0.2777(2) 0.03435(14) 0.0346(8) Uani 1 1 d .
H36 H 0.695999 0.297850 0.001445 0.041 Uiso 1 1 calc R
C37 C 0.7829(2) 0.2198(2) 0.03469(15) 0.0357(8) Uani 1 1 d .
H37 H 0.806365 0.200560 0.001957 0.043 Uiso 1 1 calc R
C38 C 0.8149(3) 0.1885(2) 0.08252(15) 0.0369(9) Uani 1 1 d .
C39 C 0.7791(3) 0.2163(2) 0.13040(14) 0.0414(10) Uani 1 1 d .
H39 H 0.799399 0.194794 0.163389 0.050 Uiso 1 1 calc R
C40 C 0.7140(3) 0.2753(2) 0.12921(15) 0.0391(9) Uani 1 1 d .
H40 H 0.689203 0.294203 0.161661 0.047 Uiso 1 1 calc R
C41 C 0.8851(3) 0.1242(3) 0.07779(16) 0.0583(14) Uani 1 1 d .
C42 C 0.9874(3) 0.0366(2) 0.12872(15) 0.0381(9) Uani 1 1 d .
C43 C 1.0213(4) -0.0087(4) 0.08741(17) 0.092(2) Uani 1 1 d .
H43 H 1.002181 0.001114 0.051968 0.110 Uiso 1 1 calc R
C44 C 1.0834(4) -0.0688(3) 0.09772(16) 0.0734(18) Uani 1 1 d .
H44 H 1.107936 -0.097659 0.068358 0.088 Uiso 1 1 calc R
C45 C 1.0790(3) -0.0447(3) 0.18529(16) 0.0487(11) Uani 1 1 d .
H45 H 1.099202 -0.055935 0.220328 0.058 Uiso 1 1 calc R
C46 C 1.0173(3) 0.0175(3) 0.17841(16) 0.0496(12) Uani 1 1 d .
H46 H 0.995911 0.046889 0.208449 0.059 Uiso 1 1 calc R
O13 O 0.6909(2) 0.4230(2) 0.22212(12) 0.0635(9) Uani 1 1 d .
O14 O 0.5994(2) 0.66306(18) 0.26677(11) 0.0496(7) Uani 1 1 d .
O15 O 0.6676(4) 0.1657(4) 0.2466(2) 0.129(2) Uani 1 1 d .
N5 N 0.8091(3) 0.4564(3) 0.27252(17) 0.0664(11) Uani 1 1 d .
N6 N 0.6365(3) 0.6783(2) 0.18000(14) 0.0550(10) Uani 1 1 d .
N7 N 0.6027(3) 0.2167(3) 0.3207(2) 0.0732(12) Uani 1 1 d .
C47 C 0.7705(3) 0.4281(3) 0.22922(19) 0.0587(12) Uani 1 1 d .
H47 H 0.807225 0.410055 0.201044 0.070 Uiso 1 1 calc R
C48 C 0.9046(4) 0.4650(4) 0.2755(3) 0.098(2) Uani 1 1 d .
H48A H 0.930493 0.448618 0.241392 0.146 Uiso 1 1 calc GR
H48B H 0.927329 0.429442 0.303860 0.146 Uiso 1 1 calc GR
H48C H 0.919627 0.522820 0.283079 0.146 Uiso 1 1 calc GR
C49 C 0.7593(4) 0.4877(4) 0.3168(2) 0.0893(18) Uani 1 1 d .
H49A H 0.696769 0.480543 0.309622 0.134 Uiso 1 1 calc GR
H49B H 0.772116 0.546630 0.321786 0.134 Uiso 1 1 calc GR
H49C H 0.775093 0.457181 0.349124 0.134 Uiso 1 1 calc GR
C50 C 0.6376(3) 0.6405(3) 0.22716(19) 0.0578(12) Uani 1 1 d .
H50 H 0.671512 0.591419 0.229960 0.069 Uiso 1 1 calc R
C51 C 0.5912(4) 0.7526(4) 0.1716(3) 0.098(2) Uani 1 1 d .
H51A H 0.562628 0.751143 0.136715 0.148 Uiso 1 1 calc GR
H51B H 0.632434 0.799055 0.172833 0.148 Uiso 1 1 calc GR
H51C H 0.547026 0.759673 0.199458 0.148 Uiso 1 1 calc GR
C52 C 0.6845(4) 0.6442(5) 0.1345(2) 0.096(2) Uani 1 1 d .
H52A H 0.721472 0.687366 0.118885 0.144 Uiso 1 1 calc GR
H52B H 0.642923 0.624294 0.107654 0.144 Uiso 1 1 calc GR
H52C H 0.721201 0.598026 0.146428 0.144 Uiso 1 1 calc GR
C53 C 0.6477(5) 0.2249(6) 0.2772(3) 0.110(2) Uani 1 1 d .
H53 H 0.666952 0.278910 0.267770 0.131 Uiso 1 1 calc R
C54 C 0.5871(6) 0.2869(5) 0.3545(5) 0.156(4) Uani 1 1 d .
H54A H 0.628917 0.286427 0.384068 0.235 Uiso 1 1 calc GR
H54B H 0.527465 0.284128 0.368576 0.235 Uiso 1 1 calc GR
H54C H 0.594276 0.337922 0.333881 0.235 Uiso 1 1 calc GR
C55 C 0.5663(6) 0.1426(5) 0.3388(4) 0.138(3) Uani 1 1 d .
H55A H 0.503744 0.141705 0.330480 0.207 Uiso 1 1 calc GR
H55B H 0.574384 0.138322 0.377450 0.207 Uiso 1 1 calc GR
H55C H 0.595248 0.095894 0.321314 0.207 Uiso 1 1 calc GR
loop_
_atom_site_aniso_label
_atom_site_aniso_U_11
_atom_site_aniso_U_22
_atom_site_aniso_U_33
_atom_site_aniso_U_23
_atom_site_aniso_U_13
_atom_site_aniso_U_12
Co1 0.0268(2) 0.0266(2) 0.0213(2) -0.00223(19) 0.0007(2) 0.00970(17)
Co2 0.0254(2) 0.0250(2) 0.0220(2) 0.00118(18) 0.0001(2) 0.00728(17)
O1 0.0373(15) 0.0399(15) 0.0311(13) -0.0073(11) -0.0118(12) 0.0127(12)
O2 0.0412(15) 0.0347(15) 0.0349(15) -0.0081(11) -0.0092(12) 0.0078(12)
O3 0.0445(17) 0.0456(16) 0.0314(15) 0.0118(12) -0.0032(12) -0.0069(13)
O4 0.0434(17) 0.0416(15) 0.0331(14) 0.0002(12) -0.0086(13) 0.0002(13)
O5 0.0432(17) 0.0448(16) 0.0338(14) 0.0011(12) 0.0093(12) -0.0007(13)
O6 0.0446(17) 0.0433(16) 0.0344(15) 0.0086(12) 0.0059(13) -0.0004(13)
O7 0.0450(16) 0.0351(14) 0.0329(15) -0.0007(11) 0.0113(12) -0.0079(12)
O8 0.0354(15) 0.0343(14) 0.0301(13) -0.0048(11) 0.0087(11) -0.0050(12)
O9 0.107(3) 0.0343(16) 0.0500(19) 0.0026(13) -0.049(2) -0.0018(17)
O10 0.091(3) 0.0331(16) 0.0419(17) 0.0000(12) 0.0345(18) 0.0024(15)
O11 0.090(2) 0.091(2) 0.0322(16) -0.0161(16) -0.0201(17) 0.067(2)
O12 0.179(4) 0.148(4) 0.0294(17) -0.008(2) -0.008(2) 0.141(4)
N1 0.0380(16) 0.0327(15) 0.0252(16) -0.0036(12) -0.0002(13) 0.0153(13)
N2 0.052(2) 0.051(2) 0.0222(16) -0.0016(14) -0.0091(15) 0.0336(17)
N3 0.054(2) 0.048(2) 0.0285(17) -0.0013(15) -0.0002(15) 0.0328(17)
N4 0.0364(15) 0.0359(15) 0.0213(15) 0.0015(12) 0.0009(12) 0.0136(13)
C1 0.035(2) 0.038(2) 0.0258(19) 0.0014(15) -0.0021(17) 0.0038(18)
C2 0.041(2) 0.0315(18) 0.0241(18) 0.0008(15) -0.0094(16) 0.0035(17)
C3 0.054(3) 0.036(2) 0.036(2) 0.0009(16) -0.0139(19) 0.0055(18)
C4 0.075(3) 0.031(2) 0.042(2) -0.0049(18) -0.020(2) 0.012(2)
C5 0.071(3) 0.035(2) 0.033(2) -0.0001(17) -0.022(2) -0.007(2)
C6 0.051(3) 0.044(2) 0.044(2) 0.0043(19) -0.024(2) 0.002(2)
C7 0.041(2) 0.041(2) 0.037(2) -0.0010(18) -0.0110(19) 0.0084(18)
C8 0.069(3) 0.032(2) 0.035(2) -0.0035(17) -0.023(2) -0.003(2)
C9 0.055(3) 0.039(2) 0.043(2) -0.0043(19) -0.019(2) -0.0085(19)
C10 0.054(3) 0.033(2) 0.037(2) 0.0023(17) -0.0102(19) -0.0092(19)
C11 0.043(2) 0.033(2) 0.0227(18) -0.0036(15) -0.0031(16) -0.0009(17)
C12 0.051(3) 0.038(2) 0.0302(19) -0.0003(16) -0.0121(18) -0.0108(19)
C13 0.072(3) 0.034(2) 0.034(2) 0.007(2) -0.016(3) -0.0140(19)
C14 0.037(2) 0.035(2) 0.0233(18) 0.0014(15) 0.0033(16) 0.0048(17)
C15 0.033(2) 0.038(2) 0.0232(18) -0.0063(15) 0.0047(16) -0.0008(18)
C16 0.040(2) 0.0308(19) 0.0257(18) -0.0013(15) 0.0042(16) 0.0011(16)
C17 0.045(2) 0.041(2) 0.0293(19) -0.0012(16) 0.0087(17) 0.0116(18)
C18 0.064(3) 0.0356(19) 0.0316(19) 0.0046(19) 0.011(2) 0.0095(18)
C19 0.062(3) 0.038(2) 0.0260(19) 0.0043(16) 0.0151(18) 0.005(2)
C20 0.053(2) 0.043(2) 0.039(2) 0.004(2) 0.015(2) 0.0140(18)
C21 0.048(3) 0.038(2) 0.033(2) 0.0061(16) 0.0043(19) 0.0068(19)
C22 0.063(3) 0.036(2) 0.028(2) 0.0044(17) 0.0159(19) 0.008(2)
C23 0.053(3) 0.046(2) 0.039(2) 0.0017(18) 0.024(2) -0.010(2)
C24 0.039(2) 0.039(2) 0.035(2) -0.0039(17) 0.0099(18) -0.0017(17)
C25 0.038(2) 0.0300(18) 0.0277(19) 0.0046(15) 0.0005(17) -0.0006(16)
C26 0.052(3) 0.036(2) 0.0299(19) -0.0014(16) 0.0116(18) -0.0061(18)
C27 0.059(3) 0.036(2) 0.0285(19) -0.0006(16) 0.0087(19) -0.007(2)
C28 0.037(2) 0.0281(18) 0.0219(17) 0.0023(14) 0.0012(16) -0.0051(16)
C29 0.061(3) 0.053(2) 0.0240(19) -0.0035(17) -0.0022(18) 0.035(2)
C30 0.075(3) 0.061(3) 0.0204(19) 0.0027(18) 0.003(2) 0.045(2)
C31 0.044(2) 0.041(2) 0.0265(19) -0.0043(16) -0.0058(17) 0.0211(18)
C32 0.054(2) 0.046(2) 0.0268(19) -0.0042(16) -0.0065(18) 0.0265(19)
C33 0.050(2) 0.046(2) 0.0187(17) -0.0015(15) -0.0015(17) 0.0180(18)
C34 0.045(2) 0.047(2) 0.030(2) -0.0019(17) -0.0020(17) 0.0260(19)
C35 0.034(2) 0.037(2) 0.0307(19) 0.0003(14) -0.0041(16) 0.0143(16)
C36 0.044(2) 0.0336(19) 0.0260(18) -0.0007(16) -0.0038(16) 0.0164(17)
C37 0.045(2) 0.0352(19) 0.0274(18) -0.0001(16) 0.0008(17) 0.0170(17)
C38 0.044(2) 0.038(2) 0.0289(19) 0.0007(15) -0.0034(17) 0.0180(18)
C39 0.061(3) 0.042(2) 0.0211(18) 0.0001(16) -0.0002(18) 0.026(2)
C40 0.045(2) 0.044(2) 0.0282(19) -0.0034(17) 0.0012(17) 0.0201(18)
C41 0.079(3) 0.066(3) 0.030(2) 0.003(2) 0.001(2) 0.050(3)
C42 0.046(2) 0.037(2) 0.031(2) 0.0019(16) -0.0005(18) 0.0221(18)
C43 0.137(5) 0.116(5) 0.022(2) 0.000(2) -0.003(3) 0.102(4)
C44 0.104(4) 0.092(4) 0.024(2) 0.003(2) 0.006(2) 0.080(3)
C45 0.058(3) 0.056(3) 0.032(2) -0.0095(19) -0.013(2) 0.031(2)
C46 0.064(3) 0.057(3) 0.028(2) -0.0102(18) -0.006(2) 0.035(2)
O13 0.067(2) 0.066(2) 0.0572(19) -0.0124(15) -0.0191(16) 0.0212(17)
O14 0.0566(19) 0.0571(18) 0.0351(15) 0.0044(13) 0.0006(14) -0.0121(15)
O15 0.089(4) 0.199(6) 0.099(4) -0.026(4) 0.007(3) -0.014(4)
N5 0.072(3) 0.061(2) 0.066(3) -0.016(2) -0.017(2) 0.008(2)
N6 0.057(2) 0.068(3) 0.0398(18) 0.0092(17) -0.0006(18) -0.0127(19)
N7 0.066(3) 0.072(3) 0.081(3) 0.017(2) 0.007(2) -0.003(2)
C47 0.068(3) 0.054(3) 0.055(3) -0.010(2) -0.010(2) 0.015(2)
C48 0.085(5) 0.089(4) 0.119(5) -0.015(4) -0.027(4) -0.005(4)
C49 0.109(5) 0.096(4) 0.063(3) -0.031(3) -0.014(3) 0.015(4)
C50 0.065(3) 0.050(3) 0.058(3) 0.003(2) -0.012(3) -0.011(2)
C51 0.079(4) 0.110(5) 0.107(6) 0.050(4) 0.010(4) 0.013(4)
C52 0.102(5) 0.121(5) 0.066(3) -0.024(4) 0.023(3) -0.029(4)
C53 0.079(5) 0.152(8) 0.097(5) 0.041(5) -0.005(4) -0.007(5)
C54 0.126(7) 0.087(5) 0.256(12) -0.030(7) 0.049(8) 0.015(5)
C55 0.142(7) 0.114(6) 0.157(8) 0.049(6) 0.032(7) -0.034(5)
loop_
_atom_type_symbol
_atom_type_description
_atom_type_scat_dispersion_real
_atom_type_scat_dispersion_imag
_atom_type_scat_source
C C 0.0033 0.0016 'International Tables Vol C Tables 4.2.6.8 and 6.1.1.4'
H H 0.0000 0.0000 'International Tables Vol C Tables 4.2.6.8 and 6.1.1.4'
N N 0.0061 0.0033 'International Tables Vol C Tables 4.2.6.8 and 6.1.1.4'
O O 0.0106 0.0060 'International Tables Vol C Tables 4.2.6.8 and 6.1.1.4'
Co Co 0.3494 0.9721 'International Tables Vol C Tables 4.2.6.8 and 6.1.1.4'
loop_
_geom_angle_atom_site_label_1
_geom_angle_atom_site_label_2
_geom_angle_atom_site_label_3
_geom_angle
_geom_angle_site_symmetry_1
_geom_angle_site_symmetry_3
O1 Co1 Co2 82.68(7) . .
O1 Co1 O3 166.24(11) . 4_676
O1 Co1 O5 90.16(10) . .
O1 Co1 O7 88.58(11) . 4_675
O1 Co1 N1 90.88(11) . .
O3 Co1 Co2 83.61(8) 4_676 .
O3 Co1 O5 87.03(12) 4_676 .
O3 Co1 O7 91.20(10) 4_676 4_675
O3 Co1 N1 102.88(11) 4_676 .
O5 Co1 Co2 83.32(8) . .
O5 Co1 O7 167.27(11) . 4_675
O5 Co1 N1 101.34(12) . .
O7 Co1 Co2 83.96(7) 4_675 .
O7 Co1 N1 91.35(11) 4_675 .
N1 Co1 Co2 172.11(8) . .
O2 Co2 Co1 84.15(7) . .
O2 Co2 N4 92.27(11) . 1_465
O4 Co2 Co1 83.39(8) 4_676 .
O4 Co2 O2 167.44(11) 4_676 .
O4 Co2 N4 100.29(11) 4_676 1_465
O6 Co2 Co1 83.54(8) . .
O6 Co2 O2 89.87(10) . .
O6 Co2 O4 87.12(11) . 4_676
O6 Co2 O8 166.35(11) . 4_675
O6 Co2 N4 102.42(12) . 1_465
O8 Co2 Co1 82.82(7) 4_675 .
O8 Co2 O2 88.13(11) 4_675 .
O8 Co2 O4 91.92(10) 4_675 4_676
O8 Co2 N4 91.16(11) 4_675 1_465
N4 Co2 Co1 173.08(8) 1_465 .
C1 O1 Co1 125.6(2) . .
C1 O2 Co2 122.5(2) . .
C14 O3 Co1 124.0(3) . 4_575
C14 O4 Co2 123.1(2) . 4_575
C15 O5 Co1 123.1(2) . .
C15 O6 Co2 123.6(3) . .
C28 O7 Co1 123.0(2) . 4_576
C28 O8 Co2 124.8(2) . 4_576
C8 O9 C5 120.5(3) . .
C22 O10 C19 119.7(3) . .
C29 N1 Co1 120.0(2) . .
C33 N1 Co1 123.6(2) . .
C33 N1 C29 116.3(3) . .
C31 N2 H2 113(2) . .
C34 N2 H2 120(2) . .
C34 N2 C31 126.5(3) . .
C41 N3 H3 117(3) . .
C41 N3 C42 126.7(3) . .
C42 N3 H3 117(3) . .
C44 N4 Co2 119.7(2) . 1_645
C45 N4 Co2 123.9(2) . 1_645
C45 N4 C44 116.4(3) . .
O1 C1 O2 125.0(4) . .
O1 C1 C2 117.5(3) . .
O2 C1 C2 117.4(3) . .
C3 C2 C1 119.3(3) . .
C7 C2 C1 121.2(3) . .
C7 C2 C3 119.3(4) . .
C2 C3 H3A 119.8 . .
C4 C3 C2 120.5(4) . .
C4 C3 H3A 119.8 . .
C3 C4 H4 120.2 . .
C3 C4 C5 119.6(4) . .
C5 C4 H4 120.2 . .
C4 C5 O9 116.5(4) . .
C6 C5 O9 122.6(4) . .
C6 C5 C4 120.7(4) . .
C5 C6 H6 120.3 . .
C5 C6 C7 119.4(4) . .
C7 C6 H6 120.3 . .
C2 C7 C6 120.5(4) . .
C2 C7 H7 119.8 . .
C6 C7 H7 119.8 . .
C9 C8 O9 122.4(4) . .
C9 C8 C13 121.4(4) . .
C13 C8 O9 116.1(4) . .
C8 C9 H9 120.5 . .
C8 C9 C10 118.9(4) . .
C10 C9 H9 120.5 . .
C9 C10 H10 119.6 . .
C11 C10 C9 120.9(4) . .
C11 C10 H10 119.6 . .
C10 C11 C12 118.4(4) . .
C10 C11 C14 120.9(3) . .
C12 C11 C14 120.6(3) . .
C11 C12 H12 119.6 . .
C13 C12 C11 120.8(4) . .
C13 C12 H12 119.6 . .
C8 C13 C12 119.6(4) . .
C8 C13 H13 120.2 . .
C12 C13 H13 120.2 . .
O3 C14 O4 125.4(4) . .
O3 C14 C11 117.5(3) . .
O4 C14 C11 117.1(3) . .
O5 C15 C16 116.3(3) . .
O6 C15 O5 125.9(4) . .
O6 C15 C16 117.8(3) . .
C17 C16 C15 121.0(3) . .
C17 C16 C21 119.1(4) . .
C21 C16 C15 119.9(3) . .
C16 C17 H17 119.7 . .
C16 C17 C18 120.5(4) . .
C18 C17 H17 119.7 . .
C17 C18 H18 120.4 . .
C19 C18 C17 119.2(4) . .
C19 C18 H18 120.4 . .
C18 C19 O10 116.7(4) . .
C18 C19 C20 121.6(4) . .
C20 C19 O10 121.4(4) . .
C19 C20 H20 120.7 . .
C21 C20 C19 118.6(4) . .
C21 C20 H20 120.7 . .
C16 C21 H21 119.5 . .
C20 C21 C16 120.9(4) . .
C20 C21 H21 119.5 . .
O10 C22 C23 122.0(4) . .
C27 C22 O10 116.4(4) . .
C27 C22 C23 121.4(4) . .
C22 C23 H23 120.5 . .
C24 C23 C22 118.9(4) . .
C24 C23 H23 120.5 . .
C23 C24 H24 119.8 . .
C23 C24 C25 120.3(4) . .
C25 C24 H24 119.8 . .
C24 C25 C28 120.0(3) . .
C26 C25 C24 119.7(4) . .
C26 C25 C28 120.2(3) . .
C25 C26 H26 119.7 . .
C25 C26 C27 120.5(4) . .
C27 C26 H26 119.7 . .
C22 C27 C26 119.1(4) . .
C22 C27 H27 120.5 . .
C26 C27 H27 120.5 . .
O7 C28 O8 125.2(3) . .
O7 C28 C25 118.4(3) . .
O8 C28 C25 116.4(3) . .
N1 C29 H29 118.1 . .
N1 C29 C30 123.9(3) . .
C30 C29 H29 118.1 . .
C29 C30 H30 120.9 . .
C29 C30 C31 118.2(3) . .
C31 C30 H30 120.9 . .
N2 C31 C30 123.8(3) . .
C32 C31 N2 118.6(3) . .
C32 C31 C30 117.6(3) . .
C31 C32 H32 120.1 . .
C33 C32 C31 119.9(3) . .
C33 C32 H32 120.1 . .
N1 C33 C32 124.1(3) . .
N1 C33 H33 117.9 . .
C32 C33 H33 117.9 . .
O11 C34 N2 122.9(3) . .
O11 C34 C35 120.3(3) . .
N2 C34 C35 116.8(3) . .
C36 C35 C34 116.6(3) . .
C40 C35 C34 123.7(3) . .
C40 C35 C36 119.7(3) . .
C35 C36 H36 119.9 . .
C37 C36 C35 120.2(4) . .
C37 C36 H36 119.9 . .
C36 C37 H37 119.6 . .
C36 C37 C38 120.7(4) . .
C38 C37 H37 119.6 . .
C37 C38 C39 119.2(3) . .
C37 C38 C41 115.8(3) . .
C39 C38 C41 124.9(3) . .
C38 C39 H39 120.4 . .
C40 C39 C38 119.2(4) . .
C40 C39 H39 120.4 . .
C35 C40 C39 120.9(4) . .
C35 C40 H40 119.5 . .
C39 C40 H40 119.5 . .
O12 C41 N3 122.1(4) . .
O12 C41 C38 120.6(4) . .
N3 C41 C38 117.2(3) . .
C43 C42 N3 125.1(3) . .
C46 C42 N3 118.5(3) . .
C46 C42 C43 116.4(3) . .
C42 C43 H43 120.2 . .
C42 C43 C44 119.5(4) . .
C44 C43 H43 120.2 . .
N4 C44 C43 123.8(4) . .
N4 C44 H44 118.1 . .
C43 C44 H44 118.1 . .
N4 C45 H45 118.3 . .
N4 C45 C46 123.5(4) . .
C46 C45 H45 118.3 . .
C42 C46 C45 120.3(4) . .
C42 C46 H46 119.8 . .
C45 C46 H46 119.8 . .
C47 N5 C48 121.2(5) . .
C47 N5 C49 121.5(5) . .
C49 N5 C48 117.0(5) . .
C50 N6 C51 122.1(5) . .
C50 N6 C52 121.0(5) . .
C51 N6 C52 116.9(5) . .
C53 N7 C54 120.3(7) . .
C53 N7 C55 125.0(7) . .
C55 N7 C54 114.7(6) . .
O13 C47 N5 125.7(5) . .
O13 C47 H47 117.1 . .
N5 C47 H47 117.1 . .
N5 C48 H48A 109.5 . .
N5 C48 H48B 109.5 . .
N5 C48 H48C 109.5 . .
H48A C48 H48B 109.5 . .
H48A C48 H48C 109.5 . .
H48B C48 H48C 109.5 . .
N5 C49 H49A 109.5 . .
N5 C49 H49B 109.5 . .
N5 C49 H49C 109.5 . .
H49A C49 H49B 109.5 . .
H49A C49 H49C 109.5 . .
H49B C49 H49C 109.5 . .
O14 C50 N6 125.9(5) . .
O14 C50 H50 117.0 . .
N6 C50 H50 117.0 . .
N6 C51 H51A 109.5 . .
N6 C51 H51B 109.5 . .
N6 C51 H51C 109.5 . .
H51A C51 H51B 109.5 . .
H51A C51 H51C 109.5 . .
H51B C51 H51C 109.5 . .
N6 C52 H52A 109.5 . .
N6 C52 H52B 109.5 . .
N6 C52 H52C 109.5 . .
H52A C52 H52B 109.5 . .
H52A C52 H52C 109.5 . .
H52B C52 H52C 109.5 . .
O15 C53 N7 124.2(8) . .
O15 C53 H53 117.9 . .
N7 C53 H53 117.9 . .
N7 C54 H54A 109.5 . .
N7 C54 H54B 109.5 . .
N7 C54 H54C 109.5 . .
H54A C54 H54B 109.5 . .
H54A C54 H54C 109.5 . .
H54B C54 H54C 109.5 . .
N7 C55 H55A 109.5 . .
N7 C55 H55B 109.5 . .
N7 C55 H55C 109.5 . .
H55A C55 H55B 109.5 . .
H55A C55 H55C 109.5 . .
H55B C55 H55C 109.5 . .
loop_
_geom_bond_atom_site_label_1
_geom_bond_atom_site_label_2
_geom_bond_distance
_geom_bond_site_symmetry_2
Co1 Co2 2.6967(5) .
Co1 O1 2.020(2) .
Co1 O3 2.023(3) 4_676
Co1 O5 2.028(3) .
Co1 O7 2.038(3) 4_675
Co1 N1 2.044(3) .
Co2 O2 2.045(3) .
Co2 O4 2.042(3) 4_676
Co2 O6 2.017(3) .
Co2 O8 2.024(2) 4_675
Co2 N4 2.060(3) 1_465
O1 C1 1.255(4) .
O2 C1 1.260(4) .
O3 C14 1.256(4) .
O4 C14 1.261(5) .
O5 C15 1.258(5) .
O6 C15 1.250(4) .
O7 C28 1.250(4) .
O8 C28 1.262(4) .
O9 C5 1.392(5) .
O9 C8 1.381(5) .
O10 C19 1.389(5) .
O10 C22 1.382(5) .
O11 C34 1.225(5) .
O12 C41 1.212(5) .
N1 C29 1.350(4) .
N1 C33 1.326(4) .
N2 H2 0.847(18) .
N2 C31 1.393(5) .
N2 C34 1.362(5) .
N3 H3 0.890(19) .
N3 C41 1.363(5) .
N3 C42 1.396(5) .
N4 C44 1.326(5) .
N4 C45 1.304(5) .
C1 C2 1.507(5) .
C2 C3 1.386(5) .
C2 C7 1.378(5) .
C3 H3A 0.9500 .
C3 C4 1.363(6) .
C4 H4 0.9500 .
C4 C5 1.382(6) .
C5 C6 1.369(6) .
C6 H6 0.9500 .
C6 C7 1.378(6) .
C7 H7 0.9500 .
C8 C9 1.372(6) .
C8 C13 1.375(6) .
C9 H9 0.9500 .
C9 C10 1.391(6) .
C10 H10 0.9500 .
C10 C11 1.391(6) .
C11 C12 1.393(5) .
C11 C14 1.493(5) .
C12 H12 0.9500 .
C12 C13 1.378(6) .
C13 H13 0.9500 .
C15 C16 1.497(5) .
C16 C17 1.376(5) .
C16 C21 1.394(6) .
C17 H17 0.9500 .
C17 C18 1.394(6) .
C18 H18 0.9500 .
C18 C19 1.367(6) .
C19 C20 1.383(6) .
C20 H20 0.9500 .
C20 C21 1.381(6) .
C21 H21 0.9500 .
C22 C23 1.391(6) .
C22 C27 1.365(6) .
C23 H23 0.9500 .
C23 C24 1.381(5) .
C24 H24 0.9500 .
C24 C25 1.383(5) .
C25 C26 1.382(5) .
C25 C28 1.503(5) .
C26 H26 0.9500 .
C26 C27 1.388(5) .
C27 H27 0.9500 .
C29 H29 0.9500 .
C29 C30 1.383(5) .
C30 H30 0.9500 .
C30 C31 1.399(5) .
C31 C32 1.380(5) .
C32 H32 0.9500 .
C32 C33 1.366(5) .
C33 H33 0.9500 .
C34 C35 1.509(5) .
C35 C36 1.379(5) .
C35 C40 1.378(5) .
C36 H36 0.9500 .
C36 C37 1.363(4) .
C37 H37 0.9500 .
C37 C38 1.393(5) .
C38 C39 1.396(5) .
C38 C41 1.497(5) .
C39 H39 0.9500 .
C39 C40 1.379(5) .
C40 H40 0.9500 .
C42 C43 1.372(6) .
C42 C46 1.365(5) .
C43 H43 0.9500 .
C43 C44 1.383(6) .
C44 H44 0.9500 .
C45 H45 0.9500 .
C45 C46 1.389(5) .
C46 H46 0.9500 .
O13 C47 1.233(6) .
O14 C50 1.211(5) .
O15 C53 1.264(10) .
N5 C47 1.319(6) .
N5 C48 1.470(7) .
N5 C49 1.440(7) .
N6 C50 1.333(6) .
N6 C51 1.402(7) .
N6 C52 1.467(6) .
N7 C53 1.300(8) .
N7 C54 1.435(9) .
N7 C55 1.396(8) .
C47 H47 0.9500 .
C48 H48A 0.9800 .
C48 H48B 0.9800 .
C48 H48C 0.9800 .
C49 H49A 0.9800 .
C49 H49B 0.9800 .
C49 H49C 0.9800 .
C50 H50 0.9500 .
C51 H51A 0.9800 .
C51 H51B 0.9800 .
C51 H51C 0.9800 .
C52 H52A 0.9800 .
C52 H52B 0.9800 .
C52 H52C 0.9800 .
C53 H53 0.9500 .
C54 H54A 0.9800 .
C54 H54B 0.9800 .
C54 H54C 0.9800 .
C55 H55A 0.9800 .
C55 H55B 0.9800 .
C55 H55C 0.9800 .
loop_
_geom_torsion_atom_site_label_1
_geom_torsion_atom_site_label_2
_geom_torsion_atom_site_label_3
_geom_torsion_atom_site_label_4
_geom_torsion
_geom_torsion_site_symmetry_1
Co1 O1 C1 O2 -1.2(6) .
Co1 O1 C1 C2 175.6(2) .
Co1 O3 C14 O4 8.6(5) 4_575
Co1 O3 C14 C11 -171.8(2) 4_575
Co1 O5 C15 O6 9.4(5) .
Co1 O5 C15 C16 -172.4(2) .
Co1 O7 C28 O8 -5.6(5) 4_576
Co1 O7 C28 C25 173.2(2) 4_576
Co1 N1 C29 C30 177.7(4) .
Co1 N1 C33 C32 -176.7(3) .
Co2 O2 C1 O1 2.0(5) .
Co2 O2 C1 C2 -174.8(2) .
Co2 O4 C14 O3 -8.9(5) 4_575
Co2 O4 C14 C11 171.5(2) 4_575
Co2 O6 C15 O5 -9.3(5) .
Co2 O6 C15 C16 172.5(2) .
Co2 O8 C28 O7 4.1(5) 4_576
Co2 O8 C28 C25 -174.7(2) 4_576
Co2 N4 C44 C43 176.3(6) 1_645
Co2 N4 C45 C46 -177.3(4) 1_645
O1 C1 C2 C3 -4.0(5) .
O1 C1 C2 C7 -179.8(4) .
O2 C1 C2 C3 173.0(4) .
O2 C1 C2 C7 -2.8(6) .
O5 C15 C16 C17 4.5(5) .
O5 C15 C16 C21 -173.4(3) .
O6 C15 C16 C17 -177.2(4) .
O6 C15 C16 C21 4.9(5) .
O9 C5 C6 C7 177.8(4) .
O9 C8 C9 C10 173.2(4) .
O9 C8 C13 C12 -174.4(4) .
O10 C19 C20 C21 -172.6(4) .
O10 C22 C23 C24 -176.8(4) .
O10 C22 C27 C26 176.0(4) .
O11 C34 C35 C36 12.7(6) .
O11 C34 C35 C40 -165.0(4) .
N1 C29 C30 C31 -0.4(8) .
N2 C31 C32 C33 179.3(4) .
N2 C34 C35 C36 -167.3(4) .
N2 C34 C35 C40 15.0(6) .
N3 C42 C43 C44 -179.1(6) .
N3 C42 C46 C45 178.4(4) .
N4 C45 C46 C42 -1.0(8) .
C1 C2 C3 C4 -174.9(4) .
C1 C2 C7 C6 175.2(4) .
C2 C3 C4 C5 -0.1(7) .
C3 C2 C7 C6 -0.6(6) .
C3 C4 C5 O9 -177.6(4) .
C3 C4 C5 C6 -1.2(7) .
C4 C5 C6 C7 1.6(7) .
C5 O9 C8 C9 39.0(7) .
C5 O9 C8 C13 -145.1(5) .
C5 C6 C7 C2 -0.7(7) .
C7 C2 C3 C4 1.0(6) .
C8 O9 C5 C4 -146.4(5) .
C8 O9 C5 C6 37.3(7) .
C8 C9 C10 C11 0.8(7) .
C9 C8 C13 C12 1.5(7) .
C9 C10 C11 C12 1.7(6) .
C9 C10 C11 C14 -179.2(4) .
C10 C11 C12 C13 -2.6(6) .
C10 C11 C14 O3 3.5(6) .
C10 C11 C14 O4 -176.9(4) .
C11 C12 C13 C8 1.1(7) .
C12 C11 C14 O3 -177.4(4) .
C12 C11 C14 O4 2.2(5) .
C13 C8 C9 C10 -2.4(7) .
C14 C11 C12 C13 178.2(4) .
C15 C16 C17 C18 -177.1(4) .
C15 C16 C21 C20 176.8(4) .
C16 C17 C18 C19 0.5(6) .
C17 C16 C21 C20 -1.2(6) .
C17 C18 C19 O10 172.6(4) .
C17 C18 C19 C20 -1.4(7) .
C18 C19 C20 C21 1.0(7) .
C19 O10 C22 C23 -33.7(6) .
C19 O10 C22 C27 149.8(4) .
C19 C20 C21 C16 0.3(7) .
C21 C16 C17 C18 0.8(6) .
C22 O10 C19 C18 136.2(4) .
C22 O10 C19 C20 -49.8(6) .
C22 C23 C24 C25 1.2(6) .
C23 C22 C27 C26 -0.5(7) .
C23 C24 C25 C26 -0.9(6) .
C23 C24 C25 C28 -176.5(4) .
C24 C25 C26 C27 -0.1(6) .
C24 C25 C28 O7 -0.1(5) .
C24 C25 C28 O8 178.8(3) .
C25 C26 C27 C22 0.8(6) .
C26 C25 C28 O7 -175.7(4) .
C26 C25 C28 O8 3.2(5) .
C27 C22 C23 C24 -0.5(7) .
C28 C25 C26 C27 175.5(4) .
C29 N1 C33 C32 1.1(6) .
C29 C30 C31 N2 -178.3(4) .
C29 C30 C31 C32 0.0(7) .
C30 C31 C32 C33 0.9(7) .
C31 N2 C34 O11 0.6(8) .
C31 N2 C34 C35 -179.4(4) .
C31 C32 C33 N1 -1.5(7) .
C33 N1 C29 C30 -0.2(6) .
C34 N2 C31 C30 -15.8(7) .
C34 N2 C31 C32 165.9(4) .
C34 C35 C36 C37 179.4(3) .
C34 C35 C40 C39 -180.0(4) .
C35 C36 C37 C38 1.2(5) .
C36 C35 C40 C39 2.4(6) .
C36 C37 C38 C39 0.9(6) .
C36 C37 C38 C41 179.1(4) .
C37 C38 C39 C40 -1.3(6) .
C37 C38 C41 O12 -7.1(8) .
C37 C38 C41 N3 173.9(4) .
C38 C39 C40 C35 -0.4(6) .
C39 C38 C41 O12 171.0(6) .
C39 C38 C41 N3 -8.0(7) .
C40 C35 C36 C37 -2.8(6) .
C41 N3 C42 C43 -0.6(8) .
C41 N3 C42 C46 -178.6(5) .
C41 C38 C39 C40 -179.3(4) .
C42 N3 C41 O12 -2.0(9) .
C42 N3 C41 C38 177.1(4) .
C42 C43 C44 N4 2.9(11) .
C43 C42 C46 C45 0.2(8) .
C44 N4 C45 C46 2.6(7) .
C45 N4 C44 C43 -3.6(9) .
C46 C42 C43 C44 -1.1(10) .
C48 N5 C47 O13 -175.9(5) .
C49 N5 C47 O13 -2.0(8) .
C51 N6 C50 O14 2.2(8) .
C52 N6 C50 O14 -179.0(5) .
C54 N7 C53 O15 176.8(8) .
C55 N7 C53 O15 -3.2(11) .
loop_
_platon_squeeze_void_nr
_platon_squeeze_void_average_x
_platon_squeeze_void_average_y
_platon_squeeze_void_average_z
_platon_squeeze_void_volume
_platon_squeeze_void_count_electrons
_platon_squeeze_void_content
1 0.250 0.251 1.050 299 60 '3/4 DMF'
2 0.250 0.751 0.450 298 60 '3/4 DMF'
3 0.750 0.249 0.550 299 60 '3/4 DMF'
4 0.750 0.749 0.950 298 60 '3/4 DMF'
loop_
_twin_individual_id
_twin_individual_mass_fraction_refined
1 0.6404(11)
2 0.3596(11)
